MODEL 1
REMARK VINA RESULT:      -5.6      0.000      0.000
REMARK  8 active torsions:
REMARK  status: ('A' for Active; 'I' for Inactive)
REMARK    1  A    between atoms: N_3  and  C_9 
REMARK       I    between atoms: N_3  and  C_6 
REMARK    2  A    between atoms: C_4  and  C_5 
REMARK    3  A    between atoms: C_4  and  C_13 
REMARK    4  A    between atoms: C_5  and  C_6 
REMARK    5  A    between atoms: C_5  and  N_16 
REMARK    6  A    between atoms: S_7  and  C_8 
REMARK    7  A    between atoms: C_8  and  C_9 
REMARK    8  A    between atoms: C_9  and  C_10 
REMARK       I    between atoms: C_13  and  N_14 
ROOT
HETATM    1  C           1     -30.045  -4.629 -16.999  0.00  0.00     0.283 C 
ENDROOT
BRANCH   1   2
HETATM    2  C           1     -31.442  -5.194 -17.220  0.00  0.00     0.145 C 
BRANCH   2   3
HETATM    3  C           1     -32.467  -4.113 -16.973  0.00  0.00     0.217 C 
HETATM    4  N           1     -33.437  -4.294 -16.023  0.00  0.00    -0.370 N 
HETATM    5  H           1     -34.123  -3.570 -15.857  0.00  0.00     0.159 HD
HETATM    6  H           1     -33.466  -5.152 -15.486  0.00  0.00     0.159 HD
HETATM    7  O           1     -32.432  -3.090 -17.613  0.00  0.00    -0.274 OA
ENDBRANCH   2   3
ENDBRANCH   1   2
BRANCH   1   8
HETATM    8  C           1     -29.038  -5.753 -17.024  0.00  0.00     0.249 C 
HETATM    9  N           1     -27.734  -5.495 -17.349  0.00  0.00    -0.344 N 
HETATM   10  H           1     -27.445  -4.551 -17.573  0.00  0.00     0.163 HD
HETATM   11  O           1     -29.383  -6.880 -16.758  0.00  0.00    -0.271 OA
BRANCH   9  12
HETATM   12  C           1     -26.766  -6.574 -17.374  0.00  0.00     0.194 C 
BRANCH  12  13
HETATM   13  C           1     -25.851  -6.409 -18.580  0.00  0.00     0.106 C 
BRANCH  13  14
HETATM   14  S           1     -26.801  -6.680 -20.103  0.00  0.00    -0.180 SA
HETATM   15  H           1     -27.922  -7.109 -19.494  0.00  0.00     0.101 HD
ENDBRANCH  13  14
ENDBRANCH  12  13
BRANCH  12  16
HETATM   16  C           1     -25.942  -6.539 -16.109  0.00  0.00     0.197 C 
HETATM   17  O           1     -26.079  -7.436 -15.250  0.00  0.00    -0.646 OA
HETATM   18  O           1     -25.125  -5.612 -15.921  0.00  0.00    -0.646 OA
ENDBRANCH  12  16
ENDBRANCH   9  12
ENDBRANCH   1   8
BRANCH   1  19
HETATM   19  N           1     -29.726  -3.647 -18.088  0.00  0.00    -0.066 N 
HETATM   20  H           1     -30.056  -2.696 -17.809  0.00  0.00     0.275 HD
HETATM   21  H           1     -28.693  -3.626 -18.245  0.00  0.00     0.275 HD
HETATM   22  H           1     -30.207  -3.938 -18.970  0.00  0.00     0.275 HD
ENDBRANCH   1  19
TORSDOF 8
ENDMDL
MODEL 2
REMARK VINA RESULT:      -5.6      3.625      6.371
REMARK  8 active torsions:
REMARK  status: ('A' for Active; 'I' for Inactive)
REMARK    1  A    between atoms: N_3  and  C_9 
REMARK       I    between atoms: N_3  and  C_6 
REMARK    2  A    between atoms: C_4  and  C_5 
REMARK    3  A    between atoms: C_4  and  C_13 
REMARK    4  A    between atoms: C_5  and  C_6 
REMARK    5  A    between atoms: C_5  and  N_16 
REMARK    6  A    between atoms: S_7  and  C_8 
REMARK    7  A    between atoms: C_8  and  C_9 
REMARK    8  A    between atoms: C_9  and  C_10 
REMARK       I    between atoms: C_13  and  N_14 
ROOT
HETATM    1  C           1     -25.745  -7.703 -20.276  0.00  0.00     0.283 C 
ENDROOT
BRANCH   1   2
HETATM    2  C           1     -24.846  -7.097 -21.345  0.00  0.00     0.145 C 
BRANCH   2   3
HETATM    3  C           1     -23.800  -8.105 -21.755  0.00  0.00     0.217 C 
HETATM    4  N           1     -22.907  -8.579 -20.832  0.00  0.00    -0.370 N 
HETATM    5  H           1     -22.206  -9.254 -21.106  0.00  0.00     0.159 HD
HETATM    6  H           1     -22.948  -8.253 -19.874  0.00  0.00     0.159 HD
HETATM    7  O           1     -23.751  -8.493 -22.898  0.00  0.00    -0.274 OA
ENDBRANCH   2   3
ENDBRANCH   1   2
BRANCH   1   8
HETATM    8  C           1     -25.547  -6.964 -18.975  0.00  0.00     0.249 C 
HETATM    9  N           1     -26.630  -6.631 -18.207  0.00  0.00    -0.344 N 
HETATM   10  H           1     -27.563  -6.880 -18.511  0.00  0.00     0.163 HD
HETATM   11  O           1     -24.434  -6.667 -18.611  0.00  0.00    -0.271 OA
BRANCH   9  12
HETATM   12  C           1     -26.442  -5.922 -16.956  0.00  0.00     0.194 C 
BRANCH  12  13
HETATM   13  C           1     -27.604  -4.963 -16.736  0.00  0.00     0.106 C 
BRANCH  13  14
HETATM   14  S           1     -28.834  -5.188 -18.051  0.00  0.00    -0.180 SA
HETATM   15  H           1     -28.027  -5.873 -18.882  0.00  0.00     0.101 HD
ENDBRANCH  13  14
ENDBRANCH  12  13
BRANCH  12  16
HETATM   16  C           1     -26.383  -6.913 -15.819  0.00  0.00     0.197 C 
HETATM   17  O           1     -25.279  -7.324 -15.405  0.00  0.00    -0.646 OA
HETATM   18  O           1     -27.441  -7.323 -15.293  0.00  0.00    -0.646 OA
ENDBRANCH  12  16
ENDBRANCH   9  12
ENDBRANCH   1   8
BRANCH   1  19
HETATM   19  N           1     -27.178  -7.587 -20.704  0.00  0.00    -0.066 N 
HETATM   20  H           1     -27.792  -8.048 -19.996  0.00  0.00     0.275 HD
HETATM   21  H           1     -27.436  -6.577 -20.786  0.00  0.00     0.275 HD
HETATM   22  H           1     -27.303  -8.056 -21.630  0.00  0.00     0.275 HD
ENDBRANCH   1  19
TORSDOF 8
ENDMDL
MODEL 3
REMARK VINA RESULT:      -5.5      3.722      6.818
REMARK  8 active torsions:
REMARK  status: ('A' for Active; 'I' for Inactive)
REMARK    1  A    between atoms: N_3  and  C_9 
REMARK       I    between atoms: N_3  and  C_6 
REMARK    2  A    between atoms: C_4  and  C_5 
REMARK    3  A    between atoms: C_4  and  C_13 
REMARK    4  A    between atoms: C_5  and  C_6 
REMARK    5  A    between atoms: C_5  and  N_16 
REMARK    6  A    between atoms: S_7  and  C_8 
REMARK    7  A    between atoms: C_8  and  C_9 
REMARK    8  A    between atoms: C_9  and  C_10 
REMARK       I    between atoms: C_13  and  N_14 
ROOT
HETATM    1  C           1     -25.616  -6.976 -20.606  0.00  0.00     0.283 C 
ENDROOT
BRANCH   1   2
HETATM    2  C           1     -24.324  -7.647 -20.161  0.00  0.00     0.145 C 
BRANCH   2   3
HETATM    3  C           1     -23.671  -8.319 -21.345  0.00  0.00     0.217 C 
HETATM    4  N           1     -22.556  -9.093 -21.165  0.00  0.00    -0.370 N 
HETATM    5  H           1     -22.119  -9.543 -21.957  0.00  0.00     0.159 HD
HETATM    6  H           1     -22.170  -9.215 -20.236  0.00  0.00     0.159 HD
HETATM    7  O           1     -24.132  -8.173 -22.451  0.00  0.00    -0.274 OA
ENDBRANCH   2   3
ENDBRANCH   1   2
BRANCH   1   8
HETATM    8  C           1     -26.476  -6.689 -19.399  0.00  0.00     0.249 C 
HETATM    9  N           1     -27.835  -6.828 -19.479  0.00  0.00    -0.344 N 
HETATM   10  H           1     -28.264  -7.123 -20.347  0.00  0.00     0.163 HD
HETATM   11  O           1     -25.964  -6.336 -18.363  0.00  0.00    -0.271 OA
BRANCH   9  12
HETATM   12  C           1     -28.662  -6.553 -18.320  0.00  0.00     0.194 C 
BRANCH  12  13
HETATM   13  C           1     -29.150  -5.111 -18.376  0.00  0.00     0.106 C 
BRANCH  13  14
HETATM   14  S           1     -28.503  -4.196 -16.948  0.00  0.00    -0.180 SA
HETATM   15  H           1     -27.677  -5.168 -16.521  0.00  0.00     0.101 HD
ENDBRANCH  13  14
ENDBRANCH  12  13
BRANCH  12  16
HETATM   16  C           1     -29.848  -7.487 -18.315  0.00  0.00     0.197 C 
HETATM   17  O           1     -30.819  -7.258 -17.564  0.00  0.00    -0.646 OA
HETATM   18  O           1     -29.857  -8.489 -19.062  0.00  0.00    -0.646 OA
ENDBRANCH  12  16
ENDBRANCH   9  12
ENDBRANCH   1   8
BRANCH   1  19
HETATM   19  N           1     -25.295  -5.690 -21.308  0.00  0.00    -0.066 N 
HETATM   20  H           1     -24.282  -5.677 -21.568  0.00  0.00     0.275 HD
HETATM   21  H           1     -25.877  -5.611 -22.172  0.00  0.00     0.275 HD
HETATM   22  H           1     -25.501  -4.886 -20.673  0.00  0.00     0.275 HD
ENDBRANCH   1  19
TORSDOF 8
ENDMDL
MODEL 4
REMARK VINA RESULT:      -5.5      3.697      6.445
REMARK  8 active torsions:
REMARK  status: ('A' for Active; 'I' for Inactive)
REMARK    1  A    between atoms: N_3  and  C_9 
REMARK       I    between atoms: N_3  and  C_6 
REMARK    2  A    between atoms: C_4  and  C_5 
REMARK    3  A    between atoms: C_4  and  C_13 
REMARK    4  A    between atoms: C_5  and  C_6 
REMARK    5  A    between atoms: C_5  and  N_16 
REMARK    6  A    between atoms: S_7  and  C_8 
REMARK    7  A    between atoms: C_8  and  C_9 
REMARK    8  A    between atoms: C_9  and  C_10 
REMARK       I    between atoms: C_13  and  N_14 
ROOT
HETATM    1  C           1     -25.129  -6.892 -19.844  0.00  0.00     0.283 C 
ENDROOT
BRANCH   1   2
HETATM    2  C           1     -25.283  -7.982 -20.895  0.00  0.00     0.145 C 
BRANCH   2   3
HETATM    3  C           1     -24.018  -8.074 -21.715  0.00  0.00     0.217 C 
HETATM    4  N           1     -22.981  -8.858 -21.286  0.00  0.00    -0.370 N 
HETATM    5  H           1     -22.133  -8.920 -21.835  0.00  0.00     0.159 HD
HETATM    6  H           1     -23.062  -9.376 -20.420  0.00  0.00     0.159 HD
HETATM    7  O           1     -23.922  -7.456 -22.748  0.00  0.00    -0.274 OA
ENDBRANCH   2   3
ENDBRANCH   1   2
BRANCH   1   8
HETATM    8  C           1     -26.493  -6.410 -19.414  0.00  0.00     0.249 C 
HETATM    9  N           1     -26.814  -6.361 -18.085  0.00  0.00    -0.344 N 
HETATM   10  H           1     -26.136  -6.648 -17.390  0.00  0.00     0.163 HD
HETATM   11  O           1     -27.302  -6.068 -20.244  0.00  0.00    -0.271 OA
BRANCH   9  12
HETATM   12  C           1     -28.124  -5.898 -17.671  0.00  0.00     0.194 C 
BRANCH  12  13
HETATM   13  C           1     -28.927  -7.070 -17.124  0.00  0.00     0.106 C 
BRANCH  13  14
HETATM   14  S           1     -30.251  -7.496 -18.290  0.00  0.00    -0.180 SA
HETATM   15  H           1     -29.607  -7.074 -19.393  0.00  0.00     0.101 HD
ENDBRANCH  13  14
ENDBRANCH  12  13
BRANCH  12  16
HETATM   16  C           1     -27.971  -4.848 -16.598  0.00  0.00     0.197 C 
HETATM   17  O           1     -27.956  -3.637 -16.907  0.00  0.00    -0.646 OA
HETATM   18  O           1     -27.859  -5.189 -15.401  0.00  0.00    -0.646 OA
ENDBRANCH  12  16
ENDBRANCH   9  12
ENDBRANCH   1   8
BRANCH   1  19
HETATM   19  N           1     -24.397  -7.444 -18.656  0.00  0.00    -0.066 N 
HETATM   20  H           1     -23.425  -7.062 -18.636  0.00  0.00     0.275 HD
HETATM   21  H           1     -24.898  -7.170 -17.781  0.00  0.00     0.275 HD
HETATM   22  H           1     -24.360  -8.486 -18.725  0.00  0.00     0.275 HD
ENDBRANCH   1  19
TORSDOF 8
ENDMDL
MODEL 5
REMARK VINA RESULT:      -5.5     10.380     12.693
REMARK  8 active torsions:
REMARK  status: ('A' for Active; 'I' for Inactive)
REMARK    1  A    between atoms: N_3  and  C_9 
REMARK       I    between atoms: N_3  and  C_6 
REMARK    2  A    between atoms: C_4  and  C_5 
REMARK    3  A    between atoms: C_4  and  C_13 
REMARK    4  A    between atoms: C_5  and  C_6 
REMARK    5  A    between atoms: C_5  and  N_16 
REMARK    6  A    between atoms: S_7  and  C_8 
REMARK    7  A    between atoms: C_8  and  C_9 
REMARK    8  A    between atoms: C_9  and  C_10 
REMARK       I    between atoms: C_13  and  N_14 
ROOT
HETATM    1  C           1     -21.189  -5.741  -6.763  0.00  0.00     0.283 C 
ENDROOT
BRANCH   1   2
HETATM    2  C           1     -20.901  -5.249  -5.351  0.00  0.00     0.145 C 
BRANCH   2   3
HETATM    3  C           1     -21.196  -6.352  -4.363  0.00  0.00     0.217 C 
HETATM    4  N           1     -21.990  -6.103  -3.276  0.00  0.00    -0.370 N 
HETATM    5  H           1     -22.188  -6.841  -2.614  0.00  0.00     0.159 HD
HETATM    6  H           1     -22.380  -5.179  -3.135  0.00  0.00     0.159 HD
HETATM    7  O           1     -20.730  -7.453  -4.532  0.00  0.00    -0.274 OA
ENDBRANCH   2   3
ENDBRANCH   1   2
BRANCH   1   8
HETATM    8  C           1     -21.701  -4.594  -7.601  0.00  0.00     0.249 C 
HETATM    9  N           1     -22.275  -4.841  -8.818  0.00  0.00    -0.344 N 
HETATM   10  H           1     -22.355  -5.791  -9.157  0.00  0.00     0.163 HD
HETATM   11  O           1     -21.604  -3.460  -7.196  0.00  0.00    -0.271 OA
BRANCH   9  12
HETATM   12  C           1     -22.767  -3.740  -9.624  0.00  0.00     0.194 C 
BRANCH  12  13
HETATM   13  C           1     -22.190  -3.842 -11.029  0.00  0.00     0.106 C 
BRANCH  13  14
HETATM   14  S           1     -20.395  -4.095 -10.932  0.00  0.00    -0.180 SA
HETATM   15  H           1     -20.455  -5.267 -10.275  0.00  0.00     0.101 HD
ENDBRANCH  13  14
ENDBRANCH  12  13
BRANCH  12  16
HETATM   16  C           1     -24.274  -3.801  -9.692  0.00  0.00     0.197 C 
HETATM   17  O           1     -24.949  -2.761  -9.537  0.00  0.00    -0.646 OA
HETATM   18  O           1     -24.845  -4.893  -9.903  0.00  0.00    -0.646 OA
ENDBRANCH  12  16
ENDBRANCH   9  12
ENDBRANCH   1   8
BRANCH   1  19
HETATM   19  N           1     -19.928  -6.280  -7.370  0.00  0.00    -0.066 N 
HETATM   20  H           1     -19.147  -6.203  -6.681  0.00  0.00     0.275 HD
HETATM   21  H           1     -20.068  -7.283  -7.629  0.00  0.00     0.275 HD
HETATM   22  H           1     -19.691  -5.729  -8.227  0.00  0.00     0.275 HD
ENDBRANCH   1  19
TORSDOF 8
ENDMDL
MODEL 6
REMARK VINA RESULT:      -4.9     10.914     12.735
REMARK  8 active torsions:
REMARK  status: ('A' for Active; 'I' for Inactive)
REMARK    1  A    between atoms: N_3  and  C_9 
REMARK       I    between atoms: N_3  and  C_6 
REMARK    2  A    between atoms: C_4  and  C_5 
REMARK    3  A    between atoms: C_4  and  C_13 
REMARK    4  A    between atoms: C_5  and  C_6 
REMARK    5  A    between atoms: C_5  and  N_16 
REMARK    6  A    between atoms: S_7  and  C_8 
REMARK    7  A    between atoms: C_8  and  C_9 
REMARK    8  A    between atoms: C_9  and  C_10 
REMARK       I    between atoms: C_13  and  N_14 
ROOT
HETATM    1  C           1     -21.491  -3.984  -8.591  0.00  0.00     0.283 C 
ENDROOT
BRANCH   1   2
HETATM    2  C           1     -22.854  -4.585  -8.908  0.00  0.00     0.145 C 
BRANCH   2   3
HETATM    3  C           1     -23.666  -3.598  -9.713  0.00  0.00     0.217 C 
HETATM    4  N           1     -24.860  -3.137  -9.228  0.00  0.00    -0.370 N 
HETATM    5  H           1     -25.403  -2.475  -9.766  0.00  0.00     0.159 HD
HETATM    6  H           1     -25.199  -3.457  -8.329  0.00  0.00     0.159 HD
HETATM    7  O           1     -23.261  -3.216 -10.784  0.00  0.00    -0.274 OA
ENDBRANCH   2   3
ENDBRANCH   1   2
BRANCH   1   8
HETATM    8  C           1     -20.928  -4.639  -7.354  0.00  0.00     0.249 C 
HETATM    9  N           1     -21.684  -5.539  -6.653  0.00  0.00    -0.344 N 
HETATM   10  H           1     -22.620  -5.766  -6.964  0.00  0.00     0.163 HD
HETATM   11  O           1     -19.811  -4.367  -6.982  0.00  0.00    -0.271 OA
BRANCH   9  12
HETATM   12  C           1     -21.143  -6.169  -5.464  0.00  0.00     0.194 C 
BRANCH  12  13
HETATM   13  C           1     -22.256  -6.369  -4.445  0.00  0.00     0.106 C 
BRANCH  13  14
HETATM   14  S           1     -21.555  -6.361  -2.771  0.00  0.00    -0.180 SA
HETATM   15  H           1     -20.348  -5.884  -3.127  0.00  0.00     0.101 HD
ENDBRANCH  13  14
ENDBRANCH  12  13
BRANCH  12  16
HETATM   16  C           1     -20.548  -7.507  -5.830  0.00  0.00     0.197 C 
HETATM   17  O           1     -19.338  -7.592  -6.129  0.00  0.00    -0.646 OA
HETATM   18  O           1     -21.266  -8.530  -5.834  0.00  0.00    -0.646 OA
ENDBRANCH  12  16
ENDBRANCH   9  12
ENDBRANCH   1   8
BRANCH   1  19
HETATM   19  N           1     -20.563  -4.216  -9.747  0.00  0.00    -0.066 N 
HETATM   20  H           1     -20.095  -3.318 -10.005  0.00  0.00     0.275 HD
HETATM   21  H           1     -19.840  -4.921  -9.475  0.00  0.00     0.275 HD
HETATM   22  H           1     -21.108  -4.572 -10.565  0.00  0.00     0.275 HD
ENDBRANCH   1  19
TORSDOF 8
ENDMDL
MODEL 7
REMARK VINA RESULT:      -4.8     12.548     14.397
REMARK  8 active torsions:
REMARK  status: ('A' for Active; 'I' for Inactive)
REMARK    1  A    between atoms: N_3  and  C_9 
REMARK       I    between atoms: N_3  and  C_6 
REMARK    2  A    between atoms: C_4  and  C_5 
REMARK    3  A    between atoms: C_4  and  C_13 
REMARK    4  A    between atoms: C_5  and  C_6 
REMARK    5  A    between atoms: C_5  and  N_16 
REMARK    6  A    between atoms: S_7  and  C_8 
REMARK    7  A    between atoms: C_8  and  C_9 
REMARK    8  A    between atoms: C_9  and  C_10 
REMARK       I    between atoms: C_13  and  N_14 
ROOT
HETATM    1  C           1     -20.696  -5.241  -6.411  0.00  0.00     0.283 C 
ENDROOT
BRANCH   1   2
HETATM    2  C           1     -21.344  -3.886  -6.664  0.00  0.00     0.145 C 
BRANCH   2   3
HETATM    3  C           1     -22.215  -3.966  -7.896  0.00  0.00     0.217 C 
HETATM    4  N           1     -23.551  -4.236  -7.773  0.00  0.00    -0.370 N 
HETATM    5  H           1     -24.135  -4.289  -8.597  0.00  0.00     0.159 HD
HETATM    6  H           1     -23.956  -4.381  -6.856  0.00  0.00     0.159 HD
HETATM    7  O           1     -21.731  -3.793  -8.989  0.00  0.00    -0.274 OA
ENDBRANCH   2   3
ENDBRANCH   1   2
BRANCH   1   8
HETATM    8  C           1     -21.523  -6.017  -5.416  0.00  0.00     0.249 C 
HETATM    9  N           1     -20.911  -6.859  -4.527  0.00  0.00    -0.344 N 
HETATM   10  H           1     -19.904  -6.962  -4.538  0.00  0.00     0.163 HD
HETATM   11  O           1     -22.725  -5.895  -5.403  0.00  0.00    -0.271 OA
BRANCH   9  12
HETATM   12  C           1     -21.705  -7.605  -3.570  0.00  0.00     0.194 C 
BRANCH  12  13
HETATM   13  C           1     -21.154  -9.019  -3.445  0.00  0.00     0.106 C 
BRANCH  13  14
HETATM   14  S           1     -20.936  -9.733  -5.100  0.00  0.00    -0.180 SA
HETATM   15  H           1     -19.881  -8.972  -5.443  0.00  0.00     0.101 HD
ENDBRANCH  13  14
ENDBRANCH  12  13
BRANCH  12  16
HETATM   16  C           1     -21.646  -6.920  -2.226  0.00  0.00     0.197 C 
HETATM   17  O           1     -21.022  -7.450  -1.282  0.00  0.00    -0.646 OA
HETATM   18  O           1     -22.223  -5.824  -2.058  0.00  0.00    -0.646 OA
ENDBRANCH  12  16
ENDBRANCH   9  12
ENDBRANCH   1   8
BRANCH   1  19
HETATM   19  N           1     -20.618  -6.005  -7.700  0.00  0.00    -0.066 N 
HETATM   20  H           1     -21.545  -5.974  -8.182  0.00  0.00     0.275 HD
HETATM   21  H           1     -19.890  -5.575  -8.315  0.00  0.00     0.275 HD
HETATM   22  H           1     -20.363  -6.999  -7.500  0.00  0.00     0.275 HD
ENDBRANCH   1  19
TORSDOF 8
ENDMDL
MODEL 8
REMARK VINA RESULT:      -4.8      2.228      2.518
REMARK  8 active torsions:
REMARK  status: ('A' for Active; 'I' for Inactive)
REMARK    1  A    between atoms: N_3  and  C_9 
REMARK       I    between atoms: N_3  and  C_6 
REMARK    2  A    between atoms: C_4  and  C_5 
REMARK    3  A    between atoms: C_4  and  C_13 
REMARK    4  A    between atoms: C_5  and  C_6 
REMARK    5  A    between atoms: C_5  and  N_16 
REMARK    6  A    between atoms: S_7  and  C_8 
REMARK    7  A    between atoms: C_8  and  C_9 
REMARK    8  A    between atoms: C_9  and  C_10 
REMARK       I    between atoms: C_13  and  N_14 
ROOT
HETATM    1  C           1     -30.240  -3.979 -16.808  0.00  0.00     0.283 C 
ENDROOT
BRANCH   1   2
HETATM    2  C           1     -31.044  -5.145 -17.367  0.00  0.00     0.145 C 
BRANCH   2   3
HETATM    3  C           1     -32.468  -5.058 -16.873  0.00  0.00     0.217 C 
HETATM    4  N           1     -33.290  -6.150 -16.959  0.00  0.00    -0.370 N 
HETATM    5  H           1     -34.244  -6.092 -16.628  0.00  0.00     0.159 HD
HETATM    6  H           1     -32.943  -7.015 -17.354  0.00  0.00     0.159 HD
HETATM    7  O           1     -32.882  -4.026 -16.402  0.00  0.00    -0.274 OA
ENDBRANCH   2   3
ENDBRANCH   1   2
BRANCH   1   8
HETATM    8  C           1     -28.768  -4.305 -16.874  0.00  0.00     0.249 C 
HETATM    9  N           1     -28.363  -5.582 -17.153  0.00  0.00    -0.344 N 
HETATM   10  H           1     -29.049  -6.308 -17.314  0.00  0.00     0.163 HD
HETATM   11  O           1     -27.948  -3.438 -16.681  0.00  0.00    -0.271 OA
BRANCH   9  12
HETATM   12  C           1     -26.949  -5.896 -17.216  0.00  0.00     0.194 C 
BRANCH  12  13
HETATM   13  C           1     -26.630  -7.010 -16.228  0.00  0.00     0.106 C 
BRANCH  13  14
HETATM   14  S           1     -24.972  -6.753 -15.538  0.00  0.00    -0.180 SA
HETATM   15  H           1     -24.302  -7.064 -16.662  0.00  0.00     0.101 HD
ENDBRANCH  13  14
ENDBRANCH  12  13
BRANCH  12  16
HETATM   16  C           1     -26.596  -6.346 -18.614  0.00  0.00     0.197 C 
HETATM   17  O           1     -27.500  -6.536 -19.455  0.00  0.00    -0.646 OA
HETATM   18  O           1     -25.400  -6.529 -18.928  0.00  0.00    -0.646 OA
ENDBRANCH  12  16
ENDBRANCH   9  12
ENDBRANCH   1   8
BRANCH   1  19
HETATM   19  N           1     -30.517  -2.748 -17.619  0.00  0.00    -0.066 N 
HETATM   20  H           1     -29.638  -2.435 -18.090  0.00  0.00     0.275 HD
HETATM   21  H           1     -31.242  -2.963 -18.341  0.00  0.00     0.275 HD
HETATM   22  H           1     -30.864  -1.988 -16.991  0.00  0.00     0.275 HD
ENDBRANCH   1  19
TORSDOF 8
ENDMDL
MODEL 9
REMARK VINA RESULT:      -4.6     13.737     15.685
REMARK  8 active torsions:
REMARK  status: ('A' for Active; 'I' for Inactive)
REMARK    1  A    between atoms: N_3  and  C_9 
REMARK       I    between atoms: N_3  and  C_6 
REMARK    2  A    between atoms: C_4  and  C_5 
REMARK    3  A    between atoms: C_4  and  C_13 
REMARK    4  A    between atoms: C_5  and  C_6 
REMARK    5  A    between atoms: C_5  and  N_16 
REMARK    6  A    between atoms: S_7  and  C_8 
REMARK    7  A    between atoms: C_8  and  C_9 
REMARK    8  A    between atoms: C_9  and  C_10 
REMARK       I    between atoms: C_13  and  N_14 
ROOT
HETATM    1  C           1     -21.379  -6.812  -2.398  0.00  0.00     0.283 C 
ENDROOT
BRANCH   1   2
HETATM    2  C           1     -21.841  -8.138  -1.809  0.00  0.00     0.145 C 
BRANCH   2   3
HETATM    3  C           1     -22.178  -7.951  -0.349  0.00  0.00     0.217 C 
HETATM    4  N           1     -21.263  -8.283   0.613  0.00  0.00    -0.370 N 
HETATM    5  H           1     -21.488  -8.157   1.591  0.00  0.00     0.159 HD
HETATM    6  H           1     -20.359  -8.653   0.346  0.00  0.00     0.159 HD
HETATM    7  O           1     -23.256  -7.510  -0.031  0.00  0.00    -0.274 OA
ENDBRANCH   2   3
ENDBRANCH   1   2
BRANCH   1   8
HETATM    8  C           1     -21.375  -6.904  -3.904  0.00  0.00     0.249 C 
HETATM    9  N           1     -21.466  -5.765  -4.658  0.00  0.00    -0.344 N 
HETATM   10  H           1     -21.536  -4.862  -4.206  0.00  0.00     0.163 HD
HETATM   11  O           1     -21.292  -7.981  -4.443  0.00  0.00    -0.271 OA
BRANCH   9  12
HETATM   12  C           1     -21.462  -5.852  -6.106  0.00  0.00     0.194 C 
BRANCH  12  13
HETATM   13  C           1     -22.278  -4.705  -6.686  0.00  0.00     0.106 C 
BRANCH  13  14
HETATM   14  S           1     -22.076  -4.669  -8.489  0.00  0.00    -0.180 SA
HETATM   15  H           1     -23.383  -4.522  -8.773  0.00  0.00     0.101 HD
ENDBRANCH  13  14
ENDBRANCH  12  13
BRANCH  12  16
HETATM   16  C           1     -20.042  -5.767  -6.611  0.00  0.00     0.197 C 
HETATM   17  O           1     -19.381  -4.721  -6.441  0.00  0.00    -0.646 OA
HETATM   18  O           1     -19.529  -6.744  -7.199  0.00  0.00    -0.646 OA
ENDBRANCH  12  16
ENDBRANCH   9  12
ENDBRANCH   1   8
BRANCH   1  19
HETATM   19  N           1     -22.314  -5.721  -1.965  0.00  0.00    -0.066 N 
HETATM   20  H           1     -22.421  -5.026  -2.738  0.00  0.00     0.275 HD
HETATM   21  H           1     -23.247  -6.134  -1.737  0.00  0.00     0.275 HD
HETATM   22  H           1     -21.926  -5.245  -1.119  0.00  0.00     0.275 HD
ENDBRANCH   1  19
TORSDOF 8
ENDMDL
