MODEL 1
REMARK VINA RESULT:      -6.7      0.000      0.000
REMARK  8 active torsions:
REMARK  status: ('A' for Active; 'I' for Inactive)
REMARK    1  A    between atoms: C_1  and  C_7 
REMARK    2  A    between atoms: C_1  and  C_9 
REMARK    3  A    between atoms: C_6  and  C_9 
REMARK    4  A    between atoms: C_6  and  N_12 
REMARK    5  A    between atoms: C_7  and  C_20 
REMARK       I    between atoms: N_11  and  C_21 
REMARK    6  A    between atoms: N_18  and  C_20 
REMARK    7  A    between atoms: C_19  and  C_22 
REMARK    8  A    between atoms: C_20  and  C_21 
ROOT
HETATM    1  C           1     -34.546  -2.258 -11.504  0.00  0.00     0.275 C 
ENDROOT
BRANCH   1   2
HETATM    2  C           1     -33.418  -3.279 -11.433  0.00  0.00     0.042 C 
BRANCH   2   3
HETATM    3  C           1     -33.783  -4.371 -10.436  0.00  0.00     0.004 C 
BRANCH   3   4
HETATM    4  C           1     -34.001  -5.684 -11.177  0.00  0.00     0.027 C 
BRANCH   4   5
HETATM    5  C           1     -34.667  -6.688 -10.246  0.00  0.00     0.229 C 
BRANCH   5   6
HETATM    6  N           1     -34.736  -8.026 -10.921  0.00  0.00    -0.079 N 
HETATM    7  H           1     -34.534  -8.778 -10.224  0.00  0.00     0.274 HD
HETATM    8  H           1     -34.029  -8.065 -11.690  0.00  0.00     0.274 HD
HETATM    9  H           1     -35.692  -8.167 -11.318  0.00  0.00     0.274 HD
ENDBRANCH   5   6
ENDBRANCH   4   5
ENDBRANCH   3   4
ENDBRANCH   2   3
ENDBRANCH   1   2
BRANCH   1  10
HETATM   10  N           1     -35.726  -2.763 -10.730  0.00  0.00    -0.067 N 
HETATM   11  H           1     -35.971  -3.725 -11.057  0.00  0.00     0.275 HD
HETATM   12  H           1     -35.491  -2.790  -9.712  0.00  0.00     0.275 HD
HETATM   13  H           1     -36.541  -2.126 -10.881  0.00  0.00     0.275 HD
ENDBRANCH   1  10
BRANCH   1  14
HETATM   14  C           1     -34.944  -2.047 -12.945  0.00  0.00     0.251 C 
HETATM   15  N           1     -35.788  -1.022 -13.279  0.00  0.00    -0.336 N 
HETATM   16  C           1     -36.276  -0.671 -14.609  0.00  0.00     0.188 C 
HETATM   17  C           1     -36.396  -0.044 -12.383  0.00  0.00     0.127 C 
HETATM   18  C           1     -37.735  -0.315 -14.377  0.00  0.00     0.038 C 
HETATM   19  C           1     -37.812   0.103 -12.913  0.00  0.00     0.022 C 
HETATM   20  O           1     -34.516  -2.782 -13.803  0.00  0.00    -0.271 OA
BRANCH  16  21
HETATM   21  C           1     -35.517   0.509 -15.166  0.00  0.00     0.196 C 
HETATM   22  O           1     -36.100   1.339 -15.896  0.00  0.00    -0.646 OA
HETATM   23  O           1     -34.305   0.656 -14.896  0.00  0.00    -0.646 OA
ENDBRANCH  16  21
ENDBRANCH   1  14
TORSDOF 8
ENDMDL
MODEL 2
REMARK VINA RESULT:      -6.4     13.251     15.083
REMARK  8 active torsions:
REMARK  status: ('A' for Active; 'I' for Inactive)
REMARK    1  A    between atoms: C_1  and  C_7 
REMARK    2  A    between atoms: C_1  and  C_9 
REMARK    3  A    between atoms: C_6  and  C_9 
REMARK    4  A    between atoms: C_6  and  N_12 
REMARK    5  A    between atoms: C_7  and  C_20 
REMARK       I    between atoms: N_11  and  C_21 
REMARK    6  A    between atoms: N_18  and  C_20 
REMARK    7  A    between atoms: C_19  and  C_22 
REMARK    8  A    between atoms: C_20  and  C_21 
ROOT
HETATM    1  C           1     -20.226  -5.150  -7.396  0.00  0.00     0.275 C 
ENDROOT
BRANCH   1   2
HETATM    2  C           1     -20.566  -5.340  -5.923  0.00  0.00     0.042 C 
BRANCH   2   3
HETATM    3  C           1     -21.123  -6.740  -5.706  0.00  0.00     0.004 C 
BRANCH   3   4
HETATM    4  C           1     -22.191  -6.700  -4.620  0.00  0.00     0.027 C 
BRANCH   4   5
HETATM    5  C           1     -21.523  -6.658  -3.253  0.00  0.00     0.229 C 
BRANCH   5   6
HETATM    6  N           1     -22.390  -5.893  -2.296  0.00  0.00    -0.079 N 
HETATM    7  H           1     -21.814  -5.567  -1.488  0.00  0.00     0.274 HD
HETATM    8  H           1     -23.157  -6.513  -1.949  0.00  0.00     0.274 HD
HETATM    9  H           1     -22.803  -5.067  -2.785  0.00  0.00     0.274 HD
ENDBRANCH   5   6
ENDBRANCH   4   5
ENDBRANCH   3   4
ENDBRANCH   2   3
ENDBRANCH   1   2
BRANCH   1  10
HETATM   10  N           1     -18.937  -4.394  -7.517  0.00  0.00    -0.067 N 
HETATM   11  H           1     -18.193  -5.031  -7.883  0.00  0.00     0.275 HD
HETATM   12  H           1     -19.063  -3.592  -8.175  0.00  0.00     0.275 HD
HETATM   13  H           1     -18.654  -4.033  -6.578  0.00  0.00     0.275 HD
ENDBRANCH   1  10
BRANCH   1  14
HETATM   14  C           1     -21.330  -4.372  -8.071  0.00  0.00     0.251 C 
HETATM   15  N           1     -21.367  -4.280  -9.436  0.00  0.00    -0.336 N 
HETATM   16  C           1     -22.350  -3.576 -10.253  0.00  0.00     0.188 C 
HETATM   17  C           1     -20.430  -4.865 -10.392  0.00  0.00     0.127 C 
HETATM   18  C           1     -21.515  -2.927 -11.345  0.00  0.00     0.038 C 
HETATM   19  C           1     -20.255  -3.779 -11.438  0.00  0.00     0.022 C 
HETATM   20  O           1     -22.181  -3.831  -7.405  0.00  0.00    -0.271 OA
BRANCH  16  21
HETATM   21  C           1     -23.348  -4.542 -10.844  0.00  0.00     0.196 C 
HETATM   22  O           1     -24.059  -5.244 -10.092  0.00  0.00    -0.646 OA
HETATM   23  O           1     -23.464  -4.639 -12.084  0.00  0.00    -0.646 OA
ENDBRANCH  16  21
ENDBRANCH   1  14
TORSDOF 8
ENDMDL
MODEL 3
REMARK VINA RESULT:      -6.4      2.301      2.838
REMARK  8 active torsions:
REMARK  status: ('A' for Active; 'I' for Inactive)
REMARK    1  A    between atoms: C_1  and  C_7 
REMARK    2  A    between atoms: C_1  and  C_9 
REMARK    3  A    between atoms: C_6  and  C_9 
REMARK    4  A    between atoms: C_6  and  N_12 
REMARK    5  A    between atoms: C_7  and  C_20 
REMARK       I    between atoms: N_11  and  C_21 
REMARK    6  A    between atoms: N_18  and  C_20 
REMARK    7  A    between atoms: C_19  and  C_22 
REMARK    8  A    between atoms: C_20  and  C_21 
ROOT
HETATM    1  C           1     -35.565  -0.519 -11.477  0.00  0.00     0.275 C 
ENDROOT
BRANCH   1   2
HETATM    2  C           1     -35.317  -1.952 -11.026  0.00  0.00     0.042 C 
BRANCH   2   3
HETATM    3  C           1     -33.835  -2.143 -10.732  0.00  0.00     0.004 C 
BRANCH   3   4
HETATM    4  C           1     -33.291  -3.286 -11.579  0.00  0.00     0.027 C 
BRANCH   4   5
HETATM    5  C           1     -34.395  -3.818 -12.484  0.00  0.00     0.229 C 
BRANCH   5   6
HETATM    6  N           1     -33.867  -3.971 -13.880  0.00  0.00    -0.079 N 
HETATM    7  H           1     -32.854  -3.715 -13.900  0.00  0.00     0.274 HD
HETATM    8  H           1     -34.398  -3.342 -14.524  0.00  0.00     0.274 HD
HETATM    9  H           1     -33.981  -4.963 -14.188  0.00  0.00     0.274 HD
ENDBRANCH   5   6
ENDBRANCH   4   5
ENDBRANCH   3   4
ENDBRANCH   2   3
ENDBRANCH   1   2
BRANCH   1  10
HETATM   10  N           1     -36.285   0.228 -10.395  0.00  0.00    -0.067 N 
HETATM   11  H           1     -37.216  -0.217 -10.225  0.00  0.00     0.275 HD
HETATM   12  H           1     -35.720   0.201  -9.516  0.00  0.00     0.275 HD
HETATM   13  H           1     -36.423   1.222 -10.689  0.00  0.00     0.275 HD
ENDBRANCH   1  10
BRANCH   1  14
HETATM   14  C           1     -36.409  -0.525 -12.730  0.00  0.00     0.251 C 
HETATM   15  N           1     -35.934   0.050 -13.878  0.00  0.00    -0.336 N 
HETATM   16  C           1     -36.605   0.136 -15.171  0.00  0.00     0.188 C 
HETATM   17  C           1     -34.647   0.709 -14.075  0.00  0.00     0.127 C 
HETATM   18  C           1     -36.275   1.538 -15.656  0.00  0.00     0.038 C 
HETATM   19  C           1     -34.984   1.913 -14.938  0.00  0.00     0.022 C 
HETATM   20  O           1     -37.503  -1.038 -12.718  0.00  0.00    -0.271 OA
BRANCH  16  21
HETATM   21  C           1     -36.069  -0.902 -16.126  0.00  0.00     0.196 C 
HETATM   22  O           1     -36.378  -0.857 -17.336  0.00  0.00    -0.646 OA
HETATM   23  O           1     -35.316  -1.807 -15.706  0.00  0.00    -0.646 OA
ENDBRANCH  16  21
ENDBRANCH   1  14
TORSDOF 8
ENDMDL
MODEL 4
REMARK VINA RESULT:      -6.3      2.108      2.849
REMARK  8 active torsions:
REMARK  status: ('A' for Active; 'I' for Inactive)
REMARK    1  A    between atoms: C_1  and  C_7 
REMARK    2  A    between atoms: C_1  and  C_9 
REMARK    3  A    between atoms: C_6  and  C_9 
REMARK    4  A    between atoms: C_6  and  N_12 
REMARK    5  A    between atoms: C_7  and  C_20 
REMARK       I    between atoms: N_11  and  C_21 
REMARK    6  A    between atoms: N_18  and  C_20 
REMARK    7  A    between atoms: C_19  and  C_22 
REMARK    8  A    between atoms: C_20  and  C_21 
ROOT
HETATM    1  C           1     -33.840  -3.528 -12.179  0.00  0.00     0.275 C 
ENDROOT
BRANCH   1   2
HETATM    2  C           1     -34.686  -4.711 -11.728  0.00  0.00     0.042 C 
BRANCH   2   3
HETATM    3  C           1     -33.817  -5.693 -10.954  0.00  0.00     0.004 C 
BRANCH   3   4
HETATM    4  C           1     -34.675  -6.447  -9.947  0.00  0.00     0.027 C 
BRANCH   4   5
HETATM    5  C           1     -34.756  -7.914 -10.347  0.00  0.00     0.229 C 
BRANCH   5   6
HETATM    6  N           1     -34.262  -8.769  -9.218  0.00  0.00    -0.079 N 
HETATM    7  H           1     -33.352  -9.208  -9.485  0.00  0.00     0.274 HD
HETATM    8  H           1     -34.963  -9.518  -9.015  0.00  0.00     0.274 HD
HETATM    9  H           1     -34.127  -8.178  -8.367  0.00  0.00     0.274 HD
ENDBRANCH   5   6
ENDBRANCH   4   5
ENDBRANCH   3   4
ENDBRANCH   2   3
ENDBRANCH   1   2
BRANCH   1  10
HETATM   10  N           1     -32.438  -3.694 -11.671  0.00  0.00    -0.067 N 
HETATM   11  H           1     -31.776  -3.713 -12.480  0.00  0.00     0.275 HD
HETATM   12  H           1     -32.198  -2.896 -11.042  0.00  0.00     0.275 HD
HETATM   13  H           1     -32.364  -4.591 -11.139  0.00  0.00     0.275 HD
ENDBRANCH   1  10
BRANCH   1  14
HETATM   14  C           1     -34.425  -2.250 -11.626  0.00  0.00     0.251 C 
HETATM   15  N           1     -35.114  -1.401 -12.450  0.00  0.00    -0.336 N 
HETATM   16  C           1     -35.743  -0.133 -12.092  0.00  0.00     0.188 C 
HETATM   17  C           1     -35.379  -1.565 -13.876  0.00  0.00     0.127 C 
HETATM   18  C           1     -35.423   0.773 -13.269  0.00  0.00     0.038 C 
HETATM   19  C           1     -35.188  -0.169 -14.443  0.00  0.00     0.022 C 
HETATM   20  O           1     -34.286  -1.979 -10.457  0.00  0.00    -0.271 OA
BRANCH  16  21
HETATM   21  C           1     -37.235  -0.300 -11.933  0.00  0.00     0.196 C 
HETATM   22  O           1     -37.688  -1.069 -11.058  0.00  0.00    -0.646 OA
HETATM   23  O           1     -38.016   0.332 -12.676  0.00  0.00    -0.646 OA
ENDBRANCH  16  21
ENDBRANCH   1  14
TORSDOF 8
ENDMDL
MODEL 5
REMARK VINA RESULT:      -5.9     12.902     14.609
REMARK  8 active torsions:
REMARK  status: ('A' for Active; 'I' for Inactive)
REMARK    1  A    between atoms: C_1  and  C_7 
REMARK    2  A    between atoms: C_1  and  C_9 
REMARK    3  A    between atoms: C_6  and  C_9 
REMARK    4  A    between atoms: C_6  and  N_12 
REMARK    5  A    between atoms: C_7  and  C_20 
REMARK       I    between atoms: N_11  and  C_21 
REMARK    6  A    between atoms: N_18  and  C_20 
REMARK    7  A    between atoms: C_19  and  C_22 
REMARK    8  A    between atoms: C_20  and  C_21 
ROOT
HETATM    1  C           1     -22.097  -4.726  -6.581  0.00  0.00     0.275 C 
ENDROOT
BRANCH   1   2
HETATM    2  C           1     -21.179  -5.460  -5.612  0.00  0.00     0.042 C 
BRANCH   2   3
HETATM    3  C           1     -22.007  -6.378  -4.723  0.00  0.00     0.004 C 
BRANCH   3   4
HETATM    4  C           1     -21.080  -7.232  -3.869  0.00  0.00     0.027 C 
BRANCH   4   5
HETATM    5  C           1     -21.432  -7.050  -2.399  0.00  0.00     0.229 C 
BRANCH   5   6
HETATM    6  N           1     -22.390  -5.904  -2.251  0.00  0.00    -0.079 N 
HETATM    7  H           1     -23.142  -6.164  -1.575  0.00  0.00     0.274 HD
HETATM    8  H           1     -22.816  -5.686  -3.180  0.00  0.00     0.274 HD
HETATM    9  H           1     -21.877  -5.066  -1.896  0.00  0.00     0.274 HD
ENDBRANCH   5   6
ENDBRANCH   4   5
ENDBRANCH   3   4
ENDBRANCH   2   3
ENDBRANCH   1   2
BRANCH   1  10
HETATM   10  N           1     -23.518  -5.135  -6.329  0.00  0.00    -0.067 N 
HETATM   11  H           1     -23.783  -4.884  -5.350  0.00  0.00     0.275 HD
HETATM   12  H           1     -24.148  -4.638  -6.999  0.00  0.00     0.275 HD
HETATM   13  H           1     -23.613  -6.167  -6.463  0.00  0.00     0.275 HD
ENDBRANCH   1  10
BRANCH   1  14
HETATM   14  C           1     -21.717  -5.080  -7.999  0.00  0.00     0.251 C 
HETATM   15  N           1     -22.370  -4.493  -9.050  0.00  0.00    -0.336 N 
HETATM   16  C           1     -22.138  -4.712 -10.474  0.00  0.00     0.188 C 
HETATM   17  C           1     -23.450  -3.513  -8.989  0.00  0.00     0.127 C 
HETATM   18  C           1     -23.537  -4.742 -11.067  0.00  0.00     0.038 C 
HETATM   19  C           1     -24.398  -3.949 -10.092  0.00  0.00     0.022 C 
HETATM   20  O           1     -20.836  -5.880  -8.206  0.00  0.00    -0.271 OA
BRANCH  16  21
HETATM   21  C           1     -21.328  -3.585 -11.066  0.00  0.00     0.196 C 
HETATM   22  O           1     -21.817  -2.870 -11.967  0.00  0.00    -0.646 OA
HETATM   23  O           1     -20.168  -3.367 -10.656  0.00  0.00    -0.646 OA
ENDBRANCH  16  21
ENDBRANCH   1  14
TORSDOF 8
ENDMDL
MODEL 6
REMARK VINA RESULT:      -5.8     14.020     16.723
REMARK  8 active torsions:
REMARK  status: ('A' for Active; 'I' for Inactive)
REMARK    1  A    between atoms: C_1  and  C_7 
REMARK    2  A    between atoms: C_1  and  C_9 
REMARK    3  A    between atoms: C_6  and  C_9 
REMARK    4  A    between atoms: C_6  and  N_12 
REMARK    5  A    between atoms: C_7  and  C_20 
REMARK       I    between atoms: N_11  and  C_21 
REMARK    6  A    between atoms: N_18  and  C_20 
REMARK    7  A    between atoms: C_19  and  C_22 
REMARK    8  A    between atoms: C_20  and  C_21 
ROOT
HETATM    1  C           1     -21.425  -5.120  -7.266  0.00  0.00     0.275 C 
ENDROOT
BRANCH   1   2
HETATM    2  C           1     -21.113  -5.108  -8.757  0.00  0.00     0.042 C 
BRANCH   2   3
HETATM    3  C           1     -21.903  -3.996  -9.433  0.00  0.00     0.004 C 
BRANCH   3   4
HETATM    4  C           1     -22.869  -4.600 -10.443  0.00  0.00     0.027 C 
BRANCH   4   5
HETATM    5  C           1     -24.269  -4.052 -10.199  0.00  0.00     0.229 C 
BRANCH   5   6
HETATM    6  N           1     -24.355  -3.504  -8.805  0.00  0.00    -0.079 N 
HETATM    7  H           1     -24.479  -2.468  -8.845  0.00  0.00     0.274 HD
HETATM    8  H           1     -23.476  -3.731  -8.287  0.00  0.00     0.274 HD
HETATM    9  H           1     -25.171  -3.933  -8.313  0.00  0.00     0.274 HD
ENDBRANCH   5   6
ENDBRANCH   4   5
ENDBRANCH   3   4
ENDBRANCH   2   3
ENDBRANCH   1   2
BRANCH   1  10
HETATM   10  N           1     -21.064  -3.792  -6.670  0.00  0.00    -0.067 N 
HETATM   11  H           1     -21.897  -3.391  -6.184  0.00  0.00     0.275 HD
HETATM   12  H           1     -20.286  -3.919  -5.982  0.00  0.00     0.275 HD
HETATM   13  H           1     -20.755  -3.142  -7.427  0.00  0.00     0.275 HD
ENDBRANCH   1  10
BRANCH   1  14
HETATM   14  C           1     -20.625  -6.208  -6.592  0.00  0.00     0.251 C 
HETATM   15  N           1     -21.091  -6.791  -5.445  0.00  0.00    -0.336 N 
HETATM   16  C           1     -20.457  -7.848  -4.664  0.00  0.00     0.188 C 
HETATM   17  C           1     -22.332  -6.490  -4.736  0.00  0.00     0.127 C 
HETATM   18  C           1     -20.697  -7.427  -3.224  0.00  0.00     0.038 C 
HETATM   19  C           1     -21.933  -6.538  -3.271  0.00  0.00     0.022 C 
HETATM   20  O           1     -19.572  -6.565  -7.067  0.00  0.00    -0.271 OA
BRANCH  16  21
HETATM   21  C           1     -21.100  -9.184  -4.947  0.00  0.00     0.196 C 
HETATM   22  O           1     -21.100  -9.645  -6.109  0.00  0.00    -0.646 OA
HETATM   23  O           1     -21.633  -9.830  -4.018  0.00  0.00    -0.646 OA
ENDBRANCH  16  21
ENDBRANCH   1  14
TORSDOF 8
ENDMDL
MODEL 7
REMARK VINA RESULT:      -5.7     15.030     17.898
REMARK  8 active torsions:
REMARK  status: ('A' for Active; 'I' for Inactive)
REMARK    1  A    between atoms: C_1  and  C_7 
REMARK    2  A    between atoms: C_1  and  C_9 
REMARK    3  A    between atoms: C_6  and  C_9 
REMARK    4  A    between atoms: C_6  and  N_12 
REMARK    5  A    between atoms: C_7  and  C_20 
REMARK       I    between atoms: N_11  and  C_21 
REMARK    6  A    between atoms: N_18  and  C_20 
REMARK    7  A    between atoms: C_19  and  C_22 
REMARK    8  A    between atoms: C_20  and  C_21 
ROOT
HETATM    1  C           1     -20.409  -6.351  -5.392  0.00  0.00     0.275 C 
ENDROOT
BRANCH   1   2
HETATM    2  C           1     -20.399  -4.832  -5.501  0.00  0.00     0.042 C 
BRANCH   2   3
HETATM    3  C           1     -20.393  -4.427  -6.969  0.00  0.00     0.004 C 
BRANCH   3   4
HETATM    4  C           1     -21.635  -3.602  -7.275  0.00  0.00     0.027 C 
BRANCH   4   5
HETATM    5  C           1     -22.413  -4.254  -8.410  0.00  0.00     0.229 C 
BRANCH   5   6
HETATM    6  N           1     -23.863  -3.884  -8.301  0.00  0.00    -0.079 N 
HETATM    7  H           1     -24.435  -4.547  -8.870  0.00  0.00     0.274 HD
HETATM    8  H           1     -24.001  -2.911  -8.656  0.00  0.00     0.274 HD
HETATM    9  H           1     -24.161  -3.937  -7.301  0.00  0.00     0.274 HD
ENDBRANCH   5   6
ENDBRANCH   4   5
ENDBRANCH   3   4
ENDBRANCH   2   3
ENDBRANCH   1   2
BRANCH   1  10
HETATM   10  N           1     -20.645  -6.947  -6.747  0.00  0.00    -0.067 N 
HETATM   11  H           1     -21.389  -7.678  -6.681  0.00  0.00     0.275 HD
HETATM   12  H           1     -20.949  -6.199  -7.410  0.00  0.00     0.275 HD
HETATM   13  H           1     -19.760  -7.382  -7.096  0.00  0.00     0.275 HD
ENDBRANCH   1  10
BRANCH   1  14
HETATM   14  C           1     -21.511  -6.781  -4.455  0.00  0.00     0.251 C 
HETATM   15  N           1     -21.231  -7.613  -3.404  0.00  0.00    -0.336 N 
HETATM   16  C           1     -22.163  -8.128  -2.406  0.00  0.00     0.188 C 
HETATM   17  C           1     -19.936  -8.179  -3.039  0.00  0.00     0.127 C 
HETATM   18  C           1     -21.731  -9.573  -2.219  0.00  0.00     0.038 C 
HETATM   19  C           1     -20.264  -9.605  -2.632  0.00  0.00     0.022 C 
HETATM   20  O           1     -22.641  -6.390  -4.632  0.00  0.00    -0.271 OA
BRANCH  16  21
HETATM   21  C           1     -22.042  -7.361  -1.112  0.00  0.00     0.196 C 
HETATM   22  O           1     -21.679  -7.947  -0.069  0.00  0.00    -0.646 OA
HETATM   23  O           1     -22.306  -6.139  -1.083  0.00  0.00    -0.646 OA
ENDBRANCH  16  21
ENDBRANCH   1  14
TORSDOF 8
ENDMDL
MODEL 8
REMARK VINA RESULT:      -5.4     14.790     16.596
REMARK  8 active torsions:
REMARK  status: ('A' for Active; 'I' for Inactive)
REMARK    1  A    between atoms: C_1  and  C_7 
REMARK    2  A    between atoms: C_1  and  C_9 
REMARK    3  A    between atoms: C_6  and  C_9 
REMARK    4  A    between atoms: C_6  and  N_12 
REMARK    5  A    between atoms: C_7  and  C_20 
REMARK       I    between atoms: N_11  and  C_21 
REMARK    6  A    between atoms: N_18  and  C_20 
REMARK    7  A    between atoms: C_19  and  C_22 
REMARK    8  A    between atoms: C_20  and  C_21 
ROOT
HETATM    1  C           1     -21.942  -7.089  -4.660  0.00  0.00     0.275 C 
ENDROOT
BRANCH   1   2
HETATM    2  C           1     -21.387  -6.224  -3.537  0.00  0.00     0.042 C 
BRANCH   2   3
HETATM    3  C           1     -21.125  -7.087  -2.311  0.00  0.00     0.004 C 
BRANCH   3   4
HETATM    4  C           1     -22.209  -6.837  -1.271  0.00  0.00     0.027 C 
BRANCH   4   5
HETATM    5  C           1     -22.417  -8.096  -0.440  0.00  0.00     0.229 C 
BRANCH   5   6
HETATM    6  N           1     -23.494  -7.853   0.575  0.00  0.00    -0.079 N 
HETATM    7  H           1     -23.221  -7.054   1.189  0.00  0.00     0.274 HD
HETATM    8  H           1     -23.624  -8.712   1.158  0.00  0.00     0.274 HD
HETATM    9  H           1     -24.389  -7.626   0.085  0.00  0.00     0.274 HD
ENDBRANCH   5   6
ENDBRANCH   4   5
ENDBRANCH   3   4
ENDBRANCH   2   3
ENDBRANCH   1   2
BRANCH   1  10
HETATM   10  N           1     -21.900  -8.530  -4.247  0.00  0.00    -0.067 N 
HETATM   11  H           1     -22.744  -8.753  -3.672  0.00  0.00     0.275 HD
HETATM   12  H           1     -21.888  -9.137  -5.098  0.00  0.00     0.275 HD
HETATM   13  H           1     -21.037  -8.707  -3.683  0.00  0.00     0.275 HD
ENDBRANCH   1  10
BRANCH   1  14
HETATM   14  C           1     -21.107  -6.899  -5.903  0.00  0.00     0.251 C 
HETATM   15  N           1     -21.320  -5.814  -6.711  0.00  0.00    -0.336 N 
HETATM   16  C           1     -20.614  -5.471  -7.941  0.00  0.00     0.188 C 
HETATM   17  C           1     -22.301  -4.748  -6.528  0.00  0.00     0.127 C 
HETATM   18  C           1     -21.715  -4.970  -8.862  0.00  0.00     0.038 C 
HETATM   19  C           1     -22.823  -4.491  -7.931  0.00  0.00     0.022 C 
HETATM   20  O           1     -20.251  -7.703  -6.185  0.00  0.00    -0.271 OA
BRANCH  16  21
HETATM   21  C           1     -19.592  -4.389  -7.691  0.00  0.00     0.196 C 
HETATM   22  O           1     -19.562  -3.375  -8.422  0.00  0.00    -0.646 OA
HETATM   23  O           1     -18.774  -4.507  -6.753  0.00  0.00    -0.646 OA
ENDBRANCH  16  21
ENDBRANCH   1  14
TORSDOF 8
ENDMDL
MODEL 9
REMARK VINA RESULT:      -5.3     16.171     19.155
REMARK  8 active torsions:
REMARK  status: ('A' for Active; 'I' for Inactive)
REMARK    1  A    between atoms: C_1  and  C_7 
REMARK    2  A    between atoms: C_1  and  C_9 
REMARK    3  A    between atoms: C_6  and  C_9 
REMARK    4  A    between atoms: C_6  and  N_12 
REMARK    5  A    between atoms: C_7  and  C_20 
REMARK       I    between atoms: N_11  and  C_21 
REMARK    6  A    between atoms: N_18  and  C_20 
REMARK    7  A    between atoms: C_19  and  C_22 
REMARK    8  A    between atoms: C_20  and  C_21 
ROOT
HETATM    1  C           1     -21.755  -7.113  -3.120  0.00  0.00     0.275 C 
ENDROOT
BRANCH   1   2
HETATM    2  C           1     -21.207  -7.068  -4.541  0.00  0.00     0.042 C 
BRANCH   2   3
HETATM    3  C           1     -22.128  -6.229  -5.415  0.00  0.00     0.004 C 
BRANCH   3   4
HETATM    4  C           1     -21.311  -5.180  -6.157  0.00  0.00     0.027 C 
BRANCH   4   5
HETATM    5  C           1     -22.127  -4.625  -7.316  0.00  0.00     0.229 C 
BRANCH   5   6
HETATM    6  N           1     -23.556  -4.462  -6.890  0.00  0.00    -0.079 N 
HETATM    7  H           1     -24.017  -3.739  -7.486  0.00  0.00     0.274 HD
HETATM    8  H           1     -23.588  -4.161  -5.889  0.00  0.00     0.274 HD
HETATM    9  H           1     -24.057  -5.373  -6.997  0.00  0.00     0.274 HD
ENDBRANCH   5   6
ENDBRANCH   4   5
ENDBRANCH   3   4
ENDBRANCH   2   3
ENDBRANCH   1   2
BRANCH   1  10
HETATM   10  N           1     -21.646  -5.753  -2.500  0.00  0.00    -0.067 N 
HETATM   11  H           1     -21.803  -5.023  -3.231  0.00  0.00     0.275 HD
HETATM   12  H           1     -22.364  -5.653  -1.747  0.00  0.00     0.275 HD
HETATM   13  H           1     -20.692  -5.632  -2.088  0.00  0.00     0.275 HD
ENDBRANCH   1  10
BRANCH   1  14
HETATM   14  C           1     -20.958  -8.103  -2.304  0.00  0.00     0.251 C 
HETATM   15  N           1     -21.429  -8.525  -1.090  0.00  0.00    -0.336 N 
HETATM   16  C           1     -20.799  -9.469  -0.173  0.00  0.00     0.188 C 
HETATM   17  C           1     -22.670  -8.128  -0.431  0.00  0.00     0.127 C 
HETATM   18  C           1     -21.041  -8.858   1.198  0.00  0.00     0.038 C 
HETATM   19  C           1     -22.275  -7.979   1.028  0.00  0.00     0.022 C 
HETATM   20  O           1     -19.906  -8.522  -2.724  0.00  0.00    -0.271 OA
BRANCH  16  21
HETATM   21  C           1     -21.445 -10.830  -0.274  0.00  0.00     0.196 C 
HETATM   22  O           1     -21.734 -11.302  -1.395  0.00  0.00    -0.646 OA
HETATM   23  O           1     -21.691 -11.483   0.762  0.00  0.00    -0.646 OA
ENDBRANCH  16  21
ENDBRANCH   1  14
TORSDOF 8
ENDMDL
