MODEL 1
REMARK VINA RESULT:      -7.6      0.000      0.000
REMARK  12 active torsions:
REMARK  status: ('A' for Active; 'I' for Inactive)
REMARK    1  A    between atoms: C_2  and  C_3 
REMARK    2  A    between atoms: C_2  and  S_11 
REMARK    3  A    between atoms: C_3  and  C_18 
REMARK    4  A    between atoms: C_5  and  C_26 
REMARK    5  A    between atoms: O_6  and  P_9 
REMARK    6  A    between atoms: P_9  and  O_22 
REMARK    7  A    between atoms: C_12  and  C_25 
REMARK    8  A    between atoms: C_18  and  C_27 
REMARK    9  A    between atoms: C_18  and  N_30 
REMARK   10  A    between atoms: O_22  and  C_29 
REMARK   11  A    between atoms: N_23  and  C_25 
REMARK       I    between atoms: N_23  and  C_27 
REMARK   12  A    between atoms: C_25  and  C_26 
ROOT
HETATM    1  C           1     -32.492  -4.336 -16.241  0.00  0.00     0.189 C 
ENDROOT
BRANCH   1   2
HETATM    2  C           1     -32.589  -3.288 -17.323  0.00  0.00     0.197 C 
HETATM    3  O           1     -33.679  -2.715 -17.543  0.00  0.00    -0.646 OA
HETATM    4  O           1     -31.581  -2.992 -17.999  0.00  0.00    -0.646 OA
ENDBRANCH   1   2
BRANCH   1   5
HETATM    5  N           1     -33.805  -4.560 -15.667  0.00  0.00    -0.344 N 
HETATM    6  H           1     -34.486  -5.120 -16.164  0.00  0.00     0.163 HD
HETATM    7  C           1     -34.122  -4.014 -14.453  0.00  0.00     0.249 C 
HETATM    8  O           1     -34.619  -2.915 -14.397  0.00  0.00    -0.271 OA
BRANCH   7   9
HETATM    9  C           1     -33.852  -4.786 -13.185  0.00  0.00     0.275 C 
BRANCH   9  10
HETATM   10  C           1     -34.783  -4.296 -12.083  0.00  0.00     0.053 C 
BRANCH  10  11
HETATM   11  C           1     -33.973  -4.003 -10.826  0.00  0.00     0.076 C 
BRANCH  11  12
HETATM   12  S           1     -33.829  -2.207 -10.604  0.00  0.00    -0.173 SA
HETATM   13  C           1     -35.536  -1.810 -11.074  0.00  0.00     0.089 C 
ENDBRANCH  11  12
ENDBRANCH  10  11
ENDBRANCH   9  10
BRANCH   9  14
HETATM   14  N           1     -32.427  -4.574 -12.766  0.00  0.00    -0.066 N 
HETATM   15  H           1     -32.374  -3.761 -12.112  0.00  0.00     0.275 HD
HETATM   16  H           1     -32.075  -5.432 -12.284  0.00  0.00     0.275 HD
HETATM   17  H           1     -31.840  -4.381 -13.609  0.00  0.00     0.275 HD
ENDBRANCH   9  14
ENDBRANCH   7   9
ENDBRANCH   1   5
BRANCH   1  18
HETATM   18  C           1     -31.971  -5.635 -16.839  0.00  0.00     0.074 C 
BRANCH  18  19
HETATM   19  C           1     -30.474  -5.624 -16.832  0.00  0.00    -0.056 A 
HETATM   20  C           1     -29.769  -6.031 -17.966  0.00  0.00     0.010 A 
HETATM   21  C           1     -28.374  -6.021 -17.959  0.00  0.00     0.038 A 
HETATM   22  C           1     -27.684  -5.605 -16.821  0.00  0.00     0.081 A 
HETATM   23  C           1     -28.389  -5.199 -15.688  0.00  0.00     0.038 A 
HETATM   24  C           1     -29.784  -5.209 -15.694  0.00  0.00     0.010 A 
BRANCH  22  25
HETATM   25  O           1     -26.330  -5.596 -16.815  0.00  0.00    -0.247 OA
BRANCH  25  26
HETATM   26  P           1     -25.567  -6.700 -15.917  0.00  0.00     0.411 P 
HETATM   27  O           1     -24.584  -7.424 -16.755  0.00  0.00    -0.624 OA
HETATM   28  O           1     -26.554  -7.660 -15.375  0.00  0.00    -0.624 OA
BRANCH  26  29
HETATM   29  O           1     -24.800  -5.968 -14.700  0.00  0.00    -0.300 OA
HETATM   30  H           1     -24.682  -5.079 -14.986  0.00  0.00     0.223 HD
ENDBRANCH  26  29
ENDBRANCH  25  26
ENDBRANCH  22  25
ENDBRANCH  18  19
ENDBRANCH   1  18
TORSDOF 12
ENDMDL
MODEL 2
REMARK VINA RESULT:      -7.1      1.442      2.050
REMARK  12 active torsions:
REMARK  status: ('A' for Active; 'I' for Inactive)
REMARK    1  A    between atoms: C_2  and  C_3 
REMARK    2  A    between atoms: C_2  and  S_11 
REMARK    3  A    between atoms: C_3  and  C_18 
REMARK    4  A    between atoms: C_5  and  C_26 
REMARK    5  A    between atoms: O_6  and  P_9 
REMARK    6  A    between atoms: P_9  and  O_22 
REMARK    7  A    between atoms: C_12  and  C_25 
REMARK    8  A    between atoms: C_18  and  C_27 
REMARK    9  A    between atoms: C_18  and  N_30 
REMARK   10  A    between atoms: O_22  and  C_29 
REMARK   11  A    between atoms: N_23  and  C_25 
REMARK       I    between atoms: N_23  and  C_27 
REMARK   12  A    between atoms: C_25  and  C_26 
ROOT
HETATM    1  C           1     -32.386  -4.498 -16.451  0.00  0.00     0.189 C 
ENDROOT
BRANCH   1   2
HETATM    2  C           1     -32.458  -3.355 -17.434  0.00  0.00     0.197 C 
HETATM    3  O           1     -31.428  -2.985 -18.041  0.00  0.00    -0.646 OA
HETATM    4  O           1     -33.546  -2.777 -17.643  0.00  0.00    -0.646 OA
ENDBRANCH   1   2
BRANCH   1   5
HETATM    5  N           1     -33.684  -4.686 -15.834  0.00  0.00    -0.344 N 
HETATM    6  H           1     -34.315  -5.394 -16.188  0.00  0.00     0.163 HD
HETATM    7  C           1     -34.056  -3.907 -14.771  0.00  0.00     0.249 C 
HETATM    8  O           1     -34.635  -2.864 -14.961  0.00  0.00    -0.271 OA
BRANCH   7   9
HETATM    9  C           1     -33.743  -4.351 -13.363  0.00  0.00     0.275 C 
BRANCH   9  10
HETATM   10  C           1     -34.882  -5.213 -12.836  0.00  0.00     0.053 C 
BRANCH  10  11
HETATM   11  C           1     -34.921  -5.131 -11.316  0.00  0.00     0.076 C 
BRANCH  11  12
HETATM   12  S           1     -33.716  -6.293 -10.615  0.00  0.00    -0.173 SA
HETATM   13  C           1     -34.905  -7.613 -10.245  0.00  0.00     0.089 C 
ENDBRANCH  11  12
ENDBRANCH  10  11
ENDBRANCH   9  10
BRANCH   9  14
HETATM   14  N           1     -33.580  -3.146 -12.485  0.00  0.00    -0.066 N 
HETATM   15  H           1     -34.373  -3.101 -11.806  0.00  0.00     0.275 HD
HETATM   16  H           1     -32.678  -3.216 -11.962  0.00  0.00     0.275 HD
HETATM   17  H           1     -33.576  -2.283 -13.074  0.00  0.00     0.275 HD
ENDBRANCH   9  14
ENDBRANCH   7   9
ENDBRANCH   1   5
BRANCH   1  18
HETATM   18  C           1     -31.981  -5.771 -17.180  0.00  0.00     0.074 C 
BRANCH  18  19
HETATM   19  C           1     -30.626  -6.205 -16.714  0.00  0.00    -0.056 A 
HETATM   20  C           1     -30.071  -7.391 -17.195  0.00  0.00     0.010 A 
HETATM   21  C           1     -28.809  -7.796 -16.761  0.00  0.00     0.038 A 
HETATM   22  C           1     -28.102  -7.016 -15.846  0.00  0.00     0.081 A 
HETATM   23  C           1     -28.657  -5.830 -15.366  0.00  0.00     0.038 A 
HETATM   24  C           1     -29.919  -5.425 -15.800  0.00  0.00     0.010 A 
BRANCH  22  25
HETATM   25  O           1     -26.876  -7.409 -15.425  0.00  0.00    -0.247 OA
BRANCH  25  26
HETATM   26  P           1     -25.585  -6.845 -16.216  0.00  0.00     0.411 P 
HETATM   27  O           1     -24.945  -5.777 -15.417  0.00  0.00    -0.624 OA
HETATM   28  O           1     -26.010  -6.296 -17.522  0.00  0.00    -0.624 OA
BRANCH  26  29
HETATM   29  O           1     -24.532  -8.045 -16.451  0.00  0.00    -0.300 OA
HETATM   30  H           1     -24.325  -8.012 -17.369  0.00  0.00     0.223 HD
ENDBRANCH  26  29
ENDBRANCH  25  26
ENDBRANCH  22  25
ENDBRANCH  18  19
ENDBRANCH   1  18
TORSDOF 12
ENDMDL
MODEL 3
REMARK VINA RESULT:      -7.1     12.078     14.465
REMARK  12 active torsions:
REMARK  status: ('A' for Active; 'I' for Inactive)
REMARK    1  A    between atoms: C_2  and  C_3 
REMARK    2  A    between atoms: C_2  and  S_11 
REMARK    3  A    between atoms: C_3  and  C_18 
REMARK    4  A    between atoms: C_5  and  C_26 
REMARK    5  A    between atoms: O_6  and  P_9 
REMARK    6  A    between atoms: P_9  and  O_22 
REMARK    7  A    between atoms: C_12  and  C_25 
REMARK    8  A    between atoms: C_18  and  C_27 
REMARK    9  A    between atoms: C_18  and  N_30 
REMARK   10  A    between atoms: O_22  and  C_29 
REMARK   11  A    between atoms: N_23  and  C_25 
REMARK       I    between atoms: N_23  and  C_27 
REMARK   12  A    between atoms: C_25  and  C_26 
ROOT
HETATM    1  C           1     -20.598  -7.538  -5.650  0.00  0.00     0.189 C 
ENDROOT
BRANCH   1   2
HETATM    2  C           1     -19.343  -8.337  -5.397  0.00  0.00     0.197 C 
HETATM    3  O           1     -19.077  -8.735  -4.241  0.00  0.00    -0.646 OA
HETATM    4  O           1     -18.569  -8.601  -6.342  0.00  0.00    -0.646 OA
ENDBRANCH   1   2
BRANCH   1   5
HETATM    5  N           1     -21.582  -7.848  -4.630  0.00  0.00    -0.344 N 
HETATM    6  H           1     -21.908  -8.799  -4.514  0.00  0.00     0.163 HD
HETATM    7  C           1     -22.067  -6.855  -3.823  0.00  0.00     0.249 C 
HETATM    8  O           1     -23.051  -6.236  -4.154  0.00  0.00    -0.271 OA
BRANCH   7   9
HETATM    9  C           1     -21.375  -6.532  -2.522  0.00  0.00     0.275 C 
BRANCH   9  10
HETATM   10  C           1     -21.205  -7.807  -1.707  0.00  0.00     0.053 C 
BRANCH  10  11
HETATM   11  C           1     -22.202  -7.811  -0.555  0.00  0.00     0.076 C 
BRANCH  11  12
HETATM   12  S           1     -22.810  -9.499  -0.285  0.00  0.00    -0.173 SA
HETATM   13  C           1     -21.231 -10.191   0.281  0.00  0.00     0.089 C 
ENDBRANCH  11  12
ENDBRANCH  10  11
ENDBRANCH   9  10
BRANCH   9  14
HETATM   14  N           1     -22.201  -5.550  -1.747  0.00  0.00    -0.066 N 
HETATM   15  H           1     -21.933  -4.577  -2.021  0.00  0.00     0.275 HD
HETATM   16  H           1     -23.213  -5.704  -1.957  0.00  0.00     0.275 HD
HETATM   17  H           1     -22.033  -5.682  -0.724  0.00  0.00     0.275 HD
ENDBRANCH   9  14
ENDBRANCH   7   9
ENDBRANCH   1   5
BRANCH   1  18
HETATM   18  C           1     -20.272  -6.052  -5.604  0.00  0.00     0.074 C 
BRANCH  18  19
HETATM   19  C           1     -20.837  -5.379  -6.816  0.00  0.00    -0.056 A 
HETATM   20  C           1     -20.156  -5.448  -8.032  0.00  0.00     0.010 A 
HETATM   21  C           1     -20.682  -4.820  -9.162  0.00  0.00     0.038 A 
HETATM   22  C           1     -21.887  -4.123  -9.076  0.00  0.00     0.081 A 
HETATM   23  C           1     -22.567  -4.054  -7.859  0.00  0.00     0.038 A 
HETATM   24  C           1     -22.041  -4.681  -6.730  0.00  0.00     0.010 A 
BRANCH  22  25
HETATM   25  O           1     -22.398  -3.514 -10.172  0.00  0.00    -0.247 OA
BRANCH  25  26
HETATM   26  P           1     -23.632  -4.228 -10.931  0.00  0.00     0.411 P 
HETATM   27  O           1     -24.785  -3.302 -10.976  0.00  0.00    -0.624 OA
HETATM   28  O           1     -24.015  -5.456 -10.199  0.00  0.00    -0.624 OA
BRANCH  26  29
HETATM   29  O           1     -23.190  -4.610 -12.435  0.00  0.00    -0.300 OA
HETATM   30  H           1     -23.701  -4.047 -12.990  0.00  0.00     0.223 HD
ENDBRANCH  26  29
ENDBRANCH  25  26
ENDBRANCH  22  25
ENDBRANCH  18  19
ENDBRANCH   1  18
TORSDOF 12
ENDMDL
MODEL 4
REMARK VINA RESULT:      -7.0     12.291     14.631
REMARK  12 active torsions:
REMARK  status: ('A' for Active; 'I' for Inactive)
REMARK    1  A    between atoms: C_2  and  C_3 
REMARK    2  A    between atoms: C_2  and  S_11 
REMARK    3  A    between atoms: C_3  and  C_18 
REMARK    4  A    between atoms: C_5  and  C_26 
REMARK    5  A    between atoms: O_6  and  P_9 
REMARK    6  A    between atoms: P_9  and  O_22 
REMARK    7  A    between atoms: C_12  and  C_25 
REMARK    8  A    between atoms: C_18  and  C_27 
REMARK    9  A    between atoms: C_18  and  N_30 
REMARK   10  A    between atoms: O_22  and  C_29 
REMARK   11  A    between atoms: N_23  and  C_25 
REMARK       I    between atoms: N_23  and  C_27 
REMARK   12  A    between atoms: C_25  and  C_26 
ROOT
HETATM    1  C           1     -21.397  -7.414  -5.262  0.00  0.00     0.189 C 
ENDROOT
BRANCH   1   2
HETATM    2  C           1     -20.567  -8.602  -4.844  0.00  0.00     0.197 C 
HETATM    3  O           1     -19.347  -8.460  -4.606  0.00  0.00    -0.646 OA
HETATM    4  O           1     -21.097  -9.729  -4.736  0.00  0.00    -0.646 OA
ENDBRANCH   1   2
BRANCH   1   5
HETATM    5  N           1     -22.298  -7.051  -4.184  0.00  0.00    -0.344 N 
HETATM    6  H           1     -23.298  -7.053  -4.338  0.00  0.00     0.163 HD
HETATM    7  C           1     -21.794  -6.707  -2.959  0.00  0.00     0.249 C 
HETATM    8  O           1     -21.528  -5.553  -2.718  0.00  0.00    -0.271 OA
BRANCH   7   9
HETATM    9  C           1     -21.571  -7.768  -1.909  0.00  0.00     0.275 C 
BRANCH   9  10
HETATM   10  C           1     -22.278  -7.366  -0.621  0.00  0.00     0.053 C 
BRANCH  10  11
HETATM   11  C           1     -22.216  -8.517   0.373  0.00  0.00     0.076 C 
BRANCH  11  12
HETATM   12  S           1     -23.016  -9.981  -0.343  0.00  0.00    -0.173 SA
HETATM   13  C           1     -21.589 -11.090  -0.173  0.00  0.00     0.089 C 
ENDBRANCH  11  12
ENDBRANCH  10  11
ENDBRANCH   9  10
BRANCH   9  14
HETATM   14  N           1     -20.102  -7.911  -1.648  0.00  0.00    -0.066 N 
HETATM   15  H           1     -19.746  -7.049  -1.177  0.00  0.00     0.275 HD
HETATM   16  H           1     -19.937  -8.738  -1.032  0.00  0.00     0.275 HD
HETATM   17  H           1     -19.598  -8.046  -2.554  0.00  0.00     0.275 HD
ENDBRANCH   9  14
ENDBRANCH   7   9
ENDBRANCH   1   5
BRANCH   1  18
HETATM   18  C           1     -20.482  -6.239  -5.575  0.00  0.00     0.074 C 
BRANCH  18  19
HETATM   19  C           1     -21.000  -5.507  -6.774  0.00  0.00    -0.056 A 
HETATM   20  C           1     -22.238  -4.867  -6.718  0.00  0.00     0.010 A 
HETATM   21  C           1     -22.721  -4.185  -7.836  0.00  0.00     0.038 A 
HETATM   22  C           1     -21.967  -4.144  -9.009  0.00  0.00     0.081 A 
HETATM   23  C           1     -20.729  -4.785  -9.063  0.00  0.00     0.038 A 
HETATM   24  C           1     -20.246  -5.466  -7.947  0.00  0.00     0.010 A 
BRANCH  22  25
HETATM   25  O           1     -22.436  -3.482 -10.093  0.00  0.00    -0.247 OA
BRANCH  25  26
HETATM   26  P           1     -23.613  -4.176 -10.955  0.00  0.00     0.411 P 
HETATM   27  O           1     -24.777  -3.266 -11.022  0.00  0.00    -0.624 OA
HETATM   28  O           1     -24.015  -5.444 -10.307  0.00  0.00    -0.624 OA
BRANCH  26  29
HETATM   29  O           1     -23.079  -4.478 -12.448  0.00  0.00    -0.300 OA
HETATM   30  H           1     -22.764  -3.650 -12.766  0.00  0.00     0.223 HD
ENDBRANCH  26  29
ENDBRANCH  25  26
ENDBRANCH  22  25
ENDBRANCH  18  19
ENDBRANCH   1  18
TORSDOF 12
ENDMDL
MODEL 5
REMARK VINA RESULT:      -6.5     12.680     15.202
REMARK  12 active torsions:
REMARK  status: ('A' for Active; 'I' for Inactive)
REMARK    1  A    between atoms: C_2  and  C_3 
REMARK    2  A    between atoms: C_2  and  S_11 
REMARK    3  A    between atoms: C_3  and  C_18 
REMARK    4  A    between atoms: C_5  and  C_26 
REMARK    5  A    between atoms: O_6  and  P_9 
REMARK    6  A    between atoms: P_9  and  O_22 
REMARK    7  A    between atoms: C_12  and  C_25 
REMARK    8  A    between atoms: C_18  and  C_27 
REMARK    9  A    between atoms: C_18  and  N_30 
REMARK   10  A    between atoms: O_22  and  C_29 
REMARK   11  A    between atoms: N_23  and  C_25 
REMARK       I    between atoms: N_23  and  C_27 
REMARK   12  A    between atoms: C_25  and  C_26 
ROOT
HETATM    1  C           1     -20.668  -5.145  -6.145  0.00  0.00     0.189 C 
ENDROOT
BRANCH   1   2
HETATM    2  C           1     -19.651  -5.271  -7.253  0.00  0.00     0.197 C 
HETATM    3  O           1     -18.874  -4.322  -7.500  0.00  0.00    -0.646 OA
HETATM    4  O           1     -19.585  -6.322  -7.925  0.00  0.00    -0.646 OA
ENDBRANCH   1   2
BRANCH   1   5
HETATM    5  N           1     -21.642  -4.131  -6.497  0.00  0.00    -0.344 N 
HETATM    6  H           1     -21.440  -3.154  -6.328  0.00  0.00     0.163 HD
HETATM    7  C           1     -22.836  -4.496  -7.060  0.00  0.00     0.249 C 
HETATM    8  O           1     -23.787  -4.734  -6.355  0.00  0.00    -0.271 OA
BRANCH   7   9
HETATM    9  C           1     -22.963  -4.600  -8.560  0.00  0.00     0.275 C 
BRANCH   9  10
HETATM   10  C           1     -22.011  -3.612  -9.221  0.00  0.00     0.053 C 
BRANCH  10  11
HETATM   11  C           1     -22.519  -3.273 -10.616  0.00  0.00     0.076 C 
BRANCH  11  12
HETATM   12  S           1     -21.627  -4.268 -11.845  0.00  0.00    -0.173 SA
HETATM   13  C           1     -20.087  -4.422 -10.896  0.00  0.00     0.089 C 
ENDBRANCH  11  12
ENDBRANCH  10  11
ENDBRANCH   9  10
BRANCH   9  14
HETATM   14  N           1     -24.371  -4.284  -8.965  0.00  0.00    -0.066 N 
HETATM   15  H           1     -24.980  -4.259  -8.116  0.00  0.00     0.275 HD
HETATM   16  H           1     -24.396  -3.354  -9.439  0.00  0.00     0.275 HD
HETATM   17  H           1     -24.719  -5.019  -9.622  0.00  0.00     0.275 HD
ENDBRANCH   9  14
ENDBRANCH   7   9
ENDBRANCH   1   5
BRANCH   1  18
HETATM   18  C           1     -21.372  -6.480  -5.949  0.00  0.00     0.074 C 
BRANCH  18  19
HETATM   19  C           1     -21.203  -6.932  -4.532  0.00  0.00    -0.056 A 
HETATM   20  C           1     -21.866  -6.262  -3.503  0.00  0.00     0.010 A 
HETATM   21  C           1     -21.707  -6.683  -2.182  0.00  0.00     0.038 A 
HETATM   22  C           1     -20.886  -7.772  -1.890  0.00  0.00     0.081 A 
HETATM   23  C           1     -20.224  -8.441  -2.919  0.00  0.00     0.038 A 
HETATM   24  C           1     -20.382  -8.021  -4.239  0.00  0.00     0.010 A 
BRANCH  22  25
HETATM   25  O           1     -20.733  -8.180  -0.607  0.00  0.00    -0.247 OA
BRANCH  25  26
HETATM   26  P           1     -21.907  -9.074   0.049  0.00  0.00     0.411 P 
HETATM   27  O           1     -21.316 -10.047   0.995  0.00  0.00    -0.624 OA
HETATM   28  O           1     -22.628  -9.801  -1.019  0.00  0.00    -0.624 OA
BRANCH  26  29
HETATM   29  O           1     -22.937  -8.114   0.838  0.00  0.00    -0.300 OA
HETATM   30  H           1     -23.722  -8.624   0.934  0.00  0.00     0.223 HD
ENDBRANCH  26  29
ENDBRANCH  25  26
ENDBRANCH  22  25
ENDBRANCH  18  19
ENDBRANCH   1  18
TORSDOF 12
ENDMDL
MODEL 6
REMARK VINA RESULT:      -6.5     12.206     14.596
REMARK  12 active torsions:
REMARK  status: ('A' for Active; 'I' for Inactive)
REMARK    1  A    between atoms: C_2  and  C_3 
REMARK    2  A    between atoms: C_2  and  S_11 
REMARK    3  A    between atoms: C_3  and  C_18 
REMARK    4  A    between atoms: C_5  and  C_26 
REMARK    5  A    between atoms: O_6  and  P_9 
REMARK    6  A    between atoms: P_9  and  O_22 
REMARK    7  A    between atoms: C_12  and  C_25 
REMARK    8  A    between atoms: C_18  and  C_27 
REMARK    9  A    between atoms: C_18  and  N_30 
REMARK   10  A    between atoms: O_22  and  C_29 
REMARK   11  A    between atoms: N_23  and  C_25 
REMARK       I    between atoms: N_23  and  C_27 
REMARK   12  A    between atoms: C_25  and  C_26 
ROOT
HETATM    1  C           1     -21.287  -6.784  -4.856  0.00  0.00     0.189 C 
ENDROOT
BRANCH   1   2
HETATM    2  C           1     -20.657  -7.897  -5.656  0.00  0.00     0.197 C 
HETATM    3  O           1     -19.426  -7.893  -5.873  0.00  0.00    -0.646 OA
HETATM    4  O           1     -21.366  -8.823  -6.105  0.00  0.00    -0.646 OA
ENDBRANCH   1   2
BRANCH   1   5
HETATM    5  N           1     -21.151  -7.069  -3.441  0.00  0.00    -0.344 N 
HETATM    6  H           1     -21.302  -6.336  -2.760  0.00  0.00     0.163 HD
HETATM    7  C           1     -20.818  -8.330  -3.027  0.00  0.00     0.249 C 
HETATM    8  O           1     -19.656  -8.634  -2.891  0.00  0.00    -0.271 OA
BRANCH   7   9
HETATM    9  C           1     -21.900  -9.342  -2.740  0.00  0.00     0.275 C 
BRANCH   9  10
HETATM   10  C           1     -21.707  -9.911  -1.341  0.00  0.00     0.053 C 
BRANCH  10  11
HETATM   11  C           1     -22.974  -9.693  -0.525  0.00  0.00     0.076 C 
BRANCH  11  12
HETATM   12  S           1     -22.844  -8.131   0.391  0.00  0.00    -0.173 SA
HETATM   13  C           1     -21.260  -8.503   1.195  0.00  0.00     0.089 C 
ENDBRANCH  11  12
ENDBRANCH  10  11
ENDBRANCH   9  10
BRANCH   9  14
HETATM   14  N           1     -21.825 -10.452  -3.746  0.00  0.00    -0.066 N 
HETATM   15  H           1     -22.789 -10.697  -4.066  0.00  0.00     0.275 HD
HETATM   16  H           1     -21.253 -10.142  -4.564  0.00  0.00     0.275 HD
HETATM   17  H           1     -21.380 -11.290  -3.308  0.00  0.00     0.275 HD
ENDBRANCH   9  14
ENDBRANCH   7   9
ENDBRANCH   1   5
BRANCH   1  18
HETATM   18  C           1     -20.591  -5.469  -5.178  0.00  0.00     0.074 C 
BRANCH  18  19
HETATM   19  C           1     -21.080  -4.953  -6.495  0.00  0.00    -0.056 A 
HETATM   20  C           1     -20.189  -4.796  -7.557  0.00  0.00     0.010 A 
HETATM   21  C           1     -20.645  -4.315  -8.785  0.00  0.00     0.038 A 
HETATM   22  C           1     -21.992  -3.989  -8.950  0.00  0.00     0.081 A 
HETATM   23  C           1     -22.882  -4.147  -7.888  0.00  0.00     0.038 A 
HETATM   24  C           1     -22.427  -4.628  -6.661  0.00  0.00     0.010 A 
BRANCH  22  25
HETATM   25  O           1     -22.434  -3.522 -10.142  0.00  0.00    -0.247 OA
BRANCH  25  26
HETATM   26  P           1     -23.687  -4.272 -10.832  0.00  0.00     0.411 P 
HETATM   27  O           1     -23.939  -5.554 -10.137  0.00  0.00    -0.624 OA
HETATM   28  O           1     -23.381  -4.534 -12.256  0.00  0.00    -0.624 OA
BRANCH  26  29
HETATM   29  O           1     -24.999  -3.336 -10.726  0.00  0.00    -0.300 OA
HETATM   30  H           1     -25.517  -3.557 -11.480  0.00  0.00     0.223 HD
ENDBRANCH  26  29
ENDBRANCH  25  26
ENDBRANCH  22  25
ENDBRANCH  18  19
ENDBRANCH   1  18
TORSDOF 12
ENDMDL
MODEL 7
REMARK VINA RESULT:      -6.1     13.839     16.171
REMARK  12 active torsions:
REMARK  status: ('A' for Active; 'I' for Inactive)
REMARK    1  A    between atoms: C_2  and  C_3 
REMARK    2  A    between atoms: C_2  and  S_11 
REMARK    3  A    between atoms: C_3  and  C_18 
REMARK    4  A    between atoms: C_5  and  C_26 
REMARK    5  A    between atoms: O_6  and  P_9 
REMARK    6  A    between atoms: P_9  and  O_22 
REMARK    7  A    between atoms: C_12  and  C_25 
REMARK    8  A    between atoms: C_18  and  C_27 
REMARK    9  A    between atoms: C_18  and  N_30 
REMARK   10  A    between atoms: O_22  and  C_29 
REMARK   11  A    between atoms: N_23  and  C_25 
REMARK       I    between atoms: N_23  and  C_27 
REMARK   12  A    between atoms: C_25  and  C_26 
ROOT
HETATM    1  C           1     -21.341  -7.766  -2.364  0.00  0.00     0.189 C 
ENDROOT
BRANCH   1   2
HETATM    2  C           1     -22.046  -7.714  -1.031  0.00  0.00     0.197 C 
HETATM    3  O           1     -22.760  -6.729  -0.739  0.00  0.00    -0.646 OA
HETATM    4  O           1     -21.918  -8.654  -0.218  0.00  0.00    -0.646 OA
ENDBRANCH   1   2
BRANCH   1   5
HETATM    5  N           1     -21.327  -6.442  -2.955  0.00  0.00    -0.344 N 
HETATM    6  H           1     -21.093  -5.637  -2.388  0.00  0.00     0.163 HD
HETATM    7  C           1     -21.631  -6.282  -4.280  0.00  0.00     0.249 C 
HETATM    8  O           1     -22.775  -6.090  -4.617  0.00  0.00    -0.271 OA
BRANCH   7   9
HETATM    9  C           1     -20.538  -6.344  -5.318  0.00  0.00     0.275 C 
BRANCH   9  10
HETATM   10  C           1     -20.313  -4.957  -5.904  0.00  0.00     0.053 C 
BRANCH  10  11
HETATM   11  C           1     -19.443  -5.065  -7.149  0.00  0.00     0.076 C 
BRANCH  11  12
HETATM   12  S           1     -20.308  -4.320  -8.560  0.00  0.00    -0.173 SA
HETATM   13  C           1     -21.811  -3.861  -7.652  0.00  0.00     0.089 C 
ENDBRANCH  11  12
ENDBRANCH  10  11
ENDBRANCH   9  10
BRANCH   9  14
HETATM   14  N           1     -20.941  -7.288  -6.411  0.00  0.00    -0.066 N 
HETATM   15  H           1     -20.488  -6.998  -7.307  0.00  0.00     0.275 HD
HETATM   16  H           1     -20.636  -8.257  -6.164  0.00  0.00     0.275 HD
HETATM   17  H           1     -21.980  -7.269  -6.524  0.00  0.00     0.275 HD
ENDBRANCH   9  14
ENDBRANCH   7   9
ENDBRANCH   1   5
BRANCH   1  18
HETATM   18  C           1     -19.910  -8.246  -2.163  0.00  0.00     0.074 C 
BRANCH  18  19
HETATM   19  C           1     -19.617  -9.359  -3.121  0.00  0.00    -0.056 A 
HETATM   20  C           1     -18.747  -9.145  -4.191  0.00  0.00     0.010 A 
HETATM   21  C           1     -18.474 -10.182  -5.084  0.00  0.00     0.038 A 
HETATM   22  C           1     -19.070 -11.430  -4.908  0.00  0.00     0.081 A 
HETATM   23  C           1     -19.939 -11.643  -3.838  0.00  0.00     0.038 A 
HETATM   24  C           1     -20.213 -10.607  -2.945  0.00  0.00     0.010 A 
BRANCH  22  25
HETATM   25  O           1     -18.804 -12.436  -5.775  0.00  0.00    -0.247 OA
BRANCH  25  26
HETATM   26  P           1     -19.637 -12.486  -7.157  0.00  0.00     0.411 P 
HETATM   27  O           1     -19.999 -13.888  -7.465  0.00  0.00    -0.624 OA
HETATM   28  O           1     -18.807 -11.939  -8.253  0.00  0.00    -0.624 OA
BRANCH  26  29
HETATM   29  O           1     -20.981 -11.605  -7.007  0.00  0.00    -0.300 OA
HETATM   30  H           1     -21.502 -12.060  -6.368  0.00  0.00     0.223 HD
ENDBRANCH  26  29
ENDBRANCH  25  26
ENDBRANCH  22  25
ENDBRANCH  18  19
ENDBRANCH   1  18
TORSDOF 12
ENDMDL
MODEL 8
REMARK VINA RESULT:      -6.1     12.322     14.696
REMARK  12 active torsions:
REMARK  status: ('A' for Active; 'I' for Inactive)
REMARK    1  A    between atoms: C_2  and  C_3 
REMARK    2  A    between atoms: C_2  and  S_11 
REMARK    3  A    between atoms: C_3  and  C_18 
REMARK    4  A    between atoms: C_5  and  C_26 
REMARK    5  A    between atoms: O_6  and  P_9 
REMARK    6  A    between atoms: P_9  and  O_22 
REMARK    7  A    between atoms: C_12  and  C_25 
REMARK    8  A    between atoms: C_18  and  C_27 
REMARK    9  A    between atoms: C_18  and  N_30 
REMARK   10  A    between atoms: O_22  and  C_29 
REMARK   11  A    between atoms: N_23  and  C_25 
REMARK       I    between atoms: N_23  and  C_27 
REMARK   12  A    between atoms: C_25  and  C_26 
ROOT
HETATM    1  C           1     -21.030  -6.774  -4.212  0.00  0.00     0.189 C 
ENDROOT
BRANCH   1   2
HETATM    2  C           1     -21.488  -6.520  -2.797  0.00  0.00     0.197 C 
HETATM    3  O           1     -20.799  -6.922  -1.834  0.00  0.00    -0.646 OA
HETATM    4  O           1     -22.558  -5.909  -2.587  0.00  0.00    -0.646 OA
ENDBRANCH   1   2
BRANCH   1   5
HETATM    5  N           1     -20.397  -8.077  -4.288  0.00  0.00    -0.344 N 
HETATM    6  H           1     -19.436  -8.191  -3.991  0.00  0.00     0.163 HD
HETATM    7  C           1     -21.099  -9.152  -4.760  0.00  0.00     0.249 C 
HETATM    8  O           1     -21.084  -9.412  -5.940  0.00  0.00    -0.271 OA
BRANCH   7   9
HETATM    9  C           1     -21.893 -10.013  -3.808  0.00  0.00     0.275 C 
BRANCH   9  10
HETATM   10  C           1     -21.101 -10.214  -2.523  0.00  0.00     0.053 C 
BRANCH  10  11
HETATM   11  C           1     -21.600 -11.463  -1.809  0.00  0.00     0.076 C 
BRANCH  11  12
HETATM   12  S           1     -22.945 -11.017  -0.675  0.00  0.00    -0.173 SA
HETATM   13  C           1     -23.929 -12.521  -0.933  0.00  0.00     0.089 C 
ENDBRANCH  11  12
ENDBRANCH  10  11
ENDBRANCH   9  10
BRANCH   9  14
HETATM   14  N           1     -22.161 -11.344  -4.444  0.00  0.00    -0.066 N 
HETATM   15  H           1     -21.306 -11.666  -4.951  0.00  0.00     0.275 HD
HETATM   16  H           1     -22.409 -12.039  -3.704  0.00  0.00     0.275 HD
HETATM   17  H           1     -22.954 -11.256  -5.119  0.00  0.00     0.275 HD
ENDBRANCH   9  14
ENDBRANCH   7   9
ENDBRANCH   1   5
BRANCH   1  18
HETATM   18  C           1     -22.229  -6.738  -5.149  0.00  0.00     0.074 C 
BRANCH  18  19
HETATM   19  C           1     -21.912  -5.880  -6.334  0.00  0.00    -0.056 A 
HETATM   20  C           1     -20.715  -6.062  -7.026  0.00  0.00     0.010 A 
HETATM   21  C           1     -20.419  -5.262  -8.130  0.00  0.00     0.038 A 
HETATM   22  C           1     -21.319  -4.280  -8.542  0.00  0.00     0.081 A 
HETATM   23  C           1     -22.516  -4.098  -7.849  0.00  0.00     0.038 A 
HETATM   24  C           1     -22.813  -4.897  -6.746  0.00  0.00     0.010 A 
BRANCH  22  25
HETATM   25  O           1     -21.032  -3.504  -9.614  0.00  0.00    -0.247 OA
BRANCH  25  26
HETATM   26  P           1     -21.976  -3.633 -10.918  0.00  0.00     0.411 P 
HETATM   27  O           1     -23.317  -3.088 -10.613  0.00  0.00    -0.624 OA
HETATM   28  O           1     -22.097  -5.058 -11.298  0.00  0.00    -0.624 OA
BRANCH  26  29
HETATM   29  O           1     -21.323  -2.803 -12.139  0.00  0.00    -0.300 OA
HETATM   30  H           1     -20.393  -2.858 -12.002  0.00  0.00     0.223 HD
ENDBRANCH  26  29
ENDBRANCH  25  26
ENDBRANCH  22  25
ENDBRANCH  18  19
ENDBRANCH   1  18
TORSDOF 12
ENDMDL
MODEL 9
REMARK VINA RESULT:      -6.0     13.013     15.383
REMARK  12 active torsions:
REMARK  status: ('A' for Active; 'I' for Inactive)
REMARK    1  A    between atoms: C_2  and  C_3 
REMARK    2  A    between atoms: C_2  and  S_11 
REMARK    3  A    between atoms: C_3  and  C_18 
REMARK    4  A    between atoms: C_5  and  C_26 
REMARK    5  A    between atoms: O_6  and  P_9 
REMARK    6  A    between atoms: P_9  and  O_22 
REMARK    7  A    between atoms: C_12  and  C_25 
REMARK    8  A    between atoms: C_18  and  C_27 
REMARK    9  A    between atoms: C_18  and  N_30 
REMARK   10  A    between atoms: O_22  and  C_29 
REMARK   11  A    between atoms: N_23  and  C_25 
REMARK       I    between atoms: N_23  and  C_27 
REMARK   12  A    between atoms: C_25  and  C_26 
ROOT
HETATM    1  C           1     -21.493  -7.836  -4.574  0.00  0.00     0.189 C 
ENDROOT
BRANCH   1   2
HETATM    2  C           1     -20.604  -8.757  -5.372  0.00  0.00     0.197 C 
HETATM    3  O           1     -21.067  -9.817  -5.849  0.00  0.00    -0.646 OA
HETATM    4  O           1     -19.403  -8.463  -5.555  0.00  0.00    -0.646 OA
ENDBRANCH   1   2
BRANCH   1   5
HETATM    5  N           1     -21.719  -8.403  -3.258  0.00  0.00    -0.344 N 
HETATM    6  H           1     -22.654  -8.668  -2.975  0.00  0.00     0.163 HD
HETATM    7  C           1     -20.668  -8.580  -2.400  0.00  0.00     0.249 C 
HETATM    8  O           1     -20.360  -7.697  -1.634  0.00  0.00    -0.271 OA
BRANCH   7   9
HETATM    9  C           1     -19.894  -9.875  -2.410  0.00  0.00     0.275 C 
BRANCH   9  10
HETATM   10  C           1     -20.047 -10.569  -1.063  0.00  0.00     0.053 C 
BRANCH  10  11
HETATM   11  C           1     -20.912 -11.813  -1.228  0.00  0.00     0.076 C 
BRANCH  11  12
HETATM   12  S           1     -22.103 -11.908   0.138  0.00  0.00    -0.173 SA
HETATM   13  C           1     -22.971 -10.361  -0.247  0.00  0.00     0.089 C 
ENDBRANCH  11  12
ENDBRANCH  10  11
ENDBRANCH   9  10
BRANCH   9  14
HETATM   14  N           1     -18.444  -9.588  -2.662  0.00  0.00    -0.066 N 
HETATM   15  H           1     -18.342  -9.086  -3.573  0.00  0.00     0.275 HD
HETATM   16  H           1     -18.068  -8.992  -1.891  0.00  0.00     0.275 HD
HETATM   17  H           1     -17.912 -10.487  -2.699  0.00  0.00     0.275 HD
ENDBRANCH   9  14
ENDBRANCH   7   9
ENDBRANCH   1   5
BRANCH   1  18
HETATM   18  C           1     -20.822  -6.477  -4.432  0.00  0.00     0.074 C 
BRANCH  18  19
HETATM   19  C           1     -21.167  -5.623  -5.612  0.00  0.00    -0.056 A 
HETATM   20  C           1     -20.180  -4.854  -6.229  0.00  0.00     0.010 A 
HETATM   21  C           1     -20.502  -4.058  -7.328  0.00  0.00     0.038 A 
HETATM   22  C           1     -21.811  -4.029  -7.810  0.00  0.00     0.081 A 
HETATM   23  C           1     -22.797  -4.798  -7.192  0.00  0.00     0.038 A 
HETATM   24  C           1     -22.476  -5.594  -6.094  0.00  0.00     0.010 A 
BRANCH  22  25
HETATM   25  O           1     -22.123  -3.256  -8.877  0.00  0.00    -0.247 OA
BRANCH  25  26
HETATM   26  P           1     -21.994  -3.907 -10.349  0.00  0.00     0.411 P 
HETATM   27  O           1     -22.099  -2.842 -11.371  0.00  0.00    -0.624 OA
HETATM   28  O           1     -23.081  -4.891 -10.549  0.00  0.00    -0.624 OA
BRANCH  26  29
HETATM   29  O           1     -20.565  -4.645 -10.487  0.00  0.00    -0.300 OA
HETATM   30  H           1     -20.078  -4.378  -9.726  0.00  0.00     0.223 HD
ENDBRANCH  26  29
ENDBRANCH  25  26
ENDBRANCH  22  25
ENDBRANCH  18  19
ENDBRANCH   1  18
TORSDOF 12
ENDMDL
