MODEL 1
REMARK VINA RESULT:      -5.7      0.000      0.000
REMARK  7 active torsions:
REMARK  status: ('A' for Active; 'I' for Inactive)
REMARK    1  A    between atoms: C_1  and  C_9 
REMARK    2  A    between atoms: C_1  and  S_7 
REMARK    3  A    between atoms: N_3  and  C_10 
REMARK    4  A    between atoms: C_9  and  C_10 
REMARK    5  A    between atoms: C_10  and  C_11 
REMARK       I    between atoms: C_11  and  N_12 
REMARK    6  A    between atoms: N_12  and  C_17 
REMARK    7  A    between atoms: C_13  and  C_17 
ROOT
HETATM    1  C           1     -34.160  -3.855 -12.696  0.00  0.00     0.275 C 
ENDROOT
BRANCH   1   2
HETATM    2  N           1     -33.797  -3.952 -14.148  0.00  0.00    -0.066 N 
HETATM    3  H           1     -33.217  -3.126 -14.418  0.00  0.00     0.275 HD
HETATM    4  H           1     -33.251  -4.828 -14.312  0.00  0.00     0.275 HD
HETATM    5  H           1     -34.668  -3.970 -14.725  0.00  0.00     0.275 HD
ENDBRANCH   1   2
BRANCH   1   6
HETATM    6  C           1     -32.942  -4.188 -11.845  0.00  0.00     0.053 C 
BRANCH   6   7
HETATM    7  C           1     -33.092  -5.590 -11.267  0.00  0.00     0.076 C 
BRANCH   7   8
HETATM    8  S           1     -34.695  -5.730 -10.429  0.00  0.00    -0.173 SA
HETATM    9  C           1     -34.644  -7.531 -10.203  0.00  0.00     0.089 C 
ENDBRANCH   7   8
ENDBRANCH   6   7
ENDBRANCH   1   6
BRANCH   1  10
HETATM   10  C           1     -34.622  -2.452 -12.386  0.00  0.00     0.249 C 
HETATM   11  O           1     -34.689  -2.077 -11.240  0.00  0.00    -0.271 OA
HETATM   12  N           1     -34.965  -1.604 -13.405  0.00  0.00    -0.345 N 
HETATM   13  H           1     -34.909  -1.919 -14.365  0.00  0.00     0.163 HD
BRANCH  12  14
HETATM   14  C           1     -35.409  -0.256 -13.108  0.00  0.00     0.181 C 
HETATM   15  C           1     -34.953   0.684 -14.216  0.00  0.00     0.043 C 
BRANCH  14  16
HETATM   16  C           1     -36.915  -0.233 -13.015  0.00  0.00     0.196 C 
HETATM   17  O           1     -37.606  -0.696 -13.948  0.00  0.00    -0.646 OA
HETATM   18  O           1     -37.471   0.250 -12.005  0.00  0.00    -0.646 OA
ENDBRANCH  14  16
ENDBRANCH  12  14
ENDBRANCH   1  10
TORSDOF 7
ENDMDL
MODEL 2
REMARK VINA RESULT:      -5.7      2.003      2.559
REMARK  7 active torsions:
REMARK  status: ('A' for Active; 'I' for Inactive)
REMARK    1  A    between atoms: C_1  and  C_9 
REMARK    2  A    between atoms: C_1  and  S_7 
REMARK    3  A    between atoms: N_3  and  C_10 
REMARK    4  A    between atoms: C_9  and  C_10 
REMARK    5  A    between atoms: C_10  and  C_11 
REMARK       I    between atoms: C_11  and  N_12 
REMARK    6  A    between atoms: N_12  and  C_17 
REMARK    7  A    between atoms: C_13  and  C_17 
ROOT
HETATM    1  C           1     -34.416  -2.568 -11.756  0.00  0.00     0.275 C 
ENDROOT
BRANCH   1   2
HETATM    2  N           1     -33.782  -1.700 -10.711  0.00  0.00    -0.066 N 
HETATM    3  H           1     -34.300  -1.806  -9.809  0.00  0.00     0.275 HD
HETATM    4  H           1     -32.787  -1.989 -10.575  0.00  0.00     0.275 HD
HETATM    5  H           1     -33.817  -0.702 -11.018  0.00  0.00     0.275 HD
ENDBRANCH   1   2
BRANCH   1   6
HETATM    6  C           1     -35.244  -3.653 -11.080  0.00  0.00     0.053 C 
BRANCH   6   7
HETATM    7  C           1     -35.022  -4.981 -11.793  0.00  0.00     0.076 C 
BRANCH   7   8
HETATM    8  S           1     -33.695  -5.899 -10.961  0.00  0.00    -0.173 SA
HETATM    9  C           1     -34.774  -7.099 -10.130  0.00  0.00     0.089 C 
ENDBRANCH   7   8
ENDBRANCH   6   7
ENDBRANCH   1   6
BRANCH   1  10
HETATM   10  C           1     -35.310  -1.726 -12.634  0.00  0.00     0.249 C 
HETATM   11  O           1     -36.444  -1.492 -12.292  0.00  0.00    -0.271 OA
HETATM   12  N           1     -34.834  -1.227 -13.816  0.00  0.00    -0.345 N 
HETATM   13  H           1     -33.883  -1.423 -14.102  0.00  0.00     0.163 HD
BRANCH  12  14
HETATM   14  C           1     -35.693  -0.418 -14.660  0.00  0.00     0.181 C 
HETATM   15  C           1     -35.163   1.010 -14.702  0.00  0.00     0.043 C 
BRANCH  14  16
HETATM   16  C           1     -35.709  -0.991 -16.055  0.00  0.00     0.196 C 
HETATM   17  O           1     -35.039  -2.012 -16.320  0.00  0.00    -0.646 OA
HETATM   18  O           1     -36.394  -0.444 -16.947  0.00  0.00    -0.646 OA
ENDBRANCH  14  16
ENDBRANCH  12  14
ENDBRANCH   1  10
TORSDOF 7
ENDMDL
MODEL 3
REMARK VINA RESULT:      -5.5     12.568     14.101
REMARK  7 active torsions:
REMARK  status: ('A' for Active; 'I' for Inactive)
REMARK    1  A    between atoms: C_1  and  C_9 
REMARK    2  A    between atoms: C_1  and  S_7 
REMARK    3  A    between atoms: N_3  and  C_10 
REMARK    4  A    between atoms: C_9  and  C_10 
REMARK    5  A    between atoms: C_10  and  C_11 
REMARK       I    between atoms: C_11  and  N_12 
REMARK    6  A    between atoms: N_12  and  C_17 
REMARK    7  A    between atoms: C_13  and  C_17 
ROOT
HETATM    1  C           1     -21.193  -5.889  -6.957  0.00  0.00     0.275 C 
ENDROOT
BRANCH   1   2
HETATM    2  N           1     -19.746  -6.174  -7.227  0.00  0.00    -0.066 N 
HETATM    3  H           1     -19.168  -5.834  -6.424  0.00  0.00     0.275 HD
HETATM    4  H           1     -19.609  -7.204  -7.341  0.00  0.00     0.275 HD
HETATM    5  H           1     -19.450  -5.683  -8.101  0.00  0.00     0.275 HD
ENDBRANCH   1   2
BRANCH   1   6
HETATM    6  C           1     -21.390  -5.625  -5.470  0.00  0.00     0.053 C 
BRANCH   6   7
HETATM    7  C           1     -22.122  -6.802  -4.837  0.00  0.00     0.076 C 
BRANCH   7   8
HETATM    8  S           1     -21.226  -7.345  -3.355  0.00  0.00    -0.173 SA
HETATM    9  C           1     -22.045  -6.208  -2.201  0.00  0.00     0.089 C 
ENDBRANCH   7   8
ENDBRANCH   6   7
ENDBRANCH   1   6
BRANCH   1  10
HETATM   10  C           1     -21.621  -4.675  -7.745  0.00  0.00     0.249 C 
HETATM   11  O           1     -21.397  -3.568  -7.317  0.00  0.00    -0.271 OA
HETATM   12  N           1     -22.263  -4.827  -8.944  0.00  0.00    -0.345 N 
HETATM   13  H           1     -22.451  -5.756  -9.302  0.00  0.00     0.163 HD
BRANCH  12  14
HETATM   14  C           1     -22.674  -3.661  -9.701  0.00  0.00     0.181 C 
HETATM   15  C           1     -21.763  -3.493 -10.910  0.00  0.00     0.043 C 
BRANCH  14  16
HETATM   16  C           1     -24.099  -3.841 -10.165  0.00  0.00     0.196 C 
HETATM   17  O           1     -24.713  -4.898  -9.904  0.00  0.00    -0.646 OA
HETATM   18  O           1     -24.665  -2.932 -10.811  0.00  0.00    -0.646 OA
ENDBRANCH  14  16
ENDBRANCH  12  14
ENDBRANCH   1  10
TORSDOF 7
ENDMDL
MODEL 4
REMARK VINA RESULT:      -5.3      4.043      5.425
REMARK  7 active torsions:
REMARK  status: ('A' for Active; 'I' for Inactive)
REMARK    1  A    between atoms: C_1  and  C_9 
REMARK    2  A    between atoms: C_1  and  S_7 
REMARK    3  A    between atoms: N_3  and  C_10 
REMARK    4  A    between atoms: C_9  and  C_10 
REMARK    5  A    between atoms: C_10  and  C_11 
REMARK       I    between atoms: C_11  and  N_12 
REMARK    6  A    between atoms: N_12  and  C_17 
REMARK    7  A    between atoms: C_13  and  C_17 
ROOT
HETATM    1  C           1     -36.979  -0.245  -9.857  0.00  0.00     0.275 C 
ENDROOT
BRANCH   1   2
HETATM    2  N           1     -35.650  -0.749  -9.378  0.00  0.00    -0.066 N 
HETATM    3  H           1     -35.280  -0.110  -8.638  0.00  0.00     0.275 HD
HETATM    4  H           1     -35.763  -1.709  -8.982  0.00  0.00     0.275 HD
HETATM    5  H           1     -34.979  -0.779 -10.179  0.00  0.00     0.275 HD
ENDBRANCH   1   2
BRANCH   1   6
HETATM    6  C           1     -37.297   1.076  -9.169  0.00  0.00     0.053 C 
BRANCH   6   7
HETATM    7  C           1     -36.774   1.044  -7.739  0.00  0.00     0.076 C 
BRANCH   7   8
HETATM    8  S           1     -37.987   0.222  -6.668  0.00  0.00    -0.173 SA
HETATM    9  C           1     -37.291   0.803  -5.096  0.00  0.00     0.089 C 
ENDBRANCH   7   8
ENDBRANCH   6   7
ENDBRANCH   1   6
BRANCH   1  10
HETATM   10  C           1     -36.928  -0.035 -11.351  0.00  0.00     0.249 C 
HETATM   11  O           1     -37.951   0.108 -11.976  0.00  0.00    -0.271 OA
HETATM   12  N           1     -35.721  -0.005 -11.997  0.00  0.00    -0.345 N 
HETATM   13  H           1     -34.863  -0.124 -11.472  0.00  0.00     0.163 HD
BRANCH  12  14
HETATM   14  C           1     -35.671   0.197 -13.432  0.00  0.00     0.181 C 
HETATM   15  C           1     -34.612   1.241 -13.761  0.00  0.00     0.043 C 
BRANCH  14  16
HETATM   16  C           1     -35.323  -1.105 -14.110  0.00  0.00     0.196 C 
HETATM   17  O           1     -35.341  -1.185 -15.357  0.00  0.00    -0.646 OA
HETATM   18  O           1     -35.017  -2.105 -13.424  0.00  0.00    -0.646 OA
ENDBRANCH  14  16
ENDBRANCH  12  14
ENDBRANCH   1  10
TORSDOF 7
ENDMDL
MODEL 5
REMARK VINA RESULT:      -5.2     10.184     11.466
REMARK  7 active torsions:
REMARK  status: ('A' for Active; 'I' for Inactive)
REMARK    1  A    between atoms: C_1  and  C_9 
REMARK    2  A    between atoms: C_1  and  S_7 
REMARK    3  A    between atoms: N_3  and  C_10 
REMARK    4  A    between atoms: C_9  and  C_10 
REMARK    5  A    between atoms: C_10  and  C_11 
REMARK       I    between atoms: C_11  and  N_12 
REMARK    6  A    between atoms: N_12  and  C_17 
REMARK    7  A    between atoms: C_13  and  C_17 
ROOT
HETATM    1  C           1     -24.930  -6.765 -17.174  0.00  0.00     0.275 C 
ENDROOT
BRANCH   1   2
HETATM    2  N           1     -23.984  -7.888 -16.869  0.00  0.00    -0.066 N 
HETATM    3  H           1     -23.074  -7.497 -16.535  0.00  0.00     0.275 HD
HETATM    4  H           1     -24.394  -8.496 -16.124  0.00  0.00     0.275 HD
HETATM    5  H           1     -23.824  -8.455 -17.733  0.00  0.00     0.275 HD
ENDBRANCH   1   2
BRANCH   1   6
HETATM    6  C           1     -25.244  -6.758 -18.664  0.00  0.00     0.053 C 
BRANCH   6   7
HETATM    7  C           1     -24.096  -7.404 -19.429  0.00  0.00     0.076 C 
BRANCH   7   8
HETATM    8  S           1     -24.659  -7.861 -21.093  0.00  0.00    -0.173 SA
HETATM    9  C           1     -23.037  -8.391 -21.713  0.00  0.00     0.089 C 
ENDBRANCH   7   8
ENDBRANCH   6   7
ENDBRANCH   1   6
BRANCH   1  10
HETATM   10  C           1     -26.206  -6.956 -16.391  0.00  0.00     0.249 C 
HETATM   11  O           1     -26.168  -7.427 -15.280  0.00  0.00    -0.271 OA
HETATM   12  N           1     -27.406  -6.593 -16.940  0.00  0.00    -0.345 N 
HETATM   13  H           1     -27.438  -6.198 -17.872  0.00  0.00     0.163 HD
BRANCH  12  14
HETATM   14  C           1     -28.633  -6.776 -16.189  0.00  0.00     0.181 C 
HETATM   15  C           1     -28.964  -5.493 -15.438  0.00  0.00     0.043 C 
BRANCH  14  16
HETATM   16  C           1     -29.757  -7.110 -17.137  0.00  0.00     0.196 C 
HETATM   17  O           1     -29.762  -8.204 -17.741  0.00  0.00    -0.646 OA
HETATM   18  O           1     -30.685  -6.292 -17.319  0.00  0.00    -0.646 OA
ENDBRANCH  14  16
ENDBRANCH  12  14
ENDBRANCH   1  10
TORSDOF 7
ENDMDL
MODEL 6
REMARK VINA RESULT:      -5.1      1.686      2.101
REMARK  7 active torsions:
REMARK  status: ('A' for Active; 'I' for Inactive)
REMARK    1  A    between atoms: C_1  and  C_9 
REMARK    2  A    between atoms: C_1  and  S_7 
REMARK    3  A    between atoms: N_3  and  C_10 
REMARK    4  A    between atoms: C_9  and  C_10 
REMARK    5  A    between atoms: C_10  and  C_11 
REMARK       I    between atoms: C_11  and  N_12 
REMARK    6  A    between atoms: N_12  and  C_17 
REMARK    7  A    between atoms: C_13  and  C_17 
ROOT
HETATM    1  C           1     -34.469  -3.447 -12.636  0.00  0.00     0.275 C 
ENDROOT
BRANCH   1   2
HETATM    2  N           1     -33.849  -3.791 -13.958  0.00  0.00    -0.066 N 
HETATM    3  H           1     -33.017  -4.405 -13.803  0.00  0.00     0.275 HD
HETATM    4  H           1     -34.547  -4.296 -14.550  0.00  0.00     0.275 HD
HETATM    5  H           1     -33.550  -2.914 -14.442  0.00  0.00     0.275 HD
ENDBRANCH   1   2
BRANCH   1   6
HETATM    6  C           1     -33.413  -3.539 -11.542  0.00  0.00     0.053 C 
BRANCH   6   7
HETATM    7  C           1     -33.847  -4.565 -10.503  0.00  0.00     0.076 C 
BRANCH   7   8
HETATM    8  S           1     -34.622  -5.979 -11.335  0.00  0.00    -0.173 SA
HETATM    9  C           1     -34.781  -7.018  -9.855  0.00  0.00     0.089 C 
ENDBRANCH   7   8
ENDBRANCH   6   7
ENDBRANCH   1   6
BRANCH   1  10
HETATM   10  C           1     -35.017  -2.042 -12.690  0.00  0.00     0.249 C 
HETATM   11  O           1     -34.699  -1.303 -13.590  0.00  0.00    -0.271 OA
HETATM   12  N           1     -35.876  -1.604 -11.717  0.00  0.00    -0.345 N 
HETATM   13  H           1     -36.142  -2.224 -10.962  0.00  0.00     0.163 HD
BRANCH  12  14
HETATM   14  C           1     -36.403  -0.255 -11.768  0.00  0.00     0.181 C 
HETATM   15  C           1     -37.615  -0.217 -12.689  0.00  0.00     0.043 C 
BRANCH  14  16
HETATM   16  C           1     -36.811   0.177 -10.381  0.00  0.00     0.196 C 
HETATM   17  O           1     -36.136  -0.180  -9.391  0.00  0.00    -0.646 OA
HETATM   18  O           1     -37.824   0.892 -10.222  0.00  0.00    -0.646 OA
ENDBRANCH  14  16
ENDBRANCH  12  14
ENDBRANCH   1  10
TORSDOF 7
ENDMDL
MODEL 7
REMARK VINA RESULT:      -5.0      2.910      5.276
REMARK  7 active torsions:
REMARK  status: ('A' for Active; 'I' for Inactive)
REMARK    1  A    between atoms: C_1  and  C_9 
REMARK    2  A    between atoms: C_1  and  S_7 
REMARK    3  A    between atoms: N_3  and  C_10 
REMARK    4  A    between atoms: C_9  and  C_10 
REMARK    5  A    between atoms: C_10  and  C_11 
REMARK       I    between atoms: C_11  and  N_12 
REMARK    6  A    between atoms: N_12  and  C_17 
REMARK    7  A    between atoms: C_13  and  C_17 
ROOT
HETATM    1  C           1     -35.490  -0.072 -12.372  0.00  0.00     0.275 C 
ENDROOT
BRANCH   1   2
HETATM    2  N           1     -34.867   0.876 -13.353  0.00  0.00    -0.066 N 
HETATM    3  H           1     -34.080   1.387 -12.892  0.00  0.00     0.275 HD
HETATM    4  H           1     -34.500   0.339 -14.171  0.00  0.00     0.275 HD
HETATM    5  H           1     -35.585   1.563 -13.679  0.00  0.00     0.275 HD
ENDBRANCH   1   2
BRANCH   1   6
HETATM    6  C           1     -37.007   0.019 -12.472  0.00  0.00     0.053 C 
BRANCH   6   7
HETATM    7  C           1     -37.629  -0.349 -11.131  0.00  0.00     0.076 C 
BRANCH   7   8
HETATM    8  S           1     -37.067   0.820  -9.862  0.00  0.00    -0.173 SA
HETATM    9  C           1     -37.331  -0.283  -8.445  0.00  0.00     0.089 C 
ENDBRANCH   7   8
ENDBRANCH   6   7
ENDBRANCH   1   6
BRANCH   1  10
HETATM   10  C           1     -35.048  -1.481 -12.685  0.00  0.00     0.249 C 
HETATM   11  O           1     -35.042  -1.872 -13.827  0.00  0.00    -0.271 OA
HETATM   12  N           1     -34.654  -2.315 -11.673  0.00  0.00    -0.345 N 
HETATM   13  H           1     -34.659  -1.986 -10.716  0.00  0.00     0.163 HD
BRANCH  12  14
HETATM   14  C           1     -34.229  -3.668 -11.973  0.00  0.00     0.181 C 
HETATM   15  C           1     -32.736  -3.802 -11.709  0.00  0.00     0.043 C 
BRANCH  14  16
HETATM   16  C           1     -34.985  -4.637 -11.097  0.00  0.00     0.196 C 
HETATM   17  O           1     -34.470  -5.733 -10.788  0.00  0.00    -0.646 OA
HETATM   18  O           1     -36.127  -4.343 -10.680  0.00  0.00    -0.646 OA
ENDBRANCH  14  16
ENDBRANCH  12  14
ENDBRANCH   1  10
TORSDOF 7
ENDMDL
MODEL 8
REMARK VINA RESULT:      -5.0      2.990      5.569
REMARK  7 active torsions:
REMARK  status: ('A' for Active; 'I' for Inactive)
REMARK    1  A    between atoms: C_1  and  C_9 
REMARK    2  A    between atoms: C_1  and  S_7 
REMARK    3  A    between atoms: N_3  and  C_10 
REMARK    4  A    between atoms: C_9  and  C_10 
REMARK    5  A    between atoms: C_10  and  C_11 
REMARK       I    between atoms: C_11  and  N_12 
REMARK    6  A    between atoms: N_12  and  C_17 
REMARK    7  A    between atoms: C_13  and  C_17 
ROOT
HETATM    1  C           1     -36.532  -1.129  -9.984  0.00  0.00     0.275 C 
ENDROOT
BRANCH   1   2
HETATM    2  N           1     -36.116  -0.066  -9.011  0.00  0.00    -0.066 N 
HETATM    3  H           1     -35.599  -0.506  -8.215  0.00  0.00     0.275 HD
HETATM    4  H           1     -35.493   0.622  -9.491  0.00  0.00     0.275 HD
HETATM    5  H           1     -36.964   0.425  -8.647  0.00  0.00     0.275 HD
ENDBRANCH   1   2
BRANCH   1   6
HETATM    6  C           1     -37.171  -0.477 -11.203  0.00  0.00     0.053 C 
BRANCH   6   7
HETATM    7  C           1     -36.099   0.236 -12.019  0.00  0.00     0.076 C 
BRANCH   7   8
HETATM    8  S           1     -36.253  -0.236 -13.765  0.00  0.00    -0.173 SA
HETATM    9  C           1     -34.941   0.856 -14.382  0.00  0.00     0.089 C 
ENDBRANCH   7   8
ENDBRANCH   6   7
ENDBRANCH   1   6
BRANCH   1  10
HETATM   10  C           1     -35.319  -1.919 -10.413  0.00  0.00     0.249 C 
HETATM   11  O           1     -34.213  -1.534 -10.122  0.00  0.00    -0.271 OA
HETATM   12  N           1     -35.474  -3.074 -11.132  0.00  0.00    -0.345 N 
HETATM   13  H           1     -36.403  -3.397 -11.377  0.00  0.00     0.163 HD
BRANCH  12  14
HETATM   14  C           1     -34.311  -3.833 -11.545  0.00  0.00     0.181 C 
HETATM   15  C           1     -34.096  -4.996 -10.584  0.00  0.00     0.043 C 
BRANCH  14  16
HETATM   16  C           1     -34.527  -4.366 -12.940  0.00  0.00     0.196 C 
HETATM   17  O           1     -35.134  -5.446 -13.110  0.00  0.00    -0.646 OA
HETATM   18  O           1     -34.100  -3.727 -13.926  0.00  0.00    -0.646 OA
ENDBRANCH  14  16
ENDBRANCH  12  14
ENDBRANCH   1  10
TORSDOF 7
ENDMDL
MODEL 9
REMARK VINA RESULT:      -4.8     15.486     16.671
REMARK  7 active torsions:
REMARK  status: ('A' for Active; 'I' for Inactive)
REMARK    1  A    between atoms: C_1  and  C_9 
REMARK    2  A    between atoms: C_1  and  S_7 
REMARK    3  A    between atoms: N_3  and  C_10 
REMARK    4  A    between atoms: C_9  and  C_10 
REMARK    5  A    between atoms: C_10  and  C_11 
REMARK       I    between atoms: C_11  and  N_12 
REMARK    6  A    between atoms: N_12  and  C_17 
REMARK    7  A    between atoms: C_13  and  C_17 
ROOT
HETATM    1  C           1     -21.308  -6.373  -3.051  0.00  0.00     0.275 C 
ENDROOT
BRANCH   1   2
HETATM    2  N           1     -22.396  -5.800  -2.193  0.00  0.00    -0.066 N 
HETATM    3  H           1     -22.471  -6.354  -1.310  0.00  0.00     0.275 HD
HETATM    4  H           1     -22.171  -4.806  -1.962  0.00  0.00     0.275 HD
HETATM    5  H           1     -23.305  -5.841  -2.708  0.00  0.00     0.275 HD
ENDBRANCH   1   2
BRANCH   1   6
HETATM    6  C           1     -21.156  -7.859  -2.753  0.00  0.00     0.053 C 
BRANCH   6   7
HETATM    7  C           1     -20.935  -8.057  -1.259  0.00  0.00     0.076 C 
BRANCH   7   8
HETATM    8  S           1     -22.100  -9.301  -0.635  0.00  0.00    -0.173 SA
HETATM    9  C           1     -23.021  -8.181   0.457  0.00  0.00     0.089 C 
ENDBRANCH   7   8
ENDBRANCH   6   7
ENDBRANCH   1   6
BRANCH   1  10
HETATM   10  C           1     -21.664  -6.185  -4.506  0.00  0.00     0.249 C 
HETATM   11  O           1     -22.588  -6.797  -4.985  0.00  0.00    -0.271 OA
HETATM   12  N           1     -20.940  -5.320  -5.282  0.00  0.00    -0.345 N 
HETATM   13  H           1     -20.165  -4.807  -4.880  0.00  0.00     0.163 HD
BRANCH  12  14
HETATM   14  C           1     -21.281  -5.140  -6.680  0.00  0.00     0.181 C 
HETATM   15  C           1     -21.436  -3.654  -6.976  0.00  0.00     0.043 C 
BRANCH  14  16
HETATM   16  C           1     -20.185  -5.715  -7.542  0.00  0.00     0.196 C 
HETATM   17  O           1     -19.525  -6.698  -7.143  0.00  0.00    -0.646 OA
HETATM   18  O           1     -19.937  -5.207  -8.658  0.00  0.00    -0.646 OA
ENDBRANCH  14  16
ENDBRANCH  12  14
ENDBRANCH   1  10
TORSDOF 7
ENDMDL
