MODEL 1
REMARK VINA RESULT:      -5.1      0.000      0.000
REMARK  8 active torsions:
REMARK  status: ('A' for Active; 'I' for Inactive)
REMARK    1  A    between atoms: C_4  and  C_5 
REMARK    2  A    between atoms: C_5  and  C_15 
REMARK    3  A    between atoms: C_5  and  N_11 
REMARK    4  A    between atoms: C_6  and  C_9 
REMARK    5  A    between atoms: C_9  and  C_16 
REMARK    6  A    between atoms: C_9  and  N_20 
REMARK       I    between atoms: N_11  and  C_16 
REMARK    7  A    between atoms: C_12  and  S_13 
REMARK    8  A    between atoms: C_12  and  C_15 
ROOT
HETATM    1  H           1     -22.008  -7.105  -6.922  0.00  0.00     0.163 HD
HETATM    2  N           1     -21.533  -6.359  -6.430  0.00  0.00    -0.345 N 
HETATM    3  C           1     -21.549  -5.087  -6.937  0.00  0.00     0.249 C 
HETATM    4  O           1     -20.981  -4.196  -6.350  0.00  0.00    -0.271 OA
ENDROOT
BRANCH   2   5
HETATM    5  C           1     -20.835  -6.637  -5.190  0.00  0.00     0.186 C 
BRANCH   5   6
HETATM    6  C           1     -19.812  -7.722  -5.423  0.00  0.00     0.196 C 
HETATM    7  O           1     -19.074  -7.678  -6.430  0.00  0.00    -0.646 OA
HETATM    8  O           1     -19.704  -8.664  -4.609  0.00  0.00    -0.646 OA
ENDBRANCH   5   6
BRANCH   5   9
HETATM    9  C           1     -21.835  -7.097  -4.138  0.00  0.00     0.046 C 
BRANCH   9  10
HETATM   10  C           1     -21.537  -6.402  -2.816  0.00  0.00     0.076 C 
BRANCH  10  11
HETATM   11  S           1     -21.133  -7.644  -1.556  0.00  0.00    -0.173 SA
HETATM   12  C           1     -22.532  -7.279  -0.459  0.00  0.00     0.089 C 
ENDBRANCH  10  11
ENDBRANCH   9  10
ENDBRANCH   5   9
ENDBRANCH   2   5
BRANCH   3  13
HETATM   13  C           1     -22.275  -4.798  -8.227  0.00  0.00     0.278 C 
BRANCH  13  14
HETATM   14  C           1     -21.394  -3.940  -9.126  0.00  0.00     0.017 C 
HETATM   15  C           1     -20.157  -4.733  -9.529  0.00  0.00     0.012 C 
HETATM   16  C           1     -22.173  -3.546 -10.373  0.00  0.00     0.012 C 
ENDBRANCH  13  14
BRANCH  13  17
HETATM   17  N           1     -23.549  -4.064  -7.929  0.00  0.00    -0.066 N 
HETATM   18  H           1     -23.331  -3.187  -7.404  0.00  0.00     0.275 HD
HETATM   19  H           1     -24.030  -3.822  -8.825  0.00  0.00     0.275 HD
HETATM   20  H           1     -24.174  -4.671  -7.352  0.00  0.00     0.275 HD
ENDBRANCH  13  17
ENDBRANCH   3  13
TORSDOF 8
ENDMDL
MODEL 2
REMARK VINA RESULT:      -5.1      3.020      6.555
REMARK  8 active torsions:
REMARK  status: ('A' for Active; 'I' for Inactive)
REMARK    1  A    between atoms: C_4  and  C_5 
REMARK    2  A    between atoms: C_5  and  C_15 
REMARK    3  A    between atoms: C_5  and  N_11 
REMARK    4  A    between atoms: C_6  and  C_9 
REMARK    5  A    between atoms: C_9  and  C_16 
REMARK    6  A    between atoms: C_9  and  N_20 
REMARK       I    between atoms: N_11  and  C_16 
REMARK    7  A    between atoms: C_12  and  S_13 
REMARK    8  A    between atoms: C_12  and  C_15 
ROOT
HETATM    1  H           1     -20.409  -6.792  -3.223  0.00  0.00     0.163 HD
HETATM    2  N           1     -20.800  -7.716  -3.356  0.00  0.00    -0.345 N 
HETATM    3  C           1     -21.394  -8.366  -2.307  0.00  0.00     0.249 C 
HETATM    4  O           1     -21.860  -9.469  -2.466  0.00  0.00    -0.271 OA
ENDROOT
BRANCH   2   5
HETATM    5  C           1     -20.731  -8.352  -4.658  0.00  0.00     0.186 C 
BRANCH   5   6
HETATM    6  C           1     -19.301  -8.728  -4.957  0.00  0.00     0.196 C 
HETATM    7  O           1     -18.884  -8.708  -6.136  0.00  0.00    -0.646 OA
HETATM    8  O           1     -18.534  -9.060  -4.029  0.00  0.00    -0.646 OA
ENDBRANCH   5   6
BRANCH   5   9
HETATM    9  C           1     -21.237  -7.386  -5.721  0.00  0.00     0.046 C 
BRANCH   9  10
HETATM   10  C           1     -21.364  -5.992  -5.122  0.00  0.00     0.076 C 
BRANCH  10  11
HETATM   11  S           1     -20.285  -4.845  -6.025  0.00  0.00    -0.173 SA
HETATM   12  C           1     -21.557  -4.229  -7.164  0.00  0.00     0.089 C 
ENDBRANCH  10  11
ENDBRANCH   9  10
ENDBRANCH   5   9
ENDBRANCH   2   5
BRANCH   3  13
HETATM   13  C           1     -21.466  -7.704  -0.953  0.00  0.00     0.278 C 
BRANCH  13  14
HETATM   14  C           1     -22.076  -8.671   0.053  0.00  0.00     0.017 C 
HETATM   15  C           1     -21.086  -8.918   1.185  0.00  0.00     0.012 C 
HETATM   16  C           1     -23.355  -8.071   0.621  0.00  0.00     0.012 C 
ENDBRANCH  13  14
BRANCH  13  17
HETATM   17  N           1     -22.317  -6.473  -1.044  0.00  0.00    -0.066 N 
HETATM   18  H           1     -23.277  -6.736  -1.363  0.00  0.00     0.275 HD
HETATM   19  H           1     -22.376  -6.020  -0.104  0.00  0.00     0.275 HD
HETATM   20  H           1     -21.893  -5.805  -1.726  0.00  0.00     0.275 HD
ENDBRANCH  13  17
ENDBRANCH   3  13
TORSDOF 8
ENDMDL
MODEL 3
REMARK VINA RESULT:      -5.0      2.359      3.502
REMARK  8 active torsions:
REMARK  status: ('A' for Active; 'I' for Inactive)
REMARK    1  A    between atoms: C_4  and  C_5 
REMARK    2  A    between atoms: C_5  and  C_15 
REMARK    3  A    between atoms: C_5  and  N_11 
REMARK    4  A    between atoms: C_6  and  C_9 
REMARK    5  A    between atoms: C_9  and  C_16 
REMARK    6  A    between atoms: C_9  and  N_20 
REMARK       I    between atoms: N_11  and  C_16 
REMARK    7  A    between atoms: C_12  and  S_13 
REMARK    8  A    between atoms: C_12  and  C_15 
ROOT
HETATM    1  H           1     -19.988  -6.347  -5.069  0.00  0.00     0.163 HD
HETATM    2  N           1     -21.000  -6.375  -5.057  0.00  0.00    -0.345 N 
HETATM    3  C           1     -21.717  -5.525  -5.856  0.00  0.00     0.249 C 
HETATM    4  O           1     -22.925  -5.557  -5.841  0.00  0.00    -0.271 OA
ENDROOT
BRANCH   2   5
HETATM    5  C           1     -21.690  -7.313  -4.192  0.00  0.00     0.186 C 
BRANCH   5   6
HETATM    6  C           1     -21.613  -6.830  -2.765  0.00  0.00     0.196 C 
HETATM    7  O           1     -20.794  -7.349  -1.974  0.00  0.00    -0.646 OA
HETATM    8  O           1     -22.366  -5.915  -2.373  0.00  0.00    -0.646 OA
ENDBRANCH   5   6
BRANCH   5   9
HETATM    9  C           1     -21.032  -8.682  -4.303  0.00  0.00     0.046 C 
BRANCH   9  10
HETATM   10  C           1     -19.708  -8.550  -5.045  0.00  0.00     0.076 C 
BRANCH  10  11
HETATM   11  S           1     -18.421  -9.470  -4.155  0.00  0.00    -0.173 SA
HETATM   12  C           1     -17.467  -9.950  -5.623  0.00  0.00     0.089 C 
ENDBRANCH  10  11
ENDBRANCH   9  10
ENDBRANCH   5   9
ENDBRANCH   2   5
BRANCH   3  13
HETATM   13  C           1     -21.000  -4.548  -6.755  0.00  0.00     0.278 C 
BRANCH  13  14
HETATM   14  C           1     -21.379  -4.819  -8.205  0.00  0.00     0.017 C 
HETATM   15  C           1     -22.393  -3.781  -8.667  0.00  0.00     0.012 C 
HETATM   16  C           1     -20.135  -4.736  -9.078  0.00  0.00     0.012 C 
ENDBRANCH  13  14
BRANCH  13  17
HETATM   17  N           1     -19.518  -4.711  -6.586  0.00  0.00    -0.066 N 
HETATM   18  H           1     -19.266  -4.579  -5.581  0.00  0.00     0.275 HD
HETATM   19  H           1     -19.236  -5.669  -6.893  0.00  0.00     0.275 HD
HETATM   20  H           1     -19.021  -3.999  -7.168  0.00  0.00     0.275 HD
ENDBRANCH  13  17
ENDBRANCH   3  13
TORSDOF 8
ENDMDL
MODEL 4
REMARK VINA RESULT:      -5.0     12.994     14.738
REMARK  8 active torsions:
REMARK  status: ('A' for Active; 'I' for Inactive)
REMARK    1  A    between atoms: C_4  and  C_5 
REMARK    2  A    between atoms: C_5  and  C_15 
REMARK    3  A    between atoms: C_5  and  N_11 
REMARK    4  A    between atoms: C_6  and  C_9 
REMARK    5  A    between atoms: C_9  and  C_16 
REMARK    6  A    between atoms: C_9  and  N_20 
REMARK       I    between atoms: N_11  and  C_16 
REMARK    7  A    between atoms: C_12  and  S_13 
REMARK    8  A    between atoms: C_12  and  C_15 
ROOT
HETATM    1  H           1     -27.672  -8.212 -18.730  0.00  0.00     0.163 HD
HETATM    2  N           1     -27.793  -7.315 -19.181  0.00  0.00    -0.345 N 
HETATM    3  C           1     -28.614  -6.372 -18.621  0.00  0.00     0.249 C 
HETATM    4  O           1     -28.759  -5.301 -19.160  0.00  0.00    -0.271 OA
ENDROOT
BRANCH   2   5
HETATM    5  C           1     -27.096  -7.026 -20.419  0.00  0.00     0.186 C 
BRANCH   5   6
HETATM    6  C           1     -26.961  -8.293 -21.227  0.00  0.00     0.196 C 
HETATM    7  O           1     -25.855  -8.605 -21.719  0.00  0.00    -0.646 OA
HETATM    8  O           1     -27.954  -9.031 -21.404  0.00  0.00    -0.646 OA
ENDBRANCH   5   6
BRANCH   5   9
HETATM    9  C           1     -25.713  -6.472 -20.105  0.00  0.00     0.046 C 
BRANCH   9  10
HETATM   10  C           1     -25.462  -6.554 -18.606  0.00  0.00     0.076 C 
BRANCH  10  11
HETATM   11  S           1     -23.818  -7.263 -18.305  0.00  0.00    -0.173 SA
HETATM   12  C           1     -24.128  -7.767 -16.589  0.00  0.00     0.089 C 
ENDBRANCH  10  11
ENDBRANCH   9  10
ENDBRANCH   5   9
ENDBRANCH   2   5
BRANCH   3  13
HETATM   13  C           1     -29.339  -6.673 -17.332  0.00  0.00     0.278 C 
BRANCH  13  14
HETATM   14  C           1     -28.533  -6.135 -16.158  0.00  0.00     0.017 C 
HETATM   15  C           1     -29.479  -5.550 -15.118  0.00  0.00     0.012 C 
HETATM   16  C           1     -27.730  -7.268 -15.533  0.00  0.00     0.012 C 
ENDBRANCH  13  14
BRANCH  13  17
HETATM   17  N           1     -29.506  -8.156 -17.188  0.00  0.00    -0.066 N 
HETATM   18  H           1     -29.391  -8.612 -18.121  0.00  0.00     0.275 HD
HETATM   19  H           1     -28.782  -8.526 -16.530  0.00  0.00     0.275 HD
HETATM   20  H           1     -30.457  -8.365 -16.810  0.00  0.00     0.275 HD
ENDBRANCH  13  17
ENDBRANCH   3  13
TORSDOF 8
ENDMDL
MODEL 5
REMARK VINA RESULT:      -4.9      2.246      3.492
REMARK  8 active torsions:
REMARK  status: ('A' for Active; 'I' for Inactive)
REMARK    1  A    between atoms: C_4  and  C_5 
REMARK    2  A    between atoms: C_5  and  C_15 
REMARK    3  A    between atoms: C_5  and  N_11 
REMARK    4  A    between atoms: C_6  and  C_9 
REMARK    5  A    between atoms: C_9  and  C_16 
REMARK    6  A    between atoms: C_9  and  N_20 
REMARK       I    between atoms: N_11  and  C_16 
REMARK    7  A    between atoms: C_12  and  S_13 
REMARK    8  A    between atoms: C_12  and  C_15 
ROOT
HETATM    1  H           1     -22.090  -7.391  -3.625  0.00  0.00     0.163 HD
HETATM    2  N           1     -21.231  -7.871  -3.859  0.00  0.00    -0.345 N 
HETATM    3  C           1     -20.652  -7.680  -5.085  0.00  0.00     0.249 C 
HETATM    4  O           1     -19.627  -8.254  -5.365  0.00  0.00    -0.271 OA
ENDROOT
BRANCH   2   5
HETATM    5  C           1     -20.613  -8.763  -2.897  0.00  0.00     0.186 C 
BRANCH   5   6
HETATM    6  C           1     -21.403 -10.047  -2.823  0.00  0.00     0.196 C 
HETATM    7  O           1     -21.099 -10.919  -1.980  0.00  0.00    -0.646 OA
HETATM    8  O           1     -22.358 -10.239  -3.605  0.00  0.00    -0.646 OA
ENDBRANCH   5   6
BRANCH   5   9
HETATM    9  C           1     -20.596  -8.097  -1.527  0.00  0.00     0.046 C 
BRANCH   9  10
HETATM   10  C           1     -21.911  -7.362  -1.303  0.00  0.00     0.076 C 
BRANCH  10  11
HETATM   11  S           1     -22.721  -8.012   0.185  0.00  0.00    -0.173 SA
HETATM   12  C           1     -21.242  -8.788   0.896  0.00  0.00     0.089 C 
ENDBRANCH  10  11
ENDBRANCH   9  10
ENDBRANCH   5   9
ENDBRANCH   2   5
BRANCH   3  13
HETATM   13  C           1     -21.295  -6.752  -6.087  0.00  0.00     0.278 C 
BRANCH  13  14
HETATM   14  C           1     -20.236  -5.832  -6.680  0.00  0.00     0.017 C 
HETATM   15  C           1     -20.728  -5.287  -8.015  0.00  0.00     0.012 C 
HETATM   16  C           1     -19.976  -4.676  -5.725  0.00  0.00     0.012 C 
ENDBRANCH  13  14
BRANCH  13  17
HETATM   17  N           1     -22.346  -5.929  -5.402  0.00  0.00    -0.066 N 
HETATM   18  H           1     -22.159  -5.913  -4.374  0.00  0.00     0.275 HD
HETATM   19  H           1     -22.322  -4.954  -5.775  0.00  0.00     0.275 HD
HETATM   20  H           1     -23.287  -6.347  -5.580  0.00  0.00     0.275 HD
ENDBRANCH  13  17
ENDBRANCH   3  13
TORSDOF 8
ENDMDL
MODEL 6
REMARK VINA RESULT:      -4.9      4.807      8.580
REMARK  8 active torsions:
REMARK  status: ('A' for Active; 'I' for Inactive)
REMARK    1  A    between atoms: C_4  and  C_5 
REMARK    2  A    between atoms: C_5  and  C_15 
REMARK    3  A    between atoms: C_5  and  N_11 
REMARK    4  A    between atoms: C_6  and  C_9 
REMARK    5  A    between atoms: C_9  and  C_16 
REMARK    6  A    between atoms: C_9  and  N_20 
REMARK       I    between atoms: N_11  and  C_16 
REMARK    7  A    between atoms: C_12  and  S_13 
REMARK    8  A    between atoms: C_12  and  C_15 
ROOT
HETATM    1  H           1     -22.135  -9.797  -1.825  0.00  0.00     0.163 HD
HETATM    2  N           1     -21.627  -9.509  -0.998  0.00  0.00    -0.345 N 
HETATM    3  C           1     -21.343 -10.421  -0.017  0.00  0.00     0.249 C 
HETATM    4  O           1     -20.737 -10.077   0.970  0.00  0.00    -0.271 OA
ENDROOT
BRANCH   2   5
HETATM    5  C           1     -21.200  -8.130  -0.853  0.00  0.00     0.186 C 
BRANCH   5   6
HETATM    6  C           1     -22.411  -7.244  -0.692  0.00  0.00     0.196 C 
HETATM    7  O           1     -22.513  -6.198  -1.369  0.00  0.00    -0.646 OA
HETATM    8  O           1     -23.310  -7.555   0.117  0.00  0.00    -0.646 OA
ENDBRANCH   5   6
BRANCH   5   9
HETATM    9  C           1     -20.421  -7.708  -2.091  0.00  0.00     0.046 C 
BRANCH   9  10
HETATM   10  C           1     -20.829  -8.582  -3.270  0.00  0.00     0.076 C 
BRANCH  10  11
HETATM   11  S           1     -20.506  -7.695  -4.821  0.00  0.00    -0.173 SA
HETATM   12  C           1     -22.111  -6.853  -4.908  0.00  0.00     0.089 C 
ENDBRANCH  10  11
ENDBRANCH   9  10
ENDBRANCH   5   9
ENDBRANCH   2   5
BRANCH   3  13
HETATM   13  C           1     -21.788 -11.855  -0.168  0.00  0.00     0.278 C 
BRANCH  13  14
HETATM   14  C           1     -23.223 -11.997   0.322  0.00  0.00     0.017 C 
HETATM   15  C           1     -24.153 -12.163  -0.872  0.00  0.00     0.012 C 
HETATM   16  C           1     -23.332 -13.219   1.224  0.00  0.00     0.012 C 
ENDBRANCH  13  14
BRANCH  13  17
HETATM   17  N           1     -20.892 -12.743   0.644  0.00  0.00    -0.066 N 
HETATM   18  H           1     -20.329 -13.348   0.004  0.00  0.00     0.275 HD
HETATM   19  H           1     -20.248 -12.155   1.220  0.00  0.00     0.275 HD
HETATM   20  H           1     -21.472 -13.342   1.273  0.00  0.00     0.275 HD
ENDBRANCH  13  17
ENDBRANCH   3  13
TORSDOF 8
ENDMDL
MODEL 7
REMARK VINA RESULT:      -4.8      4.293      7.280
REMARK  8 active torsions:
REMARK  status: ('A' for Active; 'I' for Inactive)
REMARK    1  A    between atoms: C_4  and  C_5 
REMARK    2  A    between atoms: C_5  and  C_15 
REMARK    3  A    between atoms: C_5  and  N_11 
REMARK    4  A    between atoms: C_6  and  C_9 
REMARK    5  A    between atoms: C_9  and  C_16 
REMARK    6  A    between atoms: C_9  and  N_20 
REMARK       I    between atoms: N_11  and  C_16 
REMARK    7  A    between atoms: C_12  and  S_13 
REMARK    8  A    between atoms: C_12  and  C_15 
ROOT
HETATM    1  H           1     -22.537  -9.100  -2.966  0.00  0.00     0.163 HD
HETATM    2  N           1     -21.651  -8.682  -2.714  0.00  0.00    -0.345 N 
HETATM    3  C           1     -21.031  -9.045  -1.547  0.00  0.00     0.249 C 
HETATM    4  O           1     -19.973  -8.546  -1.245  0.00  0.00    -0.271 OA
ENDROOT
BRANCH   2   5
HETATM    5  C           1     -21.037  -7.700  -3.586  0.00  0.00     0.186 C 
BRANCH   5   6
HETATM    6  C           1     -21.923  -6.482  -3.672  0.00  0.00     0.196 C 
HETATM    7  O           1     -22.379  -5.967  -2.629  0.00  0.00    -0.646 OA
HETATM    8  O           1     -22.201  -5.989  -4.786  0.00  0.00    -0.646 OA
ENDBRANCH   5   6
BRANCH   5   9
HETATM    9  C           1     -20.857  -8.299  -4.975  0.00  0.00     0.046 C 
BRANCH   9  10
HETATM   10  C           1     -19.377  -8.549  -5.232  0.00  0.00     0.076 C 
BRANCH  10  11
HETATM   11  S           1     -18.931 -10.206  -4.641  0.00  0.00    -0.173 SA
HETATM   12  C           1     -17.556  -9.678  -3.581  0.00  0.00     0.089 C 
ENDBRANCH  10  11
ENDBRANCH   9  10
ENDBRANCH   5   9
ENDBRANCH   2   5
BRANCH   3  13
HETATM   13  C           1     -21.670 -10.066  -0.639  0.00  0.00     0.278 C 
BRANCH  13  14
HETATM   14  C           1     -23.152  -9.752  -0.482  0.00  0.00     0.017 C 
HETATM   15  C           1     -23.884 -10.990   0.020  0.00  0.00     0.012 C 
HETATM   16  C           1     -23.326  -8.619   0.520  0.00  0.00     0.012 C 
ENDBRANCH  13  14
BRANCH  13  17
HETATM   17  N           1     -21.005 -10.025   0.705  0.00  0.00    -0.066 N 
HETATM   18  H           1     -20.484  -9.124   0.807  0.00  0.00     0.275 HD
HETATM   19  H           1     -21.729 -10.094   1.455  0.00  0.00     0.275 HD
HETATM   20  H           1     -20.339 -10.825   0.789  0.00  0.00     0.275 HD
ENDBRANCH  13  17
ENDBRANCH   3  13
TORSDOF 8
ENDMDL
MODEL 8
REMARK VINA RESULT:      -4.6      3.185      6.317
REMARK  8 active torsions:
REMARK  status: ('A' for Active; 'I' for Inactive)
REMARK    1  A    between atoms: C_4  and  C_5 
REMARK    2  A    between atoms: C_5  and  C_15 
REMARK    3  A    between atoms: C_5  and  N_11 
REMARK    4  A    between atoms: C_6  and  C_9 
REMARK    5  A    between atoms: C_9  and  C_16 
REMARK    6  A    between atoms: C_9  and  N_20 
REMARK       I    between atoms: N_11  and  C_16 
REMARK    7  A    between atoms: C_12  and  S_13 
REMARK    8  A    between atoms: C_12  and  C_15 
ROOT
HETATM    1  H           1     -22.411  -6.406  -6.111  0.00  0.00     0.163 HD
HETATM    2  N           1     -21.756  -5.635  -6.090  0.00  0.00    -0.345 N 
HETATM    3  C           1     -20.897  -5.496  -5.032  0.00  0.00     0.249 C 
HETATM    4  O           1     -20.115  -4.575  -5.006  0.00  0.00    -0.271 OA
ENDROOT
BRANCH   2   5
HETATM    5  C           1     -21.728  -4.676  -7.177  0.00  0.00     0.186 C 
BRANCH   5   6
HETATM    6  C           1     -23.141  -4.323  -7.572  0.00  0.00     0.196 C 
HETATM    7  O           1     -24.076  -4.488  -6.758  0.00  0.00    -0.646 OA
HETATM    8  O           1     -23.377  -3.867  -8.711  0.00  0.00    -0.646 OA
ENDBRANCH   5   6
BRANCH   5   9
HETATM    9  C           1     -21.003  -5.285  -8.370  0.00  0.00     0.046 C 
BRANCH   9  10
HETATM   10  C           1     -20.229  -4.197  -9.103  0.00  0.00     0.076 C 
BRANCH  10  11
HETATM   11  S           1     -20.341  -4.476 -10.893  0.00  0.00    -0.173 SA
HETATM   12  C           1     -21.249  -2.952 -11.277  0.00  0.00     0.089 C 
ENDBRANCH  10  11
ENDBRANCH   9  10
ENDBRANCH   5   9
ENDBRANCH   2   5
BRANCH   3  13
HETATM   13  C           1     -20.926  -6.493  -3.900  0.00  0.00     0.278 C 
BRANCH  13  14
HETATM   14  C           1     -21.062  -7.901  -4.466  0.00  0.00     0.017 C 
HETATM   15  C           1     -19.722  -8.352  -5.032  0.00  0.00     0.012 C 
HETATM   16  C           1     -21.490  -8.853  -3.357  0.00  0.00     0.012 C 
ENDBRANCH  13  14
BRANCH  13  17
HETATM   17  N           1     -22.093  -6.198  -3.006  0.00  0.00    -0.066 N 
HETATM   18  H           1     -22.980  -6.277  -3.554  0.00  0.00     0.275 HD
HETATM   19  H           1     -22.110  -6.884  -2.218  0.00  0.00     0.275 HD
HETATM   20  H           1     -22.004  -5.230  -2.623  0.00  0.00     0.275 HD
ENDBRANCH  13  17
ENDBRANCH   3  13
TORSDOF 8
ENDMDL
MODEL 9
REMARK VINA RESULT:      -4.5      4.690      7.237
REMARK  8 active torsions:
REMARK  status: ('A' for Active; 'I' for Inactive)
REMARK    1  A    between atoms: C_4  and  C_5 
REMARK    2  A    between atoms: C_5  and  C_15 
REMARK    3  A    between atoms: C_5  and  N_11 
REMARK    4  A    between atoms: C_6  and  C_9 
REMARK    5  A    between atoms: C_9  and  C_16 
REMARK    6  A    between atoms: C_9  and  N_20 
REMARK       I    between atoms: N_11  and  C_16 
REMARK    7  A    between atoms: C_12  and  S_13 
REMARK    8  A    between atoms: C_12  and  C_15 
ROOT
HETATM    1  H           1     -20.166 -10.417  -2.826  0.00  0.00     0.163 HD
HETATM    2  N           1     -20.249  -9.419  -2.968  0.00  0.00    -0.345 N 
HETATM    3  C           1     -20.899  -8.648  -2.041  0.00  0.00     0.249 C 
HETATM    4  O           1     -20.998  -7.455  -2.210  0.00  0.00    -0.271 OA
ENDROOT
BRANCH   2   5
HETATM    5  C           1     -19.680  -8.804  -4.151  0.00  0.00     0.186 C 
BRANCH   5   6
HETATM    6  C           1     -20.589  -9.049  -5.330  0.00  0.00     0.196 C 
HETATM    7  O           1     -21.289  -8.117  -5.782  0.00  0.00    -0.646 OA
HETATM    8  O           1     -20.644 -10.182  -5.854  0.00  0.00    -0.646 OA
ENDBRANCH   5   6
BRANCH   5   9
HETATM    9  C           1     -18.311  -9.412  -4.429  0.00  0.00     0.046 C 
BRANCH   9  10
HETATM   10  C           1     -17.810 -10.127  -3.182  0.00  0.00     0.076 C 
BRANCH  10  11
HETATM   11  S           1     -16.064  -9.714  -2.908  0.00  0.00    -0.173 SA
HETATM   12  C           1     -15.475 -11.424  -2.757  0.00  0.00     0.089 C 
ENDBRANCH  10  11
ENDBRANCH   9  10
ENDBRANCH   5   9
ENDBRANCH   2   5
BRANCH   3  13
HETATM   13  C           1     -21.491  -9.287  -0.809  0.00  0.00     0.278 C 
BRANCH  13  14
HETATM   14  C           1     -21.674  -8.231   0.273  0.00  0.00     0.017 C 
HETATM   15  C           1     -23.160  -8.039   0.550  0.00  0.00     0.012 C 
HETATM   16  C           1     -20.976  -8.686   1.548  0.00  0.00     0.012 C 
ENDBRANCH  13  14
BRANCH  13  17
HETATM   17  N           1     -20.569 -10.360  -0.311  0.00  0.00    -0.066 N 
HETATM   18  H           1     -20.789 -10.570   0.689  0.00  0.00     0.275 HD
HETATM   19  H           1     -20.699 -11.224  -0.884  0.00  0.00     0.275 HD
HETATM   20  H           1     -19.580 -10.034  -0.391  0.00  0.00     0.275 HD
ENDBRANCH  13  17
ENDBRANCH   3  13
TORSDOF 8
ENDMDL
