MODEL 1
REMARK VINA RESULT:      -7.6      0.000      0.000
REMARK  11 active torsions:
REMARK  status: ('A' for Active; 'I' for Inactive)
REMARK    1  A    between atoms: N_5  and  C_18 
REMARK    2  A    between atoms: O_10  and  P_11 
REMARK    3  A    between atoms: P_11  and  O_12 
REMARK    4  A    between atoms: O_12  and  C_13 
REMARK    5  A    between atoms: C_16  and  C_17 
REMARK    6  A    between atoms: C_17  and  C_18 
REMARK    7  A    between atoms: C_18  and  C_19 
REMARK       I    between atoms: C_19  and  N_20 
REMARK    8  A    between atoms: N_20  and  C_24 
REMARK    9  A    between atoms: C_23  and  C_24 
REMARK   10  A    between atoms: C_24  and  C_25 
REMARK   11  A    between atoms: C_25  and  C_27 
REMARK       I    between atoms: N_26  and  C_27 
ROOT
HETATM    1  C           1     -21.162  -5.499  -6.449  0.00  0.00     0.278 C 
ENDROOT
BRANCH   1   2
HETATM    2  N           1     -20.132  -4.866  -5.562  0.00  0.00    -0.066 N 
HETATM    3  H           1     -19.258  -5.440  -5.578  0.00  0.00     0.275 HD
HETATM    4  H           1     -19.921  -3.902  -5.907  0.00  0.00     0.275 HD
HETATM    5  H           1     -20.497  -4.815  -4.584  0.00  0.00     0.275 HD
ENDBRANCH   1   2
BRANCH   1   6
HETATM    6  C           1     -22.351  -5.946  -5.607  0.00  0.00     0.081 C 
BRANCH   6   7
HETATM    7  C           1     -21.862  -6.742  -4.437  0.00  0.00    -0.056 A 
HETATM    8  C           1     -21.947  -6.214  -3.149  0.00  0.00     0.010 A 
HETATM    9  C           1     -21.492  -6.957  -2.059  0.00  0.00     0.038 A 
HETATM   10  C           1     -20.952  -8.227  -2.258  0.00  0.00     0.081 A 
HETATM   11  C           1     -20.867  -8.756  -3.546  0.00  0.00     0.038 A 
HETATM   12  C           1     -21.322  -8.014  -4.635  0.00  0.00     0.010 A 
BRANCH  10  13
HETATM   13  O           1     -20.510  -8.949  -1.200  0.00  0.00    -0.247 OA
BRANCH  13  14
HETATM   14  P           1     -21.602  -9.472  -0.129  0.00  0.00     0.411 P 
HETATM   15  O           1     -21.840  -8.421   0.885  0.00  0.00    -0.624 OA
HETATM   16  O           1     -21.095 -10.693   0.534  0.00  0.00    -0.624 OA
BRANCH  14  17
HETATM   17  O           1     -22.986  -9.808  -0.892  0.00  0.00    -0.300 OA
HETATM   18  H           1     -22.756 -10.454  -1.538  0.00  0.00     0.223 HD
ENDBRANCH  14  17
ENDBRANCH  13  14
ENDBRANCH  10  13
ENDBRANCH   6   7
ENDBRANCH   1   6
BRANCH   1  19
HETATM   19  C           1     -21.623  -4.496  -7.478  0.00  0.00     0.249 C 
HETATM   20  O           1     -21.392  -3.321  -7.320  0.00  0.00    -0.271 OA
HETATM   21  N           1     -22.305  -4.917  -8.587  0.00  0.00    -0.344 N 
HETATM   22  H           1     -22.499  -5.901  -8.718  0.00  0.00     0.163 HD
BRANCH  21  23
HETATM   23  C           1     -22.749  -3.952  -9.575  0.00  0.00     0.194 C 
BRANCH  23  24
HETATM   24  C           1     -24.258  -3.932  -9.613  0.00  0.00     0.197 C 
HETATM   25  O           1     -24.871  -2.851  -9.472  0.00  0.00    -0.646 OA
HETATM   26  O           1     -24.893  -4.994  -9.785  0.00  0.00    -0.646 OA
ENDBRANCH  23  24
BRANCH  23  27
HETATM   27  C           1     -22.213  -4.344 -10.945  0.00  0.00     0.138 C 
BRANCH  27  28
HETATM   28  C           1     -20.738  -4.033 -11.016  0.00  0.00     0.217 C 
HETATM   29  N           1     -20.313  -2.847 -11.552  0.00  0.00    -0.370 N 
HETATM   30  H           1     -19.324  -2.638 -11.599  0.00  0.00     0.159 HD
HETATM   31  H           1     -20.989  -2.178 -11.899  0.00  0.00     0.159 HD
HETATM   32  O           1     -19.931  -4.831 -10.600  0.00  0.00    -0.274 OA
ENDBRANCH  27  28
ENDBRANCH  23  27
ENDBRANCH  21  23
ENDBRANCH   1  19
TORSDOF 11
ENDMDL
MODEL 2
REMARK VINA RESULT:      -7.3      3.571      9.022
REMARK  11 active torsions:
REMARK  status: ('A' for Active; 'I' for Inactive)
REMARK    1  A    between atoms: N_5  and  C_18 
REMARK    2  A    between atoms: O_10  and  P_11 
REMARK    3  A    between atoms: P_11  and  O_12 
REMARK    4  A    between atoms: O_12  and  C_13 
REMARK    5  A    between atoms: C_16  and  C_17 
REMARK    6  A    between atoms: C_17  and  C_18 
REMARK    7  A    between atoms: C_18  and  C_19 
REMARK       I    between atoms: C_19  and  N_20 
REMARK    8  A    between atoms: N_20  and  C_24 
REMARK    9  A    between atoms: C_23  and  C_24 
REMARK   10  A    between atoms: C_24  and  C_25 
REMARK   11  A    between atoms: C_25  and  C_27 
REMARK       I    between atoms: N_26  and  C_27 
ROOT
HETATM    1  C           1     -20.332  -7.513  -4.994  0.00  0.00     0.278 C 
ENDROOT
BRANCH   1   2
HETATM    2  N           1     -21.169  -8.298  -5.961  0.00  0.00    -0.066 N 
HETATM    3  H           1     -20.902  -9.308  -5.914  0.00  0.00     0.275 HD
HETATM    4  H           1     -22.179  -8.194  -5.712  0.00  0.00     0.275 HD
HETATM    5  H           1     -21.009  -7.942  -6.930  0.00  0.00     0.275 HD
ENDBRANCH   1   2
BRANCH   1   6
HETATM    6  C           1     -21.031  -6.198  -4.672  0.00  0.00     0.081 C 
BRANCH   6   7
HETATM    7  C           1     -21.196  -5.400  -5.928  0.00  0.00    -0.056 A 
HETATM    8  C           1     -22.465  -5.223  -6.480  0.00  0.00     0.010 A 
HETATM    9  C           1     -22.618  -4.478  -7.650  0.00  0.00     0.038 A 
HETATM   10  C           1     -21.503  -3.912  -8.267  0.00  0.00     0.081 A 
HETATM   11  C           1     -20.234  -4.090  -7.716  0.00  0.00     0.038 A 
HETATM   12  C           1     -20.081  -4.834  -6.547  0.00  0.00     0.010 A 
BRANCH  10  13
HETATM   13  O           1     -21.652  -3.189  -9.404  0.00  0.00    -0.247 OA
BRANCH  13  14
HETATM   14  P           1     -21.493  -3.957 -10.817  0.00  0.00     0.411 P 
HETATM   15  O           1     -22.668  -4.827 -11.040  0.00  0.00    -0.624 OA
HETATM   16  O           1     -20.265  -4.781 -10.794  0.00  0.00    -0.624 OA
BRANCH  14  17
HETATM   17  O           1     -21.392  -2.873 -12.010  0.00  0.00    -0.300 OA
HETATM   18  H           1     -22.285  -2.657 -12.219  0.00  0.00     0.223 HD
ENDBRANCH  14  17
ENDBRANCH  13  14
ENDBRANCH  10  13
ENDBRANCH   6   7
ENDBRANCH   1   6
BRANCH   1  19
HETATM   19  C           1     -20.151  -8.311  -3.726  0.00  0.00     0.249 C 
HETATM   20  O           1     -19.131  -8.933  -3.545  0.00  0.00    -0.271 OA
HETATM   21  N           1     -21.142  -8.330  -2.782  0.00  0.00    -0.344 N 
HETATM   22  H           1     -21.996  -7.809  -2.935  0.00  0.00     0.163 HD
BRANCH  21  23
HETATM   23  C           1     -20.968  -9.097  -1.564  0.00  0.00     0.194 C 
BRANCH  23  24
HETATM   24  C           1     -22.021 -10.177  -1.496  0.00  0.00     0.197 C 
HETATM   25  O           1     -22.291 -10.717  -0.402  0.00  0.00    -0.646 OA
HETATM   26  O           1     -22.621 -10.531  -2.534  0.00  0.00    -0.646 OA
ENDBRANCH  23  24
BRANCH  23  27
HETATM   27  C           1     -21.108  -8.177  -0.359  0.00  0.00     0.138 C 
BRANCH  27  28
HETATM   28  C           1     -22.458  -7.505  -0.393  0.00  0.00     0.217 C 
HETATM   29  N           1     -23.444  -7.906   0.469  0.00  0.00    -0.370 N 
HETATM   30  H           1     -24.349  -7.455   0.447  0.00  0.00     0.159 HD
HETATM   31  H           1     -23.265  -8.652   1.129  0.00  0.00     0.159 HD
HETATM   32  O           1     -22.671  -6.614  -1.180  0.00  0.00    -0.274 OA
ENDBRANCH  27  28
ENDBRANCH  23  27
ENDBRANCH  21  23
ENDBRANCH   1  19
TORSDOF 11
ENDMDL
MODEL 3
REMARK VINA RESULT:      -7.3      3.673      8.815
REMARK  11 active torsions:
REMARK  status: ('A' for Active; 'I' for Inactive)
REMARK    1  A    between atoms: N_5  and  C_18 
REMARK    2  A    between atoms: O_10  and  P_11 
REMARK    3  A    between atoms: P_11  and  O_12 
REMARK    4  A    between atoms: O_12  and  C_13 
REMARK    5  A    between atoms: C_16  and  C_17 
REMARK    6  A    between atoms: C_17  and  C_18 
REMARK    7  A    between atoms: C_18  and  C_19 
REMARK       I    between atoms: C_19  and  N_20 
REMARK    8  A    between atoms: N_20  and  C_24 
REMARK    9  A    between atoms: C_23  and  C_24 
REMARK   10  A    between atoms: C_24  and  C_25 
REMARK   11  A    between atoms: C_25  and  C_27 
REMARK       I    between atoms: N_26  and  C_27 
ROOT
HETATM    1  C           1     -21.577  -6.442  -4.844  0.00  0.00     0.278 C 
ENDROOT
BRANCH   1   2
HETATM    2  N           1     -21.894  -5.959  -3.459  0.00  0.00    -0.066 N 
HETATM    3  H           1     -21.340  -6.507  -2.762  0.00  0.00     0.275 HD
HETATM    4  H           1     -21.648  -4.947  -3.379  0.00  0.00     0.275 HD
HETATM    5  H           1     -22.913  -6.087  -3.270  0.00  0.00     0.275 HD
ENDBRANCH   1   2
BRANCH   1   6
HETATM    6  C           1     -20.520  -5.538  -5.466  0.00  0.00     0.081 C 
BRANCH   6   7
HETATM    7  C           1     -21.008  -5.039  -6.791  0.00  0.00    -0.056 A 
HETATM    8  C           1     -20.192  -5.142  -7.918  0.00  0.00     0.010 A 
HETATM    9  C           1     -20.647  -4.678  -9.152  0.00  0.00     0.038 A 
HETATM   10  C           1     -21.916  -4.109  -9.259  0.00  0.00     0.081 A 
HETATM   11  C           1     -22.731  -4.004  -8.132  0.00  0.00     0.038 A 
HETATM   12  C           1     -22.277  -4.469  -6.898  0.00  0.00     0.010 A 
BRANCH  10  13
HETATM   13  O           1     -22.358  -3.658 -10.458  0.00  0.00    -0.247 OA
BRANCH  13  14
HETATM   14  P           1     -23.702  -4.316 -11.068  0.00  0.00     0.411 P 
HETATM   15  O           1     -24.821  -3.357 -10.940  0.00  0.00    -0.624 OA
HETATM   16  O           1     -24.024  -5.554 -10.326  0.00  0.00    -0.624 OA
BRANCH  14  17
HETATM   17  O           1     -23.470  -4.667 -12.627  0.00  0.00    -0.300 OA
HETATM   18  H           1     -23.473  -3.834 -13.067  0.00  0.00     0.223 HD
ENDBRANCH  14  17
ENDBRANCH  13  14
ENDBRANCH  10  13
ENDBRANCH   6   7
ENDBRANCH   1   6
BRANCH   1  19
HETATM   19  C           1     -21.052  -7.855  -4.774  0.00  0.00     0.249 C 
HETATM   20  O           1     -20.313  -8.267  -5.637  0.00  0.00    -0.271 OA
HETATM   21  N           1     -21.413  -8.669  -3.735  0.00  0.00    -0.344 N 
HETATM   22  H           1     -22.032  -8.323  -3.013  0.00  0.00     0.163 HD
BRANCH  21  23
HETATM   23  C           1     -20.910 -10.027  -3.669  0.00  0.00     0.194 C 
BRANCH  23  24
HETATM   24  C           1     -21.990 -10.985  -4.110  0.00  0.00     0.197 C 
HETATM   25  O           1     -21.898 -11.564  -5.214  0.00  0.00    -0.646 OA
HETATM   26  O           1     -22.976 -11.197  -3.372  0.00  0.00    -0.646 OA
ENDBRANCH  23  24
BRANCH  23  27
HETATM   27  C           1     -20.501 -10.349  -2.238  0.00  0.00     0.138 C 
BRANCH  27  28
HETATM   28  C           1     -21.159  -9.372  -1.295  0.00  0.00     0.217 C 
HETATM   29  N           1     -22.351  -9.691  -0.702  0.00  0.00    -0.370 N 
HETATM   30  H           1     -22.792  -9.036  -0.069  0.00  0.00     0.159 HD
HETATM   31  H           1     -22.790 -10.582  -0.896  0.00  0.00     0.159 HD
HETATM   32  O           1     -20.634  -8.309  -1.063  0.00  0.00    -0.274 OA
ENDBRANCH  27  28
ENDBRANCH  23  27
ENDBRANCH  21  23
ENDBRANCH   1  19
TORSDOF 11
ENDMDL
MODEL 4
REMARK VINA RESULT:      -7.2      3.769      8.464
REMARK  11 active torsions:
REMARK  status: ('A' for Active; 'I' for Inactive)
REMARK    1  A    between atoms: N_5  and  C_18 
REMARK    2  A    between atoms: O_10  and  P_11 
REMARK    3  A    between atoms: P_11  and  O_12 
REMARK    4  A    between atoms: O_12  and  C_13 
REMARK    5  A    between atoms: C_16  and  C_17 
REMARK    6  A    between atoms: C_17  and  C_18 
REMARK    7  A    between atoms: C_18  and  C_19 
REMARK       I    between atoms: C_19  and  N_20 
REMARK    8  A    between atoms: N_20  and  C_24 
REMARK    9  A    between atoms: C_23  and  C_24 
REMARK   10  A    between atoms: C_24  and  C_25 
REMARK   11  A    between atoms: C_25  and  C_27 
REMARK       I    between atoms: N_26  and  C_27 
ROOT
HETATM    1  C           1     -21.428  -6.182  -4.823  0.00  0.00     0.278 C 
ENDROOT
BRANCH   1   2
HETATM    2  N           1     -21.511  -5.902  -3.352  0.00  0.00    -0.066 N 
HETATM    3  H           1     -20.618  -6.188  -2.890  0.00  0.00     0.275 HD
HETATM    4  H           1     -21.668  -4.879  -3.200  0.00  0.00     0.275 HD
HETATM    5  H           1     -22.304  -6.442  -2.938  0.00  0.00     0.275 HD
ENDBRANCH   1   2
BRANCH   1   6
HETATM    6  C           1     -20.438  -5.220  -5.467  0.00  0.00     0.081 C 
BRANCH   6   7
HETATM    7  C           1     -20.947  -4.806  -6.813  0.00  0.00    -0.056 A 
HETATM    8  C           1     -20.096  -4.835  -7.919  0.00  0.00     0.010 A 
HETATM    9  C           1     -20.571  -4.450  -9.173  0.00  0.00     0.038 A 
HETATM   10  C           1     -21.895  -4.036  -9.321  0.00  0.00     0.081 A 
HETATM   11  C           1     -22.745  -4.007  -8.215  0.00  0.00     0.038 A 
HETATM   12  C           1     -22.271  -4.392  -6.962  0.00  0.00     0.010 A 
BRANCH  10  13
HETATM   13  O           1     -22.356  -3.662 -10.539  0.00  0.00    -0.247 OA
BRANCH  13  14
HETATM   14  P           1     -23.736  -4.320 -11.063  0.00  0.00     0.411 P 
HETATM   15  O           1     -24.012  -5.557 -10.299  0.00  0.00    -0.624 OA
HETATM   16  O           1     -23.612  -4.644 -12.501  0.00  0.00    -0.624 OA
BRANCH  14  17
HETATM   17  O           1     -24.947  -3.274 -10.848  0.00  0.00    -0.300 OA
HETATM   18  H           1     -24.697  -2.509 -11.339  0.00  0.00     0.223 HD
ENDBRANCH  14  17
ENDBRANCH  13  14
ENDBRANCH  10  13
ENDBRANCH   6   7
ENDBRANCH   1   6
BRANCH   1  19
HETATM   19  C           1     -20.963  -7.601  -5.038  0.00  0.00     0.249 C 
HETATM   20  O           1     -21.268  -8.190  -6.047  0.00  0.00    -0.271 OA
HETATM   21  N           1     -20.196  -8.221  -4.088  0.00  0.00    -0.344 N 
HETATM   22  H           1     -19.941  -7.727  -3.243  0.00  0.00     0.163 HD
BRANCH  21  23
HETATM   23  C           1     -19.750  -9.585  -4.294  0.00  0.00     0.194 C 
BRANCH  23  24
HETATM   24  C           1     -20.375 -10.480  -3.252  0.00  0.00     0.197 C 
HETATM   25  O           1     -21.191 -10.007  -2.431  0.00  0.00    -0.646 OA
HETATM   26  O           1     -20.077 -11.693  -3.209  0.00  0.00    -0.646 OA
ENDBRANCH  23  24
BRANCH  23  27
HETATM   27  C           1     -18.234  -9.648  -4.172  0.00  0.00     0.138 C 
BRANCH  27  28
HETATM   28  C           1     -17.622  -9.768  -5.546  0.00  0.00     0.217 C 
HETATM   29  N           1     -16.434 -10.428  -5.711  0.00  0.00    -0.370 N 
HETATM   30  H           1     -16.024 -10.508  -6.632  0.00  0.00     0.159 HD
HETATM   31  H           1     -15.966 -10.836  -4.911  0.00  0.00     0.159 HD
HETATM   32  O           1     -18.180  -9.281  -6.501  0.00  0.00    -0.274 OA
ENDBRANCH  27  28
ENDBRANCH  23  27
ENDBRANCH  21  23
ENDBRANCH   1  19
TORSDOF 11
ENDMDL
MODEL 5
REMARK VINA RESULT:      -7.2      1.603      2.773
REMARK  11 active torsions:
REMARK  status: ('A' for Active; 'I' for Inactive)
REMARK    1  A    between atoms: N_5  and  C_18 
REMARK    2  A    between atoms: O_10  and  P_11 
REMARK    3  A    between atoms: P_11  and  O_12 
REMARK    4  A    between atoms: O_12  and  C_13 
REMARK    5  A    between atoms: C_16  and  C_17 
REMARK    6  A    between atoms: C_17  and  C_18 
REMARK    7  A    between atoms: C_18  and  C_19 
REMARK       I    between atoms: C_19  and  N_20 
REMARK    8  A    between atoms: N_20  and  C_24 
REMARK    9  A    between atoms: C_23  and  C_24 
REMARK   10  A    between atoms: C_24  and  C_25 
REMARK   11  A    between atoms: C_25  and  C_27 
REMARK       I    between atoms: N_26  and  C_27 
ROOT
HETATM    1  C           1     -20.121  -5.294  -7.007  0.00  0.00     0.278 C 
ENDROOT
BRANCH   1   2
HETATM    2  N           1     -18.918  -4.473  -7.366  0.00  0.00    -0.066 N 
HETATM    3  H           1     -18.649  -4.662  -8.358  0.00  0.00     0.275 HD
HETATM    4  H           1     -19.142  -3.459  -7.254  0.00  0.00     0.275 HD
HETATM    5  H           1     -18.122  -4.726  -6.736  0.00  0.00     0.275 HD
ENDBRANCH   1   2
BRANCH   1   6
HETATM    6  C           1     -20.604  -4.903  -5.616  0.00  0.00     0.081 C 
BRANCH   6   7
HETATM    7  C           1     -20.900  -6.140  -4.824  0.00  0.00    -0.056 A 
HETATM    8  C           1     -21.229  -6.040  -3.473  0.00  0.00     0.010 A 
HETATM    9  C           1     -21.505  -7.193  -2.736  0.00  0.00     0.038 A 
HETATM   10  C           1     -21.451  -8.443  -3.351  0.00  0.00     0.081 A 
HETATM   11  C           1     -21.121  -8.543  -4.703  0.00  0.00     0.038 A 
HETATM   12  C           1     -20.845  -7.391  -5.439  0.00  0.00     0.010 A 
BRANCH  10  13
HETATM   13  O           1     -21.718  -9.562  -2.635  0.00  0.00    -0.247 OA
BRANCH  13  14
HETATM   14  P           1     -20.576 -10.113  -1.634  0.00  0.00     0.411 P 
HETATM   15  O           1     -19.246  -9.687  -2.123  0.00  0.00    -0.624 OA
HETATM   16  O           1     -20.634 -11.591  -1.586  0.00  0.00    -0.624 OA
BRANCH  14  17
HETATM   17  O           1     -20.822  -9.516  -0.154  0.00  0.00    -0.300 OA
HETATM   18  H           1     -20.121  -9.867   0.369  0.00  0.00     0.223 HD
ENDBRANCH  14  17
ENDBRANCH  13  14
ENDBRANCH  10  13
ENDBRANCH   6   7
ENDBRANCH   1   6
BRANCH   1  19
HETATM   19  C           1     -21.218  -5.040  -8.011  0.00  0.00     0.249 C 
HETATM   20  O           1     -22.361  -5.327  -7.742  0.00  0.00    -0.271 OA
HETATM   21  N           1     -20.920  -4.485  -9.226  0.00  0.00    -0.344 N 
HETATM   22  H           1     -19.963  -4.245  -9.450  0.00  0.00     0.163 HD
BRANCH  21  23
HETATM   23  C           1     -21.974  -4.242 -10.191  0.00  0.00     0.194 C 
BRANCH  23  24
HETATM   24  C           1     -21.385  -3.615 -11.431  0.00  0.00     0.197 C 
HETATM   25  O           1     -20.342  -2.930 -11.349  0.00  0.00    -0.646 OA
HETATM   26  O           1     -21.940  -3.779 -12.539  0.00  0.00    -0.646 OA
ENDBRANCH  23  24
BRANCH  23  27
HETATM   27  C           1     -23.007  -3.300  -9.588  0.00  0.00     0.138 C 
BRANCH  27  28
HETATM   28  C           1     -24.386  -3.699 -10.054  0.00  0.00     0.217 C 
HETATM   29  N           1     -25.030  -4.753  -9.463  0.00  0.00    -0.370 N 
HETATM   30  H           1     -25.954  -5.020  -9.774  0.00  0.00     0.159 HD
HETATM   31  H           1     -24.581  -5.263  -8.712  0.00  0.00     0.159 HD
HETATM   32  O           1     -24.922  -3.090 -10.949  0.00  0.00    -0.274 OA
ENDBRANCH  27  28
ENDBRANCH  23  27
ENDBRANCH  21  23
ENDBRANCH   1  19
TORSDOF 11
ENDMDL
MODEL 6
REMARK VINA RESULT:      -6.8      3.648      8.846
REMARK  11 active torsions:
REMARK  status: ('A' for Active; 'I' for Inactive)
REMARK    1  A    between atoms: N_5  and  C_18 
REMARK    2  A    between atoms: O_10  and  P_11 
REMARK    3  A    between atoms: P_11  and  O_12 
REMARK    4  A    between atoms: O_12  and  C_13 
REMARK    5  A    between atoms: C_16  and  C_17 
REMARK    6  A    between atoms: C_17  and  C_18 
REMARK    7  A    between atoms: C_18  and  C_19 
REMARK       I    between atoms: C_19  and  N_20 
REMARK    8  A    between atoms: N_20  and  C_24 
REMARK    9  A    between atoms: C_23  and  C_24 
REMARK   10  A    between atoms: C_24  and  C_25 
REMARK   11  A    between atoms: C_25  and  C_27 
REMARK       I    between atoms: N_26  and  C_27 
ROOT
HETATM    1  C           1     -21.574  -6.733  -4.546  0.00  0.00     0.278 C 
ENDROOT
BRANCH   1   2
HETATM    2  N           1     -21.405  -5.928  -3.291  0.00  0.00    -0.066 N 
HETATM    3  H           1     -21.095  -6.554  -2.513  0.00  0.00     0.275 HD
HETATM    4  H           1     -20.685  -5.186  -3.448  0.00  0.00     0.275 HD
HETATM    5  H           1     -22.315  -5.482  -3.037  0.00  0.00     0.275 HD
ENDBRANCH   1   2
BRANCH   1   6
HETATM    6  C           1     -20.467  -6.377  -5.530  0.00  0.00     0.081 C 
BRANCH   6   7
HETATM    7  C           1     -21.043  -5.590  -6.666  0.00  0.00    -0.056 A 
HETATM    8  C           1     -20.298  -5.398  -7.829  0.00  0.00     0.010 A 
HETATM    9  C           1     -20.835  -4.664  -8.888  0.00  0.00     0.038 A 
HETATM   10  C           1     -22.116  -4.123  -8.782  0.00  0.00     0.081 A 
HETATM   11  C           1     -22.861  -4.314  -7.618  0.00  0.00     0.038 A 
HETATM   12  C           1     -22.324  -5.047  -6.560  0.00  0.00     0.010 A 
BRANCH  10  13
HETATM   13  O           1     -22.637  -3.411  -9.810  0.00  0.00    -0.247 OA
BRANCH  13  14
HETATM   14  P           1     -23.653  -4.163 -10.816  0.00  0.00     0.411 P 
HETATM   15  O           1     -24.861  -3.331 -11.010  0.00  0.00    -0.624 OA
HETATM   16  O           1     -24.041  -5.469 -10.238  0.00  0.00    -0.624 OA
BRANCH  14  17
HETATM   17  O           1     -22.927  -4.398 -12.240  0.00  0.00    -0.300 OA
HETATM   18  H           1     -23.033  -3.584 -12.703  0.00  0.00     0.223 HD
ENDBRANCH  14  17
ENDBRANCH  13  14
ENDBRANCH  10  13
ENDBRANCH   6   7
ENDBRANCH   1   6
BRANCH   1  19
HETATM   19  C           1     -21.498  -8.202  -4.212  0.00  0.00     0.249 C 
HETATM   20  O           1     -21.625  -9.027  -5.086  0.00  0.00    -0.271 OA
HETATM   21  N           1     -21.287  -8.601  -2.920  0.00  0.00    -0.344 N 
HETATM   22  H           1     -21.182  -7.910  -2.188  0.00  0.00     0.163 HD
BRANCH  21  23
HETATM   23  C           1     -21.216 -10.013  -2.600  0.00  0.00     0.194 C 
BRANCH  23  24
HETATM   24  C           1     -22.431 -10.408  -1.796  0.00  0.00     0.197 C 
HETATM   25  O           1     -22.534 -10.049  -0.603  0.00  0.00    -0.646 OA
HETATM   26  O           1     -23.333 -11.094  -2.322  0.00  0.00    -0.646 OA
ENDBRANCH  23  24
BRANCH  23  27
HETATM   27  C           1     -19.959 -10.286  -1.785  0.00  0.00     0.138 C 
BRANCH  27  28
HETATM   28  C           1     -18.752 -10.238  -2.689  0.00  0.00     0.217 C 
HETATM   29  N           1     -18.192 -11.401  -3.146  0.00  0.00    -0.370 N 
HETATM   30  H           1     -17.383 -11.368  -3.753  0.00  0.00     0.159 HD
HETATM   31  H           1     -18.589 -12.292  -2.878  0.00  0.00     0.159 HD
HETATM   32  O           1     -18.279  -9.173  -3.010  0.00  0.00    -0.274 OA
ENDBRANCH  27  28
ENDBRANCH  23  27
ENDBRANCH  21  23
ENDBRANCH   1  19
TORSDOF 11
ENDMDL
MODEL 7
REMARK VINA RESULT:      -6.8      3.782      9.142
REMARK  11 active torsions:
REMARK  status: ('A' for Active; 'I' for Inactive)
REMARK    1  A    between atoms: N_5  and  C_18 
REMARK    2  A    between atoms: O_10  and  P_11 
REMARK    3  A    between atoms: P_11  and  O_12 
REMARK    4  A    between atoms: O_12  and  C_13 
REMARK    5  A    between atoms: C_16  and  C_17 
REMARK    6  A    between atoms: C_17  and  C_18 
REMARK    7  A    between atoms: C_18  and  C_19 
REMARK       I    between atoms: C_19  and  N_20 
REMARK    8  A    between atoms: N_20  and  C_24 
REMARK    9  A    between atoms: C_23  and  C_24 
REMARK   10  A    between atoms: C_24  and  C_25 
REMARK   11  A    between atoms: C_25  and  C_27 
REMARK       I    between atoms: N_26  and  C_27 
ROOT
HETATM    1  C           1     -21.780  -6.850  -3.712  0.00  0.00     0.278 C 
ENDROOT
BRANCH   1   2
HETATM    2  N           1     -22.102  -5.952  -2.555  0.00  0.00    -0.066 N 
HETATM    3  H           1     -22.553  -6.509  -1.795  0.00  0.00     0.275 HD
HETATM    4  H           1     -21.221  -5.521  -2.193  0.00  0.00     0.275 HD
HETATM    5  H           1     -22.755  -5.199  -2.868  0.00  0.00     0.275 HD
ENDBRANCH   1   2
BRANCH   1   6
HETATM    6  C           1     -20.563  -6.308  -4.451  0.00  0.00     0.081 C 
BRANCH   6   7
HETATM    7  C           1     -21.013  -5.500  -5.629  0.00  0.00    -0.056 A 
HETATM    8  C           1     -20.119  -4.641  -6.268  0.00  0.00     0.010 A 
HETATM    9  C           1     -20.539  -3.888  -7.365  0.00  0.00     0.038 A 
HETATM   10  C           1     -21.852  -3.994  -7.822  0.00  0.00     0.081 A 
HETATM   11  C           1     -22.747  -4.853  -7.183  0.00  0.00     0.038 A 
HETATM   12  C           1     -22.327  -5.605  -6.086  0.00  0.00     0.010 A 
BRANCH  10  13
HETATM   13  O           1     -22.260  -3.263  -8.887  0.00  0.00    -0.247 OA
BRANCH  13  14
HETATM   14  P           1     -22.161  -3.937 -10.353  0.00  0.00     0.411 P 
HETATM   15  O           1     -20.855  -4.618 -10.494  0.00  0.00    -0.624 OA
HETATM   16  O           1     -22.286  -2.887 -11.387  0.00  0.00    -0.624 OA
BRANCH  14  17
HETATM   17  O           1     -23.351  -5.015 -10.532  0.00  0.00    -0.300 OA
HETATM   18  H           1     -23.948  -4.617 -11.143  0.00  0.00     0.223 HD
ENDBRANCH  14  17
ENDBRANCH  13  14
ENDBRANCH  10  13
ENDBRANCH   6   7
ENDBRANCH   1   6
BRANCH   1  19
HETATM   19  C           1     -21.481  -8.238  -3.202  0.00  0.00     0.249 C 
HETATM   20  O           1     -20.740  -8.963  -3.822  0.00  0.00    -0.271 OA
HETATM   21  N           1     -22.051  -8.676  -2.037  0.00  0.00    -0.344 N 
HETATM   22  H           1     -22.671  -8.069  -1.518  0.00  0.00     0.163 HD
BRANCH  21  23
HETATM   23  C           1     -21.764 -10.011  -1.547  0.00  0.00     0.194 C 
BRANCH  23  24
HETATM   24  C           1     -22.837 -10.961  -2.022  0.00  0.00     0.197 C 
HETATM   25  O           1     -22.650 -11.652  -3.046  0.00  0.00    -0.646 OA
HETATM   26  O           1     -23.912 -11.055  -1.391  0.00  0.00    -0.646 OA
ENDBRANCH  23  24
BRANCH  23  27
HETATM   27  C           1     -21.737  -9.998  -0.024  0.00  0.00     0.138 C 
BRANCH  27  28
HETATM   28  C           1     -22.320  -8.700   0.479  0.00  0.00     0.217 C 
HETATM   29  N           1     -23.677  -8.557   0.590  0.00  0.00    -0.370 N 
HETATM   30  H           1     -24.068  -7.688   0.929  0.00  0.00     0.159 HD
HETATM   31  H           1     -24.288  -9.323   0.335  0.00  0.00     0.159 HD
HETATM   32  O           1     -21.589  -7.788   0.784  0.00  0.00    -0.274 OA
ENDBRANCH  27  28
ENDBRANCH  23  27
ENDBRANCH  21  23
ENDBRANCH   1  19
TORSDOF 11
ENDMDL
MODEL 8
REMARK VINA RESULT:      -6.7      3.514      9.284
REMARK  11 active torsions:
REMARK  status: ('A' for Active; 'I' for Inactive)
REMARK    1  A    between atoms: N_5  and  C_18 
REMARK    2  A    between atoms: O_10  and  P_11 
REMARK    3  A    between atoms: P_11  and  O_12 
REMARK    4  A    between atoms: O_12  and  C_13 
REMARK    5  A    between atoms: C_16  and  C_17 
REMARK    6  A    between atoms: C_17  and  C_18 
REMARK    7  A    between atoms: C_18  and  C_19 
REMARK       I    between atoms: C_19  and  N_20 
REMARK    8  A    between atoms: N_20  and  C_24 
REMARK    9  A    between atoms: C_23  and  C_24 
REMARK   10  A    between atoms: C_24  and  C_25 
REMARK   11  A    between atoms: C_25  and  C_27 
REMARK       I    between atoms: N_26  and  C_27 
ROOT
HETATM    1  C           1     -21.550  -6.713  -4.779  0.00  0.00     0.278 C 
ENDROOT
BRANCH   1   2
HETATM    2  N           1     -22.985  -6.290  -4.897  0.00  0.00    -0.066 N 
HETATM    3  H           1     -23.199  -5.572  -4.168  0.00  0.00     0.275 HD
HETATM    4  H           1     -23.151  -5.884  -5.845  0.00  0.00     0.275 HD
HETATM    5  H           1     -23.605  -7.120  -4.759  0.00  0.00     0.275 HD
ENDBRANCH   1   2
BRANCH   1   6
HETATM    6  C           1     -20.646  -5.540  -5.137  0.00  0.00     0.081 C 
BRANCH   6   7
HETATM    7  C           1     -20.962  -5.072  -6.524  0.00  0.00    -0.056 A 
HETATM    8  C           1     -21.989  -4.151  -6.732  0.00  0.00     0.010 A 
HETATM    9  C           1     -22.282  -3.715  -8.024  0.00  0.00     0.038 A 
HETATM   10  C           1     -21.549  -4.199  -9.107  0.00  0.00     0.081 A 
HETATM   11  C           1     -20.523  -5.120  -8.899  0.00  0.00     0.038 A 
HETATM   12  C           1     -20.229  -5.557  -7.608  0.00  0.00     0.010 A 
BRANCH  10  13
HETATM   13  O           1     -21.835  -3.775 -10.362  0.00  0.00    -0.247 OA
BRANCH  13  14
HETATM   14  P           1     -23.282  -4.148 -10.978  0.00  0.00     0.411 P 
HETATM   15  O           1     -23.136  -4.480 -12.412  0.00  0.00    -0.624 OA
HETATM   16  O           1     -24.193  -2.992 -10.828  0.00  0.00    -0.624 OA
BRANCH  14  17
HETATM   17  O           1     -23.891  -5.419 -10.190  0.00  0.00    -0.300 OA
HETATM   18  H           1     -23.436  -5.434  -9.364  0.00  0.00     0.223 HD
ENDBRANCH  14  17
ENDBRANCH  13  14
ENDBRANCH  10  13
ENDBRANCH   6   7
ENDBRANCH   1   6
BRANCH   1  19
HETATM   19  C           1     -21.271  -7.149  -3.361  0.00  0.00     0.249 C 
HETATM   20  O           1     -21.168  -6.323  -2.485  0.00  0.00    -0.271 OA
HETATM   21  N           1     -21.133  -8.479  -3.069  0.00  0.00    -0.344 N 
HETATM   22  H           1     -21.219  -9.169  -3.803  0.00  0.00     0.163 HD
BRANCH  21  23
HETATM   23  C           1     -20.863  -8.897  -1.707  0.00  0.00     0.194 C 
BRANCH  23  24
HETATM   24  C           1     -19.960 -10.107  -1.724  0.00  0.00     0.197 C 
HETATM   25  O           1     -18.796 -10.011  -2.170  0.00  0.00    -0.646 OA
HETATM   26  O           1     -20.377 -11.204  -1.293  0.00  0.00    -0.646 OA
ENDBRANCH  23  24
BRANCH  23  27
HETATM   27  C           1     -22.172  -9.252  -1.016  0.00  0.00     0.138 C 
BRANCH  27  28
HETATM   28  C           1     -22.327  -8.413   0.229  0.00  0.00     0.217 C 
HETATM   29  N           1     -23.575  -8.040   0.652  0.00  0.00    -0.370 N 
HETATM   30  H           1     -23.679  -7.479   1.487  0.00  0.00     0.159 HD
HETATM   31  H           1     -24.393  -8.328   0.129  0.00  0.00     0.159 HD
HETATM   32  O           1     -21.351  -8.071   0.853  0.00  0.00    -0.274 OA
ENDBRANCH  27  28
ENDBRANCH  23  27
ENDBRANCH  21  23
ENDBRANCH   1  19
TORSDOF 11
ENDMDL
MODEL 9
REMARK VINA RESULT:      -6.5      3.726      9.362
REMARK  11 active torsions:
REMARK  status: ('A' for Active; 'I' for Inactive)
REMARK    1  A    between atoms: N_5  and  C_18 
REMARK    2  A    between atoms: O_10  and  P_11 
REMARK    3  A    between atoms: P_11  and  O_12 
REMARK    4  A    between atoms: O_12  and  C_13 
REMARK    5  A    between atoms: C_16  and  C_17 
REMARK    6  A    between atoms: C_17  and  C_18 
REMARK    7  A    between atoms: C_18  and  C_19 
REMARK       I    between atoms: C_19  and  N_20 
REMARK    8  A    between atoms: N_20  and  C_24 
REMARK    9  A    between atoms: C_23  and  C_24 
REMARK   10  A    between atoms: C_24  and  C_25 
REMARK   11  A    between atoms: C_25  and  C_27 
REMARK       I    between atoms: N_26  and  C_27 
ROOT
HETATM    1  C           1     -20.305  -7.411  -5.311  0.00  0.00     0.278 C 
ENDROOT
BRANCH   1   2
HETATM    2  N           1     -21.341  -8.224  -6.029  0.00  0.00    -0.066 N 
HETATM    3  H           1     -21.889  -8.783  -5.336  0.00  0.00     0.275 HD
HETATM    4  H           1     -21.986  -7.586  -6.548  0.00  0.00     0.275 HD
HETATM    5  H           1     -20.872  -8.870  -6.703  0.00  0.00     0.275 HD
ENDBRANCH   1   2
BRANCH   1   6
HETATM    6  C           1     -20.834  -5.999  -5.089  0.00  0.00     0.081 C 
BRANCH   6   7
HETATM    7  C           1     -21.134  -5.365  -6.412  0.00  0.00    -0.056 A 
HETATM    8  C           1     -22.381  -4.784  -6.641  0.00  0.00     0.010 A 
HETATM    9  C           1     -22.660  -4.193  -7.874  0.00  0.00     0.038 A 
HETATM   10  C           1     -21.691  -4.183  -8.877  0.00  0.00     0.081 A 
HETATM   11  C           1     -20.444  -4.765  -8.649  0.00  0.00     0.038 A 
HETATM   12  C           1     -20.165  -5.355  -7.417  0.00  0.00     0.010 A 
BRANCH  10  13
HETATM   13  O           1     -21.962  -3.609 -10.074  0.00  0.00    -0.247 OA
BRANCH  13  14
HETATM   14  P           1     -23.248  -4.140 -10.896  0.00  0.00     0.411 P 
HETATM   15  O           1     -24.321  -3.124 -10.842  0.00  0.00    -0.624 OA
HETATM   16  O           1     -23.731  -5.402 -10.293  0.00  0.00    -0.624 OA
BRANCH  14  17
HETATM   17  O           1     -22.833  -4.403 -12.435  0.00  0.00    -0.300 OA
HETATM   18  H           1     -22.620  -3.551 -12.778  0.00  0.00     0.223 HD
ENDBRANCH  14  17
ENDBRANCH  13  14
ENDBRANCH  10  13
ENDBRANCH   6   7
ENDBRANCH   1   6
BRANCH   1  19
HETATM   19  C           1     -20.002  -8.049  -3.978  0.00  0.00     0.249 C 
HETATM   20  O           1     -20.588  -7.684  -2.986  0.00  0.00    -0.271 OA
HETATM   21  N           1     -19.063  -9.041  -3.892  0.00  0.00    -0.344 N 
HETATM   22  H           1     -18.572  -9.346  -4.722  0.00  0.00     0.163 HD
BRANCH  21  23
HETATM   23  C           1     -18.771  -9.653  -2.610  0.00  0.00     0.194 C 
BRANCH  23  24
HETATM   24  C           1     -17.308 -10.023  -2.553  0.00  0.00     0.197 C 
HETATM   25  O           1     -16.446  -9.225  -2.980  0.00  0.00    -0.646 OA
HETATM   26  O           1     -16.960 -11.126  -2.078  0.00  0.00    -0.646 OA
ENDBRANCH  23  24
BRANCH  23  27
HETATM   27  C           1     -19.617 -10.908  -2.442  0.00  0.00     0.138 C 
BRANCH  27  28
HETATM   28  C           1     -20.356 -10.844  -1.128  0.00  0.00     0.217 C 
HETATM   29  N           1     -21.132  -9.755  -0.831  0.00  0.00    -0.370 N 
HETATM   30  H           1     -21.628  -9.713   0.049  0.00  0.00     0.159 HD
HETATM   31  H           1     -21.209  -8.994  -1.494  0.00  0.00     0.159 HD
HETATM   32  O           1     -20.264 -11.754  -0.338  0.00  0.00    -0.274 OA
ENDBRANCH  27  28
ENDBRANCH  23  27
ENDBRANCH  21  23
ENDBRANCH   1  19
TORSDOF 11
ENDMDL
