MODEL 1
REMARK VINA RESULT:      -4.9      0.000      0.000
REMARK  4 active torsions:
REMARK  status: ('A' for Active; 'I' for Inactive)
REMARK    1  A    between atoms: N_1  and  C_9 
REMARK       I    between atoms: C_2  and  N_3 
REMARK    2  A    between atoms: C_2  and  C_9 
REMARK    3  A    between atoms: N_3  and  C_6 
REMARK    4  A    between atoms: C_6  and  C_8 
ROOT
HETATM    1  C           1     -30.620  -5.474 -17.157  0.00  0.00     0.243 C 
HETATM    2  N           1     -29.271  -5.242 -17.171  0.00  0.00    -0.345 N 
HETATM    3  H           1     -28.917  -4.306 -17.021  0.00  0.00     0.163 HD
HETATM    4  O           1     -31.043  -6.592 -17.336  0.00  0.00    -0.272 OA
ENDROOT
BRANCH   1   5
HETATM    5  C           1     -31.579  -4.333 -16.919  0.00  0.00     0.332 C 
BRANCH   5   6
HETATM    6  N           1     -31.131  -3.131 -17.696  0.00  0.00    -0.071 N 
HETATM    7  H           1     -31.201  -2.281 -17.093  0.00  0.00     0.274 HD
HETATM    8  H           1     -30.140  -3.263 -17.999  0.00  0.00     0.274 HD
HETATM    9  H           1     -31.740  -3.013 -18.537  0.00  0.00     0.274 HD
ENDBRANCH   5   6
ENDBRANCH   1   5
BRANCH   2  10
HETATM   10  C           1     -28.349  -6.338 -17.400  0.00  0.00     0.181 C 
HETATM   11  C           1     -27.766  -6.226 -18.802  0.00  0.00     0.043 C 
BRANCH  10  12
HETATM   12  C           1     -27.235  -6.278 -16.384  0.00  0.00     0.196 C 
HETATM   13  O           1     -27.141  -7.162 -15.505  0.00  0.00    -0.646 OA
HETATM   14  O           1     -26.405  -5.344 -16.422  0.00  0.00    -0.646 OA
ENDBRANCH  10  12
ENDBRANCH   2  10
TORSDOF 4
ENDMDL
MODEL 2
REMARK VINA RESULT:      -4.8      9.659     11.356
REMARK  4 active torsions:
REMARK  status: ('A' for Active; 'I' for Inactive)
REMARK    1  A    between atoms: N_1  and  C_9 
REMARK       I    between atoms: C_2  and  N_3 
REMARK    2  A    between atoms: C_2  and  C_9 
REMARK    3  A    between atoms: N_3  and  C_6 
REMARK    4  A    between atoms: C_6  and  C_8 
ROOT
HETATM    1  C           1     -21.708  -4.502  -7.594  0.00  0.00     0.243 C 
HETATM    2  N           1     -22.319  -4.749  -8.793  0.00  0.00    -0.345 N 
HETATM    3  H           1     -22.508  -5.701  -9.078  0.00  0.00     0.163 HD
HETATM    4  O           1     -21.482  -3.365  -7.252  0.00  0.00    -0.272 OA
ENDROOT
BRANCH   1   5
HETATM    5  C           1     -21.318  -5.651  -6.695  0.00  0.00     0.332 C 
BRANCH   5   6
HETATM    6  N           1     -20.109  -6.338  -7.258  0.00  0.00    -0.071 N 
HETATM    7  H           1     -19.844  -5.889  -8.164  0.00  0.00     0.274 HD
HETATM    8  H           1     -19.316  -6.253  -6.584  0.00  0.00     0.274 HD
HETATM    9  H           1     -20.325  -7.347  -7.419  0.00  0.00     0.274 HD
ENDBRANCH   5   6
ENDBRANCH   1   5
BRANCH   2  10
HETATM   10  C           1     -22.694  -3.645  -9.656  0.00  0.00     0.181 C 
HETATM   11  C           1     -21.752  -3.594 -10.852  0.00  0.00     0.043 C 
BRANCH  10  12
HETATM   12  C           1     -24.110  -3.843 -10.138  0.00  0.00     0.196 C 
HETATM   13  O           1     -24.722  -4.898  -9.863  0.00  0.00    -0.646 OA
HETATM   14  O           1     -24.671  -2.952 -10.811  0.00  0.00    -0.646 OA
ENDBRANCH  10  12
ENDBRANCH   2  10
TORSDOF 4
ENDMDL
MODEL 3
REMARK VINA RESULT:      -4.6     10.214     11.512
REMARK  4 active torsions:
REMARK  status: ('A' for Active; 'I' for Inactive)
REMARK    1  A    between atoms: N_1  and  C_9 
REMARK       I    between atoms: C_2  and  N_3 
REMARK    2  A    between atoms: C_2  and  C_9 
REMARK    3  A    between atoms: N_3  and  C_6 
REMARK    4  A    between atoms: C_6  and  C_8 
ROOT
HETATM    1  C           1     -23.176  -4.026  -9.204  0.00  0.00     0.243 C 
HETATM    2  N           1     -22.460  -3.815  -8.058  0.00  0.00    -0.345 N 
HETATM    3  H           1     -22.699  -3.044  -7.447  0.00  0.00     0.163 HD
HETATM    4  O           1     -22.891  -4.947  -9.934  0.00  0.00    -0.272 OA
ENDROOT
BRANCH   1   5
HETATM    5  C           1     -24.322  -3.110  -9.559  0.00  0.00     0.332 C 
BRANCH   5   6
HETATM    6  N           1     -25.594  -3.903  -9.628  0.00  0.00    -0.071 N 
HETATM    7  H           1     -26.410  -3.251  -9.615  0.00  0.00     0.274 HD
HETATM    8  H           1     -25.608  -4.461 -10.511  0.00  0.00     0.274 HD
HETATM    9  H           1     -25.648  -4.546  -8.807  0.00  0.00     0.274 HD
ENDBRANCH   5   6
ENDBRANCH   1   5
BRANCH   2  10
HETATM   10  C           1     -21.359  -4.695  -7.718  0.00  0.00     0.181 C 
HETATM   11  C           1     -20.040  -4.005  -8.040  0.00  0.00     0.043 C 
BRANCH  10  12
HETATM   12  C           1     -21.411  -5.018  -6.244  0.00  0.00     0.196 C 
HETATM   13  O           1     -20.436  -4.748  -5.510  0.00  0.00    -0.646 OA
HETATM   14  O           1     -22.429  -5.557  -5.759  0.00  0.00    -0.646 OA
ENDBRANCH  10  12
ENDBRANCH   2  10
TORSDOF 4
ENDMDL
MODEL 4
REMARK VINA RESULT:      -4.4      9.525     11.202
REMARK  4 active torsions:
REMARK  status: ('A' for Active; 'I' for Inactive)
REMARK    1  A    between atoms: N_1  and  C_9 
REMARK       I    between atoms: C_2  and  N_3 
REMARK    2  A    between atoms: C_2  and  C_9 
REMARK    3  A    between atoms: N_3  and  C_6 
REMARK    4  A    between atoms: C_6  and  C_8 
ROOT
HETATM    1  C           1     -21.854  -4.249  -7.934  0.00  0.00     0.243 C 
HETATM    2  N           1     -22.725  -3.460  -8.636  0.00  0.00    -0.345 N 
HETATM    3  H           1     -22.774  -2.468  -8.445  0.00  0.00     0.163 HD
HETATM    4  O           1     -21.795  -5.434  -8.162  0.00  0.00    -0.272 OA
ENDROOT
BRANCH   1   5
HETATM    5  C           1     -20.967  -3.639  -6.876  0.00  0.00     0.332 C 
BRANCH   5   6
HETATM    6  N           1     -20.448  -4.719  -5.974  0.00  0.00    -0.071 N 
HETATM    7  H           1     -19.655  -4.346  -5.405  0.00  0.00     0.274 HD
HETATM    8  H           1     -21.212  -5.039  -5.339  0.00  0.00     0.274 HD
HETATM    9  H           1     -20.113  -5.523  -6.552  0.00  0.00     0.274 HD
ENDBRANCH   5   6
ENDBRANCH   1   5
BRANCH   2  10
HETATM   10  C           1     -23.577  -4.047  -9.652  0.00  0.00     0.181 C 
HETATM   11  C           1     -24.924  -3.337  -9.657  0.00  0.00     0.043 C 
BRANCH  10  12
HETATM   12  C           1     -22.923  -3.896 -11.004  0.00  0.00     0.196 C 
HETATM   13  O           1     -22.062  -3.008 -11.187  0.00  0.00    -0.646 OA
HETATM   14  O           1     -23.243  -4.658 -11.941  0.00  0.00    -0.646 OA
ENDBRANCH  10  12
ENDBRANCH   2  10
TORSDOF 4
ENDMDL
MODEL 5
REMARK VINA RESULT:      -4.2     10.468     12.167
REMARK  4 active torsions:
REMARK  status: ('A' for Active; 'I' for Inactive)
REMARK    1  A    between atoms: N_1  and  C_9 
REMARK       I    between atoms: C_2  and  N_3 
REMARK    2  A    between atoms: C_2  and  C_9 
REMARK    3  A    between atoms: N_3  and  C_6 
REMARK    4  A    between atoms: C_6  and  C_8 
ROOT
HETATM    1  C           1     -21.180  -5.090  -7.019  0.00  0.00     0.243 C 
HETATM    2  N           1     -21.626  -5.164  -8.310  0.00  0.00    -0.345 N 
HETATM    3  H           1     -21.995  -6.035  -8.669  0.00  0.00     0.163 HD
HETATM    4  O           1     -20.739  -4.050  -6.590  0.00  0.00    -0.272 OA
ENDROOT
BRANCH   1   5
HETATM    5  C           1     -21.237  -6.308  -6.129  0.00  0.00     0.332 C 
BRANCH   5   6
HETATM    6  N           1     -19.977  -7.106  -6.290  0.00  0.00    -0.071 N 
HETATM    7  H           1     -19.218  -6.676  -5.715  0.00  0.00     0.274 HD
HETATM    8  H           1     -20.143  -8.086  -5.971  0.00  0.00     0.274 HD
HETATM    9  H           1     -19.693  -7.108  -7.296  0.00  0.00     0.274 HD
ENDBRANCH   5   6
ENDBRANCH   1   5
BRANCH   2  10
HETATM   10  C           1     -21.571  -3.993  -9.165  0.00  0.00     0.181 C 
HETATM   11  C           1     -20.630  -4.262 -10.332  0.00  0.00     0.043 C 
BRANCH  10  12
HETATM   12  C           1     -22.952  -3.689  -9.691  0.00  0.00     0.196 C 
HETATM   13  O           1     -23.953  -3.877  -8.965  0.00  0.00    -0.646 OA
HETATM   14  O           1     -23.096  -3.250 -10.852  0.00  0.00    -0.646 OA
ENDBRANCH  10  12
ENDBRANCH   2  10
TORSDOF 4
ENDMDL
MODEL 6
REMARK VINA RESULT:      -4.2      1.661      1.754
REMARK  4 active torsions:
REMARK  status: ('A' for Active; 'I' for Inactive)
REMARK    1  A    between atoms: N_1  and  C_9 
REMARK       I    between atoms: C_2  and  N_3 
REMARK    2  A    between atoms: C_2  and  C_9 
REMARK    3  A    between atoms: N_3  and  C_6 
REMARK    4  A    between atoms: C_6  and  C_8 
ROOT
HETATM    1  C           1     -30.101  -7.011 -17.725  0.00  0.00     0.243 C 
HETATM    2  N           1     -29.066  -6.116 -17.712  0.00  0.00    -0.345 N 
HETATM    3  H           1     -29.228  -5.160 -17.425  0.00  0.00     0.163 HD
HETATM    4  O           1     -29.908  -8.154 -18.068  0.00  0.00    -0.272 OA
ENDROOT
BRANCH   1   5
HETATM    5  C           1     -31.485  -6.571 -17.312  0.00  0.00     0.332 C 
BRANCH   5   6
HETATM    6  N           1     -31.391  -5.301 -16.520  0.00  0.00    -0.071 N 
HETATM    7  H           1     -30.747  -4.635 -17.006  0.00  0.00     0.274 HD
HETATM    8  H           1     -32.339  -4.871 -16.439  0.00  0.00     0.274 HD
HETATM    9  H           1     -31.019  -5.512 -15.567  0.00  0.00     0.274 HD
ENDBRANCH   5   6
ENDBRANCH   1   5
BRANCH   2  10
HETATM   10  C           1     -27.737  -6.539 -18.109  0.00  0.00     0.181 C 
HETATM   11  C           1     -27.477  -6.112 -19.547  0.00  0.00     0.043 C 
BRANCH  10  12
HETATM   12  C           1     -26.714  -5.900 -17.201  0.00  0.00     0.196 C 
HETATM   13  O           1     -27.020  -4.895 -16.524  0.00  0.00    -0.646 OA
HETATM   14  O           1     -25.561  -6.377 -17.126  0.00  0.00    -0.646 OA
ENDBRANCH  10  12
ENDBRANCH   2  10
TORSDOF 4
ENDMDL
MODEL 7
REMARK VINA RESULT:      -4.1      2.026      2.297
REMARK  4 active torsions:
REMARK  status: ('A' for Active; 'I' for Inactive)
REMARK    1  A    between atoms: N_1  and  C_9 
REMARK       I    between atoms: C_2  and  N_3 
REMARK    2  A    between atoms: C_2  and  C_9 
REMARK    3  A    between atoms: N_3  and  C_6 
REMARK    4  A    between atoms: C_6  and  C_8 
ROOT
HETATM    1  C           1     -30.223  -6.413 -17.792  0.00  0.00     0.243 C 
HETATM    2  N           1     -30.039  -5.169 -17.253  0.00  0.00    -0.345 N 
HETATM    3  H           1     -30.777  -4.737 -16.713  0.00  0.00     0.163 HD
HETATM    4  O           1     -29.341  -6.929 -18.437  0.00  0.00    -0.272 OA
ENDROOT
BRANCH   1   5
HETATM    5  C           1     -31.528  -7.141 -17.581  0.00  0.00     0.332 C 
BRANCH   5   6
HETATM    6  N           1     -32.562  -6.179 -17.074  0.00  0.00    -0.071 N 
HETATM    7  H           1     -33.272  -6.698 -16.510  0.00  0.00     0.274 HD
HETATM    8  H           1     -32.102  -5.457 -16.477  0.00  0.00     0.274 HD
HETATM    9  H           1     -33.032  -5.715 -17.884  0.00  0.00     0.274 HD
ENDBRANCH   5   6
ENDBRANCH   1   5
BRANCH   2  10
HETATM   10  C           1     -28.784  -4.469 -17.456  0.00  0.00     0.181 C 
HETATM   11  C           1     -29.017  -2.968 -17.344  0.00  0.00     0.043 C 
BRANCH  10  12
HETATM   12  C           1     -27.790  -4.905 -16.407  0.00  0.00     0.196 C 
HETATM   13  O           1     -28.120  -4.919 -15.201  0.00  0.00    -0.646 OA
HETATM   14  O           1     -26.638  -5.252 -16.744  0.00  0.00    -0.646 OA
ENDBRANCH  10  12
ENDBRANCH   2  10
TORSDOF 4
ENDMDL
MODEL 8
REMARK VINA RESULT:      -4.1     13.229     14.181
REMARK  4 active torsions:
REMARK  status: ('A' for Active; 'I' for Inactive)
REMARK    1  A    between atoms: N_1  and  C_9 
REMARK       I    between atoms: C_2  and  N_3 
REMARK    2  A    between atoms: C_2  and  C_9 
REMARK    3  A    between atoms: N_3  and  C_6 
REMARK    4  A    between atoms: C_6  and  C_8 
ROOT
HETATM    1  C           1     -21.654  -6.162  -4.534  0.00  0.00     0.243 C 
HETATM    2  N           1     -20.910  -5.300  -5.292  0.00  0.00    -0.345 N 
HETATM    3  H           1     -20.115  -4.825  -4.884  0.00  0.00     0.163 HD
HETATM    4  O           1     -22.604  -6.731  -5.021  0.00  0.00    -0.272 OA
ENDROOT
BRANCH   1   5
HETATM    5  C           1     -21.290  -6.405  -3.089  0.00  0.00     0.332 C 
BRANCH   5   6
HETATM    6  N           1     -22.374  -5.867  -2.202  0.00  0.00    -0.071 N 
HETATM    7  H           1     -23.237  -6.443  -2.320  0.00  0.00     0.274 HD
HETATM    8  H           1     -22.060  -5.909  -1.207  0.00  0.00     0.274 HD
HETATM    9  H           1     -22.577  -4.876  -2.464  0.00  0.00     0.274 HD
ENDBRANCH   5   6
ENDBRANCH   1   5
BRANCH   2  10
HETATM   10  C           1     -21.261  -5.067  -6.680  0.00  0.00     0.181 C 
HETATM   11  C           1     -21.344  -3.568  -6.937  0.00  0.00     0.043 C 
BRANCH  10  12
HETATM   12  C           1     -20.206  -5.673  -7.573  0.00  0.00     0.196 C 
HETATM   13  O           1     -19.572  -6.682  -7.195  0.00  0.00    -0.646 OA
HETATM   14  O           1     -19.967  -5.167  -8.690  0.00  0.00    -0.646 OA
ENDBRANCH  10  12
ENDBRANCH   2  10
TORSDOF 4
ENDMDL
MODEL 9
REMARK VINA RESULT:      -4.0     11.457     13.031
REMARK  4 active torsions:
REMARK  status: ('A' for Active; 'I' for Inactive)
REMARK    1  A    between atoms: N_1  and  C_9 
REMARK       I    between atoms: C_2  and  N_3 
REMARK    2  A    between atoms: C_2  and  C_9 
REMARK    3  A    between atoms: N_3  and  C_6 
REMARK    4  A    between atoms: C_6  and  C_8 
ROOT
HETATM    1  C           1     -21.185  -5.923  -6.117  0.00  0.00     0.243 C 
HETATM    2  N           1     -21.518  -4.815  -6.847  0.00  0.00    -0.345 N 
HETATM    3  H           1     -21.665  -3.928  -6.383  0.00  0.00     0.163 HD
HETATM    4  O           1     -21.009  -6.982  -6.671  0.00  0.00    -0.272 OA
ENDROOT
BRANCH   1   5
HETATM    5  C           1     -21.038  -5.823  -4.618  0.00  0.00     0.332 C 
BRANCH   5   6
HETATM    6  N           1     -22.310  -6.269  -3.959  0.00  0.00    -0.071 N 
HETATM    7  H           1     -22.631  -7.164  -4.392  0.00  0.00     0.274 HD
HETATM    8  H           1     -22.140  -6.416  -2.939  0.00  0.00     0.274 HD
HETATM    9  H           1     -23.044  -5.537  -4.089  0.00  0.00     0.274 HD
ENDBRANCH   5   6
ENDBRANCH   1   5
BRANCH   2  10
HETATM   10  C           1     -21.659  -4.911  -8.287  0.00  0.00     0.181 C 
HETATM   11  C           1     -22.860  -4.089  -8.735  0.00  0.00     0.043 C 
BRANCH  10  12
HETATM   12  C           1     -20.411  -4.383  -8.951  0.00  0.00     0.196 C 
HETATM   13  O           1     -19.582  -3.722  -8.288  0.00  0.00    -0.646 OA
HETATM   14  O           1     -20.206  -4.605 -10.164  0.00  0.00    -0.646 OA
ENDBRANCH  10  12
ENDBRANCH   2  10
TORSDOF 4
ENDMDL
