MODEL 1
REMARK VINA RESULT:      -7.2      0.000      0.000
REMARK  10 active torsions:
REMARK  status: ('A' for Active; 'I' for Inactive)
REMARK    1  A    between atoms: C_1  and  C_3 
REMARK    2  A    between atoms: C_2  and  C_14 
REMARK    3  A    between atoms: C_2  and  N_25 
REMARK    4  A    between atoms: C_3  and  C_12 
REMARK    5  A    between atoms: N_6  and  C_12 
REMARK       I    between atoms: N_6  and  C_9 
REMARK    6  A    between atoms: C_9  and  C_20 
REMARK    7  A    between atoms: C_12  and  C_22 
REMARK    8  A    between atoms: C_14  and  C_15 
REMARK    9  A    between atoms: C_15  and  C_20 
REMARK   10  A    between atoms: C_20  and  N_24 
ROOT
HETATM    1  N           1     -35.536  -1.447 -10.231  0.00  0.00    -0.344 N 
HETATM    2  C           1     -34.454  -2.077 -10.784  0.00  0.00     0.249 C 
HETATM    3  O           1     -33.336  -1.734 -10.480  0.00  0.00    -0.271 OA
HETATM    4  H           1     -35.938  -1.793  -9.369  0.00  0.00     0.163 HD
ENDROOT
BRANCH   2   5
HETATM    5  C           1     -34.657  -3.198 -11.773  0.00  0.00     0.274 C 
BRANCH   5   6
HETATM    6  C           1     -33.754  -4.368 -11.408  0.00  0.00     0.044 C 
BRANCH   6   7
HETATM    7  C           1     -34.399  -5.180 -10.293  0.00  0.00     0.030 C 
BRANCH   7   8
HETATM    8  C           1     -34.336  -6.662 -10.641  0.00  0.00     0.230 C 
BRANCH   8   9
HETATM    9  N           1     -35.050  -7.455  -9.586  0.00  0.00    -0.079 N 
HETATM   10  H           1     -34.350  -7.885  -8.941  0.00  0.00     0.274 HD
HETATM   11  H           1     -35.682  -6.824  -9.044  0.00  0.00     0.274 HD
HETATM   12  H           1     -35.616  -8.208 -10.040  0.00  0.00     0.274 HD
ENDBRANCH   8   9
ENDBRANCH   7   8
ENDBRANCH   6   7
ENDBRANCH   5   6
BRANCH   5  13
HETATM   13  N           1     -34.317  -2.715 -13.152  0.00  0.00    -0.067 N 
HETATM   14  H           1     -35.171  -2.311 -13.600  0.00  0.00     0.275 HD
HETATM   15  H           1     -33.576  -1.981 -13.091  0.00  0.00     0.275 HD
HETATM   16  H           1     -33.969  -3.517 -13.724  0.00  0.00     0.275 HD
ENDBRANCH   5  13
ENDBRANCH   2   5
BRANCH   1  17
HETATM   17  C           1     -36.107  -0.282 -10.880  0.00  0.00     0.189 C 
BRANCH  17  18
HETATM   18  C           1     -37.081  -0.732 -11.962  0.00  0.00     0.074 C 
BRANCH  18  19
HETATM   19  C           1     -36.700  -0.109 -13.268  0.00  0.00    -0.056 A 
HETATM   20  C           1     -35.453   0.501 -13.413  0.00  0.00     0.007 A 
HETATM   21  C           1     -35.097   1.080 -14.630  0.00  0.00     0.001 A 
HETATM   22  C           1     -35.988   1.050 -15.703  0.00  0.00     0.000 A 
HETATM   23  C           1     -37.233   0.439 -15.560  0.00  0.00     0.001 A 
HETATM   24  C           1     -37.589  -0.140 -14.342  0.00  0.00     0.007 A 
ENDBRANCH  18  19
ENDBRANCH  17  18
BRANCH  17  25
HETATM   25  C           1     -36.839   0.554  -9.859  0.00  0.00     0.197 C 
HETATM   26  O           1     -37.984   0.988 -10.111  0.00  0.00    -0.646 OA
HETATM   27  O           1     -36.300   0.812  -8.761  0.00  0.00    -0.646 OA
ENDBRANCH  17  25
ENDBRANCH   1  17
TORSDOF 10
ENDMDL
MODEL 2
REMARK VINA RESULT:      -6.5     14.991     18.354
REMARK  10 active torsions:
REMARK  status: ('A' for Active; 'I' for Inactive)
REMARK    1  A    between atoms: C_1  and  C_3 
REMARK    2  A    between atoms: C_2  and  C_14 
REMARK    3  A    between atoms: C_2  and  N_25 
REMARK    4  A    between atoms: C_3  and  C_12 
REMARK    5  A    between atoms: N_6  and  C_12 
REMARK       I    between atoms: N_6  and  C_9 
REMARK    6  A    between atoms: C_9  and  C_20 
REMARK    7  A    between atoms: C_12  and  C_22 
REMARK    8  A    between atoms: C_14  and  C_15 
REMARK    9  A    between atoms: C_15  and  C_20 
REMARK   10  A    between atoms: C_20  and  N_24 
ROOT
HETATM    1  N           1     -20.832  -8.001  -5.629  0.00  0.00    -0.344 N 
HETATM    2  C           1     -20.468  -6.783  -6.137  0.00  0.00     0.249 C 
HETATM    3  O           1     -19.585  -6.710  -6.959  0.00  0.00    -0.271 OA
HETATM    4  H           1     -21.555  -8.544  -6.084  0.00  0.00     0.163 HD
ENDROOT
BRANCH   2   5
HETATM    5  C           1     -21.171  -5.531  -5.672  0.00  0.00     0.274 C 
BRANCH   5   6
HETATM    6  C           1     -22.190  -5.101  -6.718  0.00  0.00     0.044 C 
BRANCH   6   7
HETATM    7  C           1     -21.640  -3.920  -7.508  0.00  0.00     0.030 C 
BRANCH   7   8
HETATM    8  C           1     -22.541  -3.645  -8.704  0.00  0.00     0.230 C 
BRANCH   8   9
HETATM    9  N           1     -23.967  -3.934  -8.335  0.00  0.00    -0.079 N 
HETATM   10  H           1     -24.505  -4.183  -9.194  0.00  0.00     0.274 HD
HETATM   11  H           1     -23.997  -4.732  -7.661  0.00  0.00     0.274 HD
HETATM   12  H           1     -24.389  -3.087  -7.891  0.00  0.00     0.274 HD
ENDBRANCH   8   9
ENDBRANCH   7   8
ENDBRANCH   6   7
ENDBRANCH   5   6
BRANCH   5  13
HETATM   13  N           1     -20.164  -4.437  -5.475  0.00  0.00    -0.067 N 
HETATM   14  H           1     -20.187  -4.116  -4.480  0.00  0.00     0.275 HD
HETATM   15  H           1     -19.209  -4.798  -5.701  0.00  0.00     0.275 HD
HETATM   16  H           1     -20.393  -3.636  -6.105  0.00  0.00     0.275 HD
ENDBRANCH   5  13
ENDBRANCH   2   5
BRANCH   1  17
HETATM   17  C           1     -20.178  -8.514  -4.441  0.00  0.00     0.189 C 
BRANCH  17  18
HETATM   18  C           1     -21.145  -9.412  -3.679  0.00  0.00     0.074 C 
BRANCH  18  19
HETATM   19  C           1     -21.641  -8.694  -2.462  0.00  0.00    -0.056 A 
HETATM   20  C           1     -21.694  -7.300  -2.449  0.00  0.00     0.007 A 
HETATM   21  C           1     -22.157  -6.631  -1.316  0.00  0.00     0.001 A 
HETATM   22  C           1     -22.565  -7.356  -0.196  0.00  0.00     0.000 A 
HETATM   23  C           1     -22.512  -8.750  -0.210  0.00  0.00     0.001 A 
HETATM   24  C           1     -22.050  -9.419  -1.343  0.00  0.00     0.007 A 
ENDBRANCH  18  19
ENDBRANCH  17  18
BRANCH  17  25
HETATM   25  C           1     -18.961  -9.312  -4.842  0.00  0.00     0.197 C 
HETATM   26  O           1     -17.966  -9.356  -4.086  0.00  0.00    -0.646 OA
HETATM   27  O           1     -18.948  -9.928  -5.929  0.00  0.00    -0.646 OA
ENDBRANCH  17  25
ENDBRANCH   1  17
TORSDOF 10
ENDMDL
MODEL 3
REMARK VINA RESULT:      -6.3     13.793     16.884
REMARK  10 active torsions:
REMARK  status: ('A' for Active; 'I' for Inactive)
REMARK    1  A    between atoms: C_1  and  C_3 
REMARK    2  A    between atoms: C_2  and  C_14 
REMARK    3  A    between atoms: C_2  and  N_25 
REMARK    4  A    between atoms: C_3  and  C_12 
REMARK    5  A    between atoms: N_6  and  C_12 
REMARK       I    between atoms: N_6  and  C_9 
REMARK    6  A    between atoms: C_9  and  C_20 
REMARK    7  A    between atoms: C_12  and  C_22 
REMARK    8  A    between atoms: C_14  and  C_15 
REMARK    9  A    between atoms: C_15  and  C_20 
REMARK   10  A    between atoms: C_20  and  N_24 
ROOT
HETATM    1  N           1     -21.608  -4.118  -6.449  0.00  0.00    -0.344 N 
HETATM    2  C           1     -22.758  -4.439  -7.119  0.00  0.00     0.249 C 
HETATM    3  O           1     -23.796  -4.563  -6.513  0.00  0.00    -0.271 OA
HETATM    4  H           1     -21.353  -3.148  -6.318  0.00  0.00     0.163 HD
ENDROOT
BRANCH   2   5
HETATM    5  C           1     -22.730  -4.639  -8.614  0.00  0.00     0.274 C 
BRANCH   5   6
HETATM    6  C           1     -21.776  -3.632  -9.244  0.00  0.00     0.044 C 
BRANCH   6   7
HETATM    7  C           1     -20.916  -4.331 -10.288  0.00  0.00     0.030 C 
BRANCH   7   8
HETATM    8  C           1     -21.304  -3.841 -11.677  0.00  0.00     0.230 C 
BRANCH   8   9
HETATM    9  N           1     -22.387  -4.717 -12.233  0.00  0.00    -0.079 N 
HETATM   10  H           1     -22.413  -4.622 -13.273  0.00  0.00     0.274 HD
HETATM   11  H           1     -22.195  -5.712 -11.980  0.00  0.00     0.274 HD
HETATM   12  H           1     -23.309  -4.428 -11.833  0.00  0.00     0.274 HD
ENDBRANCH   8   9
ENDBRANCH   7   8
ENDBRANCH   6   7
ENDBRANCH   5   6
BRANCH   5  13
HETATM   13  N           1     -24.107  -4.437  -9.171  0.00  0.00    -0.067 N 
HETATM   14  H           1     -24.113  -3.598  -9.795  0.00  0.00     0.275 HD
HETATM   15  H           1     -24.388  -5.280  -9.722  0.00  0.00     0.275 HD
HETATM   16  H           1     -24.782  -4.292  -8.387  0.00  0.00     0.275 HD
ENDBRANCH   5  13
ENDBRANCH   2   5
BRANCH   1  17
HETATM   17  C           1     -20.756  -5.169  -5.927  0.00  0.00     0.189 C 
BRANCH  17  18
HETATM   18  C           1     -21.591  -6.418  -5.674  0.00  0.00     0.074 C 
BRANCH  18  19
HETATM   19  C           1     -21.368  -6.893  -4.272  0.00  0.00    -0.056 A 
HETATM   20  C           1     -20.519  -7.973  -4.029  0.00  0.00     0.007 A 
HETATM   21  C           1     -20.310  -8.416  -2.723  0.00  0.00     0.001 A 
HETATM   22  C           1     -20.951  -7.779  -1.661  0.00  0.00     0.000 A 
HETATM   23  C           1     -21.800  -6.700  -1.903  0.00  0.00     0.001 A 
HETATM   24  C           1     -22.008  -6.257  -3.209  0.00  0.00     0.007 A 
ENDBRANCH  18  19
ENDBRANCH  17  18
BRANCH  17  25
HETATM   25  C           1     -19.672  -5.482  -6.930  0.00  0.00     0.197 C 
HETATM   26  O           1     -18.904  -4.577  -7.322  0.00  0.00    -0.646 OA
HETATM   27  O           1     -19.544  -6.645  -7.368  0.00  0.00    -0.646 OA
ENDBRANCH  17  25
ENDBRANCH   1  17
TORSDOF 10
ENDMDL
MODEL 4
REMARK VINA RESULT:      -6.3     14.237     16.168
REMARK  10 active torsions:
REMARK  status: ('A' for Active; 'I' for Inactive)
REMARK    1  A    between atoms: C_1  and  C_3 
REMARK    2  A    between atoms: C_2  and  C_14 
REMARK    3  A    between atoms: C_2  and  N_25 
REMARK    4  A    between atoms: C_3  and  C_12 
REMARK    5  A    between atoms: N_6  and  C_12 
REMARK       I    between atoms: N_6  and  C_9 
REMARK    6  A    between atoms: C_9  and  C_20 
REMARK    7  A    between atoms: C_12  and  C_22 
REMARK    8  A    between atoms: C_14  and  C_15 
REMARK    9  A    between atoms: C_15  and  C_20 
REMARK   10  A    between atoms: C_20  and  N_24 
ROOT
HETATM    1  N           1     -22.285  -5.774  -5.647  0.00  0.00    -0.344 N 
HETATM    2  C           1     -21.659  -6.385  -4.594  0.00  0.00     0.249 C 
HETATM    3  O           1     -21.061  -5.723  -3.780  0.00  0.00    -0.271 OA
HETATM    4  H           1     -23.247  -5.474  -5.559  0.00  0.00     0.163 HD
ENDROOT
BRANCH   2   5
HETATM    5  C           1     -21.716  -7.886  -4.451  0.00  0.00     0.274 C 
BRANCH   5   6
HETATM    6  C           1     -20.845  -8.319  -3.279  0.00  0.00     0.044 C 
BRANCH   6   7
HETATM    7  C           1     -21.708  -9.010  -2.232  0.00  0.00     0.030 C 
BRANCH   7   8
HETATM    8  C           1     -21.641  -8.233  -0.924  0.00  0.00     0.230 C 
BRANCH   8   9
HETATM    9  N           1     -22.288  -6.891  -1.104  0.00  0.00    -0.079 N 
HETATM   10  H           1     -21.920  -6.228  -0.387  0.00  0.00     0.274 HD
HETATM   11  H           1     -22.073  -6.526  -2.059  0.00  0.00     0.274 HD
HETATM   12  H           1     -23.323  -6.986  -0.993  0.00  0.00     0.274 HD
ENDBRANCH   8   9
ENDBRANCH   7   8
ENDBRANCH   6   7
ENDBRANCH   5   6
BRANCH   5  13
HETATM   13  N           1     -21.214  -8.527  -5.710  0.00  0.00    -0.067 N 
HETATM   14  H           1     -20.172  -8.599  -5.673  0.00  0.00     0.275 HD
HETATM   15  H           1     -21.625  -9.485  -5.801  0.00  0.00     0.275 HD
HETATM   16  H           1     -21.495  -7.947  -6.532  0.00  0.00     0.275 HD
ENDBRANCH   5  13
ENDBRANCH   2   5
BRANCH   1  17
HETATM   17  C           1     -21.567  -5.555  -6.888  0.00  0.00     0.189 C 
BRANCH  17  18
HETATM   18  C           1     -21.954  -4.199  -7.464  0.00  0.00     0.074 C 
BRANCH  18  19
HETATM   19  C           1     -21.919  -4.261  -8.959  0.00  0.00    -0.056 A 
HETATM   20  C           1     -23.081  -4.560  -9.671  0.00  0.00     0.007 A 
HETATM   21  C           1     -23.050  -4.618 -11.064  0.00  0.00     0.001 A 
HETATM   22  C           1     -21.857  -4.378 -11.745  0.00  0.00     0.000 A 
HETATM   23  C           1     -20.695  -4.079 -11.034  0.00  0.00     0.001 A 
HETATM   24  C           1     -20.727  -4.021  -9.641  0.00  0.00     0.007 A 
ENDBRANCH  18  19
ENDBRANCH  17  18
BRANCH  17  25
HETATM   25  C           1     -20.082  -5.584  -6.622  0.00  0.00     0.197 C 
HETATM   26  O           1     -19.507  -4.568  -6.173  0.00  0.00    -0.646 OA
HETATM   27  O           1     -19.427  -6.623  -6.850  0.00  0.00    -0.646 OA
ENDBRANCH  17  25
ENDBRANCH   1  17
TORSDOF 10
ENDMDL
MODEL 5
REMARK VINA RESULT:      -6.1     15.184     17.243
REMARK  10 active torsions:
REMARK  status: ('A' for Active; 'I' for Inactive)
REMARK    1  A    between atoms: C_1  and  C_3 
REMARK    2  A    between atoms: C_2  and  C_14 
REMARK    3  A    between atoms: C_2  and  N_25 
REMARK    4  A    between atoms: C_3  and  C_12 
REMARK    5  A    between atoms: N_6  and  C_12 
REMARK       I    between atoms: N_6  and  C_9 
REMARK    6  A    between atoms: C_9  and  C_20 
REMARK    7  A    between atoms: C_12  and  C_22 
REMARK    8  A    between atoms: C_14  and  C_15 
REMARK    9  A    between atoms: C_15  and  C_20 
REMARK   10  A    between atoms: C_20  and  N_24 
ROOT
HETATM    1  N           1     -22.593  -6.494  -3.846  0.00  0.00    -0.344 N 
HETATM    2  C           1     -22.006  -6.391  -2.614  0.00  0.00     0.249 C 
HETATM    3  O           1     -21.674  -5.308  -2.192  0.00  0.00    -0.271 OA
HETATM    4  H           1     -23.599  -6.433  -3.935  0.00  0.00     0.163 HD
ENDROOT
BRANCH   2   5
HETATM    5  C           1     -21.774  -7.628  -1.783  0.00  0.00     0.274 C 
BRANCH   5   6
HETATM    6  C           1     -22.420  -7.452  -0.415  0.00  0.00     0.044 C 
BRANCH   6   7
HETATM    7  C           1     -22.270  -8.737   0.388  0.00  0.00     0.030 C 
BRANCH   7   8
HETATM    8  C           1     -23.089  -9.843  -0.266  0.00  0.00     0.230 C 
BRANCH   8   9
HETATM    9  N           1     -22.476 -11.175   0.054  0.00  0.00    -0.079 N 
HETATM   10  H           1     -21.943 -11.521  -0.775  0.00  0.00     0.274 HD
HETATM   11  H           1     -21.829 -11.074   0.867  0.00  0.00     0.274 HD
HETATM   12  H           1     -23.231 -11.857   0.292  0.00  0.00     0.274 HD
ENDBRANCH   8   9
ENDBRANCH   7   8
ENDBRANCH   6   7
ENDBRANCH   5   6
BRANCH   5  13
HETATM   13  N           1     -20.300  -7.847  -1.614  0.00  0.00    -0.067 N 
HETATM   14  H           1     -19.780  -7.300  -2.337  0.00  0.00     0.275 HD
HETATM   15  H           1     -20.007  -7.529  -0.661  0.00  0.00     0.275 HD
HETATM   16  H           1     -20.084  -8.863  -1.723  0.00  0.00     0.275 HD
ENDBRANCH   5  13
ENDBRANCH   2   5
BRANCH   1  17
HETATM   17  C           1     -21.771  -6.689  -5.026  0.00  0.00     0.189 C 
BRANCH  17  18
HETATM   18  C           1     -20.799  -5.525  -5.164  0.00  0.00     0.074 C 
BRANCH  18  19
HETATM   19  C           1     -20.850  -4.993  -6.562  0.00  0.00    -0.056 A 
HETATM   20  C           1     -19.677  -4.886  -7.310  0.00  0.00     0.007 A 
HETATM   21  C           1     -19.724  -4.391  -8.613  0.00  0.00     0.001 A 
HETATM   22  C           1     -20.944  -4.004  -9.168  0.00  0.00     0.000 A 
HETATM   23  C           1     -22.116  -4.112  -8.421  0.00  0.00     0.001 A 
HETATM   24  C           1     -22.069  -4.606  -7.118  0.00  0.00     0.007 A 
ENDBRANCH  18  19
ENDBRANCH  17  18
BRANCH  17  25
HETATM   25  C           1     -20.998  -7.978  -4.891  0.00  0.00     0.197 C 
HETATM   26  O           1     -21.598  -9.074  -4.931  0.00  0.00    -0.646 OA
HETATM   27  O           1     -19.758  -7.949  -4.739  0.00  0.00    -0.646 OA
ENDBRANCH  17  25
ENDBRANCH   1  17
TORSDOF 10
ENDMDL
MODEL 6
REMARK VINA RESULT:      -6.0     18.052     19.732
REMARK  10 active torsions:
REMARK  status: ('A' for Active; 'I' for Inactive)
REMARK    1  A    between atoms: C_1  and  C_3 
REMARK    2  A    between atoms: C_2  and  C_14 
REMARK    3  A    between atoms: C_2  and  N_25 
REMARK    4  A    between atoms: C_3  and  C_12 
REMARK    5  A    between atoms: N_6  and  C_12 
REMARK       I    between atoms: N_6  and  C_9 
REMARK    6  A    between atoms: C_9  and  C_20 
REMARK    7  A    between atoms: C_12  and  C_22 
REMARK    8  A    between atoms: C_14  and  C_15 
REMARK    9  A    between atoms: C_15  and  C_20 
REMARK   10  A    between atoms: C_20  and  N_24 
ROOT
HETATM    1  N           1     -22.842 -11.299  -3.302  0.00  0.00    -0.344 N 
HETATM    2  C           1     -21.722 -11.165  -4.078  0.00  0.00     0.249 C 
HETATM    3  O           1     -21.354 -12.084  -4.771  0.00  0.00    -0.271 OA
HETATM    4  H           1     -23.749 -11.049  -3.675  0.00  0.00     0.163 HD
ENDROOT
BRANCH   2   5
HETATM    5  C           1     -20.947  -9.871  -4.068  0.00  0.00     0.274 C 
BRANCH   5   6
HETATM    6  C           1     -21.814  -8.764  -3.480  0.00  0.00     0.044 C 
BRANCH   6   7
HETATM    7  C           1     -20.939  -7.798  -2.693  0.00  0.00     0.030 C 
BRANCH   7   8
HETATM    8  C           1     -21.336  -6.366  -3.027  0.00  0.00     0.230 C 
BRANCH   8   9
HETATM    9  N           1     -22.355  -5.885  -2.036  0.00  0.00    -0.079 N 
HETATM   10  H           1     -23.274  -5.757  -2.516  0.00  0.00     0.274 HD
HETATM   11  H           1     -22.457  -6.589  -1.271  0.00  0.00     0.274 HD
HETATM   12  H           1     -22.044  -4.973  -1.630  0.00  0.00     0.274 HD
ENDBRANCH   8   9
ENDBRANCH   7   8
ENDBRANCH   6   7
ENDBRANCH   5   6
BRANCH   5  13
HETATM   13  N           1     -20.560  -9.509  -5.470  0.00  0.00    -0.067 N 
HETATM   14  H           1     -19.575  -9.810  -5.649  0.00  0.00     0.275 HD
HETATM   15  H           1     -21.198  -9.991  -6.144  0.00  0.00     0.275 HD
HETATM   16  H           1     -20.636  -8.475  -5.597  0.00  0.00     0.275 HD
ENDBRANCH   5  13
ENDBRANCH   2   5
BRANCH   1  17
HETATM   17  C           1     -22.728 -11.801  -1.947  0.00  0.00     0.189 C 
BRANCH  17  18
HETATM   18  C           1     -23.585 -10.950  -1.018  0.00  0.00     0.074 C 
BRANCH  18  19
HETATM   19  C           1     -22.700 -10.110  -0.151  0.00  0.00    -0.056 A 
HETATM   20  C           1     -23.057  -8.794   0.141  0.00  0.00     0.007 A 
HETATM   21  C           1     -22.234  -8.011   0.950  0.00  0.00     0.001 A 
HETATM   22  C           1     -21.053  -8.545   1.466  0.00  0.00     0.000 A 
HETATM   23  C           1     -20.696  -9.860   1.175  0.00  0.00     0.001 A 
HETATM   24  C           1     -21.519 -10.643   0.366  0.00  0.00     0.007 A 
ENDBRANCH  18  19
ENDBRANCH  17  18
BRANCH  17  25
HETATM   25  C           1     -23.205 -13.233  -1.900  0.00  0.00     0.197 C 
HETATM   26  O           1     -24.240 -13.527  -1.264  0.00  0.00    -0.646 OA
HETATM   27  O           1     -22.563 -14.124  -2.496  0.00  0.00    -0.646 OA
ENDBRANCH  17  25
ENDBRANCH   1  17
TORSDOF 10
ENDMDL
MODEL 7
REMARK VINA RESULT:      -6.0     16.774     19.302
REMARK  10 active torsions:
REMARK  status: ('A' for Active; 'I' for Inactive)
REMARK    1  A    between atoms: C_1  and  C_3 
REMARK    2  A    between atoms: C_2  and  C_14 
REMARK    3  A    between atoms: C_2  and  N_25 
REMARK    4  A    between atoms: C_3  and  C_12 
REMARK    5  A    between atoms: N_6  and  C_12 
REMARK       I    between atoms: N_6  and  C_9 
REMARK    6  A    between atoms: C_9  and  C_20 
REMARK    7  A    between atoms: C_12  and  C_22 
REMARK    8  A    between atoms: C_14  and  C_15 
REMARK    9  A    between atoms: C_15  and  C_20 
REMARK   10  A    between atoms: C_20  and  N_24 
ROOT
HETATM    1  N           1     -21.079  -7.549  -1.900  0.00  0.00    -0.344 N 
HETATM    2  C           1     -21.689  -6.671  -2.755  0.00  0.00     0.249 C 
HETATM    3  O           1     -22.110  -5.617  -2.339  0.00  0.00    -0.271 OA
HETATM    4  H           1     -20.080  -7.499  -1.750  0.00  0.00     0.163 HD
ENDROOT
BRANCH   2   5
HETATM    5  C           1     -21.835  -7.018  -4.216  0.00  0.00     0.274 C 
BRANCH   5   6
HETATM    6  C           1     -20.543  -6.681  -4.950  0.00  0.00     0.044 C 
BRANCH   6   7
HETATM    7  C           1     -20.515  -5.193  -5.272  0.00  0.00     0.030 C 
BRANCH   7   8
HETATM    8  C           1     -19.862  -4.980  -6.632  0.00  0.00     0.230 C 
BRANCH   8   9
HETATM    9  N           1     -20.007  -6.225  -7.458  0.00  0.00    -0.079 N 
HETATM   10  H           1     -21.004  -6.535  -7.448  0.00  0.00     0.274 HD
HETATM   11  H           1     -19.713  -6.027  -8.440  0.00  0.00     0.274 HD
HETATM   12  H           1     -19.403  -6.979  -7.059  0.00  0.00     0.274 HD
ENDBRANCH   8   9
ENDBRANCH   7   8
ENDBRANCH   6   7
ENDBRANCH   5   6
BRANCH   5  13
HETATM   13  N           1     -22.965  -6.229  -4.806  0.00  0.00    -0.067 N 
HETATM   14  H           1     -23.865  -6.526  -4.366  0.00  0.00     0.275 HD
HETATM   15  H           1     -22.810  -5.210  -4.626  0.00  0.00     0.275 HD
HETATM   16  H           1     -23.007  -6.399  -5.836  0.00  0.00     0.275 HD
ENDBRANCH   5  13
ENDBRANCH   2   5
BRANCH   1  17
HETATM   17  C           1     -21.867  -8.552  -1.208  0.00  0.00     0.189 C 
BRANCH  17  18
HETATM   18  C           1     -21.013  -9.790  -0.968  0.00  0.00     0.074 C 
BRANCH  18  19
HETATM   19  C           1     -21.879 -10.907  -0.476  0.00  0.00    -0.056 A 
HETATM   20  C           1     -23.116 -11.145  -1.075  0.00  0.00     0.007 A 
HETATM   21  C           1     -23.923 -12.187  -0.618  0.00  0.00     0.001 A 
HETATM   22  C           1     -23.492 -12.990   0.438  0.00  0.00     0.000 A 
HETATM   23  C           1     -22.255 -12.753   1.036  0.00  0.00     0.001 A 
HETATM   24  C           1     -21.449 -11.712   0.579  0.00  0.00     0.007 A 
ENDBRANCH  18  19
ENDBRANCH  17  18
BRANCH  17  25
HETATM   25  C           1     -22.334  -7.998   0.116  0.00  0.00     0.197 C 
HETATM   26  O           1     -23.492  -7.540   0.228  0.00  0.00    -0.646 OA
HETATM   27  O           1     -21.563  -7.996   1.099  0.00  0.00    -0.646 OA
ENDBRANCH  17  25
ENDBRANCH   1  17
TORSDOF 10
ENDMDL
MODEL 8
REMARK VINA RESULT:      -6.0     17.038     19.770
REMARK  10 active torsions:
REMARK  status: ('A' for Active; 'I' for Inactive)
REMARK    1  A    between atoms: C_1  and  C_3 
REMARK    2  A    between atoms: C_2  and  C_14 
REMARK    3  A    between atoms: C_2  and  N_25 
REMARK    4  A    between atoms: C_3  and  C_12 
REMARK    5  A    between atoms: N_6  and  C_12 
REMARK       I    between atoms: N_6  and  C_9 
REMARK    6  A    between atoms: C_9  and  C_20 
REMARK    7  A    between atoms: C_12  and  C_22 
REMARK    8  A    between atoms: C_14  and  C_15 
REMARK    9  A    between atoms: C_15  and  C_20 
REMARK   10  A    between atoms: C_20  and  N_24 
ROOT
HETATM    1  N           1     -19.584  -8.183  -4.436  0.00  0.00    -0.344 N 
HETATM    2  C           1     -19.072  -9.445  -4.301  0.00  0.00     0.249 C 
HETATM    3  O           1     -19.171 -10.237  -5.209  0.00  0.00    -0.271 OA
HETATM    4  H           1     -19.008  -7.440  -4.810  0.00  0.00     0.163 HD
ENDROOT
BRANCH   2   5
HETATM    5  C           1     -18.383  -9.848  -3.021  0.00  0.00     0.274 C 
BRANCH   5   6
HETATM    6  C           1     -16.925  -9.410  -3.068  0.00  0.00     0.044 C 
BRANCH   6   7
HETATM    7  C           1     -16.066 -10.559  -3.576  0.00  0.00     0.030 C 
BRANCH   7   8
HETATM    8  C           1     -15.583 -10.248  -4.987  0.00  0.00     0.230 C 
BRANCH   8   9
HETATM    9  N           1     -16.312 -11.117  -5.970  0.00  0.00    -0.079 N 
HETATM   10  H           1     -15.707 -11.280  -6.806  0.00  0.00     0.274 HD
HETATM   11  H           1     -16.541 -12.032  -5.522  0.00  0.00     0.274 HD
HETATM   12  H           1     -17.196 -10.643  -6.264  0.00  0.00     0.274 HD
ENDBRANCH   8   9
ENDBRANCH   7   8
ENDBRANCH   6   7
ENDBRANCH   5   6
BRANCH   5  13
HETATM   13  N           1     -18.452 -11.337  -2.863  0.00  0.00    -0.067 N 
HETATM   14  H           1     -19.122 -11.576  -2.097  0.00  0.00     0.275 HD
HETATM   15  H           1     -18.780 -11.767  -3.758  0.00  0.00     0.275 HD
HETATM   16  H           1     -17.504 -11.706  -2.625  0.00  0.00     0.275 HD
ENDBRANCH   5  13
ENDBRANCH   2   5
BRANCH   1  17
HETATM   17  C           1     -20.953  -7.911  -4.042  0.00  0.00     0.189 C 
BRANCH  17  18
HETATM   18  C           1     -20.958  -7.133  -2.732  0.00  0.00     0.074 C 
BRANCH  18  19
HETATM   19  C           1     -21.735  -7.892  -1.702  0.00  0.00    -0.056 A 
HETATM   20  C           1     -21.853  -9.279  -1.800  0.00  0.00     0.007 A 
HETATM   21  C           1     -22.576  -9.986  -0.840  0.00  0.00     0.001 A 
HETATM   22  C           1     -23.180  -9.307   0.218  0.00  0.00     0.000 A 
HETATM   23  C           1     -23.062  -7.922   0.317  0.00  0.00     0.001 A 
HETATM   24  C           1     -22.339  -7.214  -0.643  0.00  0.00     0.007 A 
ENDBRANCH  18  19
ENDBRANCH  17  18
BRANCH  17  25
HETATM   25  C           1     -21.632  -7.095  -5.115  0.00  0.00     0.197 C 
HETATM   26  O           1     -22.537  -6.289  -4.809  0.00  0.00    -0.646 OA
HETATM   27  O           1     -21.290  -7.227  -6.310  0.00  0.00    -0.646 OA
ENDBRANCH  17  25
ENDBRANCH   1  17
TORSDOF 10
ENDMDL
MODEL 9
REMARK VINA RESULT:      -5.9     17.345     19.417
REMARK  10 active torsions:
REMARK  status: ('A' for Active; 'I' for Inactive)
REMARK    1  A    between atoms: C_1  and  C_3 
REMARK    2  A    between atoms: C_2  and  C_14 
REMARK    3  A    between atoms: C_2  and  N_25 
REMARK    4  A    between atoms: C_3  and  C_12 
REMARK    5  A    between atoms: N_6  and  C_12 
REMARK       I    between atoms: N_6  and  C_9 
REMARK    6  A    between atoms: C_9  and  C_20 
REMARK    7  A    between atoms: C_12  and  C_22 
REMARK    8  A    between atoms: C_14  and  C_15 
REMARK    9  A    between atoms: C_15  and  C_20 
REMARK   10  A    between atoms: C_20  and  N_24 
ROOT
HETATM    1  N           1     -21.681  -7.722  -3.628  0.00  0.00    -0.344 N 
HETATM    2  C           1     -21.822  -7.063  -2.437  0.00  0.00     0.249 C 
HETATM    3  O           1     -22.246  -5.932  -2.419  0.00  0.00    -0.271 OA
HETATM    4  H           1     -22.446  -8.274  -3.995  0.00  0.00     0.163 HD
ENDROOT
BRANCH   2   5
HETATM    5  C           1     -21.447  -7.748  -1.146  0.00  0.00     0.274 C 
BRANCH   5   6
HETATM    6  C           1     -21.457  -9.258  -1.350  0.00  0.00     0.044 C 
BRANCH   6   7
HETATM    7  C           1     -22.595  -9.871  -0.545  0.00  0.00     0.030 C 
BRANCH   7   8
HETATM    8  C           1     -23.327 -10.898  -1.400  0.00  0.00     0.230 C 
BRANCH   8   9
HETATM    9  N           1     -22.619 -11.051  -2.714  0.00  0.00    -0.079 N 
HETATM   10  H           1     -22.620 -12.057  -2.995  0.00  0.00     0.274 HD
HETATM   11  H           1     -23.110 -10.486  -3.442  0.00  0.00     0.274 HD
HETATM   12  H           1     -21.633 -10.716  -2.620  0.00  0.00     0.274 HD
ENDBRANCH   8   9
ENDBRANCH   7   8
ENDBRANCH   6   7
ENDBRANCH   5   6
BRANCH   5  13
HETATM   13  N           1     -22.435  -7.381  -0.080  0.00  0.00    -0.067 N 
HETATM   14  H           1     -22.268  -6.397   0.227  0.00  0.00     0.275 HD
HETATM   15  H           1     -23.405  -7.467  -0.461  0.00  0.00     0.275 HD
HETATM   16  H           1     -22.322  -8.025   0.735  0.00  0.00     0.275 HD
ENDBRANCH   5  13
ENDBRANCH   2   5
BRANCH   1  17
HETATM   17  C           1     -20.436  -7.630  -4.365  0.00  0.00     0.189 C 
BRANCH  17  18
HETATM   18  C           1     -20.073  -9.001  -4.921  0.00  0.00     0.074 C 
BRANCH  18  19
HETATM   19  C           1     -18.647  -9.314  -4.589  0.00  0.00    -0.056 A 
HETATM   20  C           1     -17.746  -9.622  -5.609  0.00  0.00     0.007 A 
HETATM   21  C           1     -16.418  -9.914  -5.301  0.00  0.00     0.001 A 
HETATM   22  C           1     -15.990  -9.897  -3.973  0.00  0.00     0.000 A 
HETATM   23  C           1     -16.890  -9.588  -2.954  0.00  0.00     0.001 A 
HETATM   24  C           1     -18.219  -9.296  -3.262  0.00  0.00     0.007 A 
ENDBRANCH  18  19
ENDBRANCH  17  18
BRANCH  17  25
HETATM   25  C           1     -20.597  -6.651  -5.503  0.00  0.00     0.197 C 
HETATM   26  O           1     -20.503  -5.423  -5.290  0.00  0.00    -0.646 OA
HETATM   27  O           1     -20.825  -7.070  -6.659  0.00  0.00    -0.646 OA
ENDBRANCH  17  25
ENDBRANCH   1  17
TORSDOF 10
ENDMDL
