MODEL 1
REMARK VINA RESULT:      -7.8      0.000      0.000
REMARK  11 active torsions:
REMARK  status: ('A' for Active; 'I' for Inactive)
REMARK       I    between atoms: C_1  and  N_2 
REMARK    1  A    between atoms: C_1  and  C_30 
REMARK    2  A    between atoms: N_2  and  C_6 
REMARK    3  A    between atoms: C_5  and  C_6 
REMARK    4  A    between atoms: C_6  and  C_8 
REMARK    5  A    between atoms: C_8  and  C_9 
REMARK    6  A    between atoms: O_11  and  P_23 
REMARK    7  A    between atoms: N_16  and  C_30 
REMARK    8  A    between atoms: P_23  and  O_24 
REMARK    9  A    between atoms: O_24  and  C_25 
REMARK   10  A    between atoms: C_28  and  C_29 
REMARK   11  A    between atoms: C_29  and  C_30 
ROOT
HETATM    1  C           1     -20.276  -7.442  -5.570  0.00  0.00     0.278 C 
ENDROOT
BRANCH   1   2
HETATM    2  C           1     -19.982  -8.115  -4.252  0.00  0.00     0.249 C 
HETATM    3  N           1     -20.891  -8.045  -3.229  0.00  0.00    -0.344 N 
HETATM    4  H           1     -21.759  -7.542  -3.359  0.00  0.00     0.163 HD
HETATM    5  O           1     -18.945  -8.716  -4.097  0.00  0.00    -0.271 OA
BRANCH   3   6
HETATM    6  C           1     -20.609  -8.691  -1.963  0.00  0.00     0.189 C 
BRANCH   6   7
HETATM    7  C           1     -21.275 -10.044  -1.930  0.00  0.00     0.197 C 
HETATM    8  O           1     -20.701 -11.009  -1.381  0.00  0.00    -0.646 OA
HETATM    9  O           1     -22.399 -10.201  -2.453  0.00  0.00    -0.646 OA
ENDBRANCH   6   7
BRANCH   6  10
HETATM   10  C           1     -21.144  -7.834  -0.824  0.00  0.00     0.014 C 
HETATM   11  C           1     -22.154  -6.834  -1.374  0.00  0.00     0.012 C 
BRANCH  10  12
HETATM   12  C           1     -21.823  -8.724   0.207  0.00  0.00     0.002 C 
HETATM   13  C           1     -23.191  -8.149   0.553  0.00  0.00     0.005 C 
ENDBRANCH  10  12
ENDBRANCH   6  10
ENDBRANCH   3   6
ENDBRANCH   1   2
BRANCH   1  14
HETATM   14  N           1     -21.477  -8.083  -6.200  0.00  0.00    -0.066 N 
HETATM   15  H           1     -21.244  -8.379  -7.174  0.00  0.00     0.275 HD
HETATM   16  H           1     -21.759  -8.919  -5.640  0.00  0.00     0.275 HD
HETATM   17  H           1     -22.265  -7.397  -6.225  0.00  0.00     0.275 HD
ENDBRANCH   1  14
BRANCH   1  18
HETATM   18  C           1     -20.555  -5.964  -5.335  0.00  0.00     0.081 C 
BRANCH  18  19
HETATM   19  C           1     -21.027  -5.336  -6.609  0.00  0.00    -0.056 A 
HETATM   20  C           1     -20.195  -5.320  -7.729  0.00  0.00     0.010 A 
HETATM   21  C           1     -20.635  -4.733  -8.916  0.00  0.00     0.038 A 
HETATM   22  C           1     -21.906  -4.164  -8.984  0.00  0.00     0.081 A 
HETATM   23  C           1     -22.738  -4.179  -7.864  0.00  0.00     0.038 A 
HETATM   24  C           1     -22.298  -4.765  -6.677  0.00  0.00     0.010 A 
BRANCH  22  25
HETATM   25  O           1     -22.333  -3.594 -10.137  0.00  0.00    -0.247 OA
BRANCH  25  26
HETATM   26  P           1     -23.581  -4.277 -10.901  0.00  0.00     0.411 P 
HETATM   27  O           1     -23.935  -5.546 -10.230  0.00  0.00    -0.624 OA
HETATM   28  O           1     -24.741  -3.359 -10.867  0.00  0.00    -0.624 OA
BRANCH  26  29
HETATM   29  O           1     -23.176  -4.574 -12.436  0.00  0.00    -0.300 OA
HETATM   30  H           1     -23.984  -4.805 -12.861  0.00  0.00     0.223 HD
ENDBRANCH  26  29
ENDBRANCH  25  26
ENDBRANCH  22  25
ENDBRANCH  18  19
ENDBRANCH   1  18
TORSDOF 11
ENDMDL
MODEL 2
REMARK VINA RESULT:      -7.7     12.740     14.798
REMARK  11 active torsions:
REMARK  status: ('A' for Active; 'I' for Inactive)
REMARK       I    between atoms: C_1  and  N_2 
REMARK    1  A    between atoms: C_1  and  C_30 
REMARK    2  A    between atoms: N_2  and  C_6 
REMARK    3  A    between atoms: C_5  and  C_6 
REMARK    4  A    between atoms: C_6  and  C_8 
REMARK    5  A    between atoms: C_8  and  C_9 
REMARK    6  A    between atoms: O_11  and  P_23 
REMARK    7  A    between atoms: N_16  and  C_30 
REMARK    8  A    between atoms: P_23  and  O_24 
REMARK    9  A    between atoms: O_24  and  C_25 
REMARK   10  A    between atoms: C_28  and  C_29 
REMARK   11  A    between atoms: C_29  and  C_30 
ROOT
HETATM    1  C           1     -33.116  -4.660 -16.887  0.00  0.00     0.278 C 
ENDROOT
BRANCH   1   2
HETATM    2  C           1     -33.863  -4.658 -15.575  0.00  0.00     0.249 C 
HETATM    3  N           1     -33.305  -4.072 -14.470  0.00  0.00    -0.344 N 
HETATM    4  H           1     -32.391  -3.640 -14.534  0.00  0.00     0.163 HD
HETATM    5  O           1     -34.953  -5.173 -15.499  0.00  0.00    -0.271 OA
BRANCH   3   6
HETATM    6  C           1     -34.021  -4.070 -13.211  0.00  0.00     0.189 C 
BRANCH   6   7
HETATM    7  C           1     -34.836  -2.805 -13.099  0.00  0.00     0.197 C 
HETATM    8  O           1     -34.708  -1.902 -13.952  0.00  0.00    -0.646 OA
HETATM    9  O           1     -35.639  -2.660 -12.151  0.00  0.00    -0.646 OA
ENDBRANCH   6   7
BRANCH   6  10
HETATM   10  C           1     -33.027  -4.136 -12.059  0.00  0.00     0.014 C 
HETATM   11  C           1     -33.267  -2.966 -11.114  0.00  0.00     0.012 C 
BRANCH  10  12
HETATM   12  C           1     -33.211  -5.445 -11.303  0.00  0.00     0.002 C 
HETATM   13  C           1     -34.521  -5.403 -10.526  0.00  0.00     0.005 C 
ENDBRANCH  10  12
ENDBRANCH   6  10
ENDBRANCH   3   6
ENDBRANCH   1   2
BRANCH   1  14
HETATM   14  N           1     -32.149  -3.514 -16.912  0.00  0.00    -0.066 N 
HETATM   15  H           1     -32.288  -2.959 -17.787  0.00  0.00     0.275 HD
HETATM   16  H           1     -32.314  -2.902 -16.082  0.00  0.00     0.275 HD
HETATM   17  H           1     -31.171  -3.883 -16.886  0.00  0.00     0.275 HD
ENDBRANCH   1  14
BRANCH   1  18
HETATM   18  C           1     -32.354  -5.970 -17.035  0.00  0.00     0.081 C 
BRANCH  18  19
HETATM   19  C           1     -30.885  -5.709 -16.910  0.00  0.00    -0.056 A 
HETATM   20  C           1     -30.319  -5.497 -15.653  0.00  0.00     0.010 A 
HETATM   21  C           1     -28.950  -5.253 -15.538  0.00  0.00     0.038 A 
HETATM   22  C           1     -28.148  -5.222 -16.678  0.00  0.00     0.081 A 
HETATM   23  C           1     -28.714  -5.433 -17.935  0.00  0.00     0.038 A 
HETATM   24  C           1     -30.083  -5.677 -18.051  0.00  0.00     0.010 A 
BRANCH  22  25
HETATM   25  O           1     -26.818  -4.985 -16.565  0.00  0.00    -0.247 OA
BRANCH  25  26
HETATM   26  P           1     -25.841  -6.249 -16.332  0.00  0.00     0.411 P 
HETATM   27  O           1     -26.581  -7.322 -15.632  0.00  0.00    -0.624 OA
HETATM   28  O           1     -25.364  -6.751 -17.640  0.00  0.00    -0.624 OA
BRANCH  26  29
HETATM   29  O           1     -24.576  -5.796 -15.437  0.00  0.00    -0.300 OA
HETATM   30  H           1     -24.945  -5.298 -14.728  0.00  0.00     0.223 HD
ENDBRANCH  26  29
ENDBRANCH  25  26
ENDBRANCH  22  25
ENDBRANCH  18  19
ENDBRANCH   1  18
TORSDOF 11
ENDMDL
MODEL 3
REMARK VINA RESULT:      -7.7     13.541     15.413
REMARK  11 active torsions:
REMARK  status: ('A' for Active; 'I' for Inactive)
REMARK       I    between atoms: C_1  and  N_2 
REMARK    1  A    between atoms: C_1  and  C_30 
REMARK    2  A    between atoms: N_2  and  C_6 
REMARK    3  A    between atoms: C_5  and  C_6 
REMARK    4  A    between atoms: C_6  and  C_8 
REMARK    5  A    between atoms: C_8  and  C_9 
REMARK    6  A    between atoms: O_11  and  P_23 
REMARK    7  A    between atoms: N_16  and  C_30 
REMARK    8  A    between atoms: P_23  and  O_24 
REMARK    9  A    between atoms: O_24  and  C_25 
REMARK   10  A    between atoms: C_28  and  C_29 
REMARK   11  A    between atoms: C_29  and  C_30 
ROOT
HETATM    1  C           1     -33.884  -5.244 -15.449  0.00  0.00     0.278 C 
ENDROOT
BRANCH   1   2
HETATM    2  C           1     -34.477  -4.613 -14.213  0.00  0.00     0.249 C 
HETATM    3  N           1     -34.130  -3.335 -13.863  0.00  0.00    -0.344 N 
HETATM    4  H           1     -33.476  -2.814 -14.433  0.00  0.00     0.163 HD
HETATM    5  O           1     -35.259  -5.234 -13.533  0.00  0.00    -0.271 OA
BRANCH   3   6
HETATM    6  C           1     -34.699  -2.729 -12.676  0.00  0.00     0.189 C 
BRANCH   6   7
HETATM    7  C           1     -35.321  -1.402 -13.038  0.00  0.00     0.197 C 
HETATM    8  O           1     -36.529  -1.192 -12.797  0.00  0.00    -0.646 OA
HETATM    9  O           1     -34.628  -0.514 -13.580  0.00  0.00    -0.646 OA
ENDBRANCH   6   7
BRANCH   6  10
HETATM   10  C           1     -33.604  -2.511 -11.641  0.00  0.00     0.014 C 
HETATM   11  C           1     -34.218  -1.951 -10.363  0.00  0.00     0.012 C 
BRANCH  10  12
HETATM   12  C           1     -32.921  -3.837 -11.335  0.00  0.00     0.002 C 
HETATM   13  C           1     -33.858  -4.714 -10.513  0.00  0.00     0.005 C 
ENDBRANCH  10  12
ENDBRANCH   6  10
ENDBRANCH   3   6
ENDBRANCH   1   2
BRANCH   1  14
HETATM   14  N           1     -34.945  -6.022 -16.171  0.00  0.00    -0.066 N 
HETATM   15  H           1     -35.181  -6.880 -15.623  0.00  0.00     0.275 HD
HETATM   16  H           1     -35.800  -5.429 -16.274  0.00  0.00     0.275 HD
HETATM   17  H           1     -34.594  -6.297 -17.115  0.00  0.00     0.275 HD
ENDBRANCH   1  14
BRANCH   1  18
HETATM   18  C           1     -33.344  -4.154 -16.366  0.00  0.00     0.081 C 
BRANCH  18  19
HETATM   19  C           1     -32.011  -4.571 -16.905  0.00  0.00    -0.056 A 
HETATM   20  C           1     -31.645  -5.917 -16.895  0.00  0.00     0.010 A 
HETATM   21  C           1     -30.402  -6.304 -17.398  0.00  0.00     0.038 A 
HETATM   22  C           1     -29.526  -5.347 -17.908  0.00  0.00     0.081 A 
HETATM   23  C           1     -29.892  -4.001 -17.917  0.00  0.00     0.038 A 
HETATM   24  C           1     -31.134  -3.613 -17.415  0.00  0.00     0.010 A 
BRANCH  22  25
HETATM   25  O           1     -28.319  -5.724 -18.395  0.00  0.00    -0.247 OA
BRANCH  25  26
HETATM   26  P           1     -27.129  -6.003 -17.340  0.00  0.00     0.411 P 
HETATM   27  O           1     -25.880  -6.302 -18.074  0.00  0.00    -0.624 OA
HETATM   28  O           1     -26.931  -4.805 -16.494  0.00  0.00    -0.624 OA
BRANCH  26  29
HETATM   29  O           1     -27.519  -7.262 -16.407  0.00  0.00    -0.300 OA
HETATM   30  H           1     -28.384  -7.512 -16.684  0.00  0.00     0.223 HD
ENDBRANCH  26  29
ENDBRANCH  25  26
ENDBRANCH  22  25
ENDBRANCH  18  19
ENDBRANCH   1  18
TORSDOF 11
ENDMDL
MODEL 4
REMARK VINA RESULT:      -7.7     13.609     14.844
REMARK  11 active torsions:
REMARK  status: ('A' for Active; 'I' for Inactive)
REMARK       I    between atoms: C_1  and  N_2 
REMARK    1  A    between atoms: C_1  and  C_30 
REMARK    2  A    between atoms: N_2  and  C_6 
REMARK    3  A    between atoms: C_5  and  C_6 
REMARK    4  A    between atoms: C_6  and  C_8 
REMARK    5  A    between atoms: C_8  and  C_9 
REMARK    6  A    between atoms: O_11  and  P_23 
REMARK    7  A    between atoms: N_16  and  C_30 
REMARK    8  A    between atoms: P_23  and  O_24 
REMARK    9  A    between atoms: O_24  and  C_25 
REMARK   10  A    between atoms: C_28  and  C_29 
REMARK   11  A    between atoms: C_29  and  C_30 
ROOT
HETATM    1  C           1     -33.830  -4.916 -15.400  0.00  0.00     0.278 C 
ENDROOT
BRANCH   1   2
HETATM    2  C           1     -34.198  -4.084 -14.195  0.00  0.00     0.249 C 
HETATM    3  N           1     -34.066  -4.607 -12.936  0.00  0.00    -0.344 N 
HETATM    4  H           1     -33.722  -5.551 -12.814  0.00  0.00     0.163 HD
HETATM    5  O           1     -34.609  -2.958 -14.341  0.00  0.00    -0.271 OA
BRANCH   3   6
HETATM    6  C           1     -34.420  -3.810 -11.779  0.00  0.00     0.189 C 
BRANCH   6   7
HETATM    7  C           1     -33.245  -2.949 -11.385  0.00  0.00     0.197 C 
HETATM    8  O           1     -32.080  -3.377 -11.530  0.00  0.00    -0.646 OA
HETATM    9  O           1     -33.437  -1.808 -10.911  0.00  0.00    -0.646 OA
ENDBRANCH   6   7
BRANCH   6  10
HETATM   10  C           1     -34.789  -4.727 -10.622  0.00  0.00     0.014 C 
HETATM   11  C           1     -36.296  -4.683 -10.400  0.00  0.00     0.012 C 
BRANCH  10  12
HETATM   12  C           1     -34.367  -6.153 -10.948  0.00  0.00     0.002 C 
HETATM   13  C           1     -34.912  -7.100  -9.886  0.00  0.00     0.005 C 
ENDBRANCH  10  12
ENDBRANCH   6  10
ENDBRANCH   3   6
ENDBRANCH   1   2
BRANCH   1  14
HETATM   14  N           1     -35.042  -5.653 -15.887  0.00  0.00    -0.066 N 
HETATM   15  H           1     -35.532  -6.093 -15.076  0.00  0.00     0.275 HD
HETATM   16  H           1     -35.689  -4.983 -16.362  0.00  0.00     0.275 HD
HETATM   17  H           1     -34.750  -6.395 -16.563  0.00  0.00     0.275 HD
ENDBRANCH   1  14
BRANCH   1  18
HETATM   18  C           1     -33.313  -4.005 -16.506  0.00  0.00     0.081 C 
BRANCH  18  19
HETATM   19  C           1     -31.986  -4.506 -16.985  0.00  0.00    -0.056 A 
HETATM   20  C           1     -31.043  -3.610 -17.488  0.00  0.00     0.010 A 
HETATM   21  C           1     -29.807  -4.077 -17.935  0.00  0.00     0.038 A 
HETATM   22  C           1     -29.514  -5.439 -17.880  0.00  0.00     0.081 A 
HETATM   23  C           1     -30.457  -6.336 -17.378  0.00  0.00     0.038 A 
HETATM   24  C           1     -31.694  -5.869 -16.931  0.00  0.00     0.010 A 
BRANCH  22  25
HETATM   25  O           1     -28.313  -5.893 -18.315  0.00  0.00    -0.247 OA
BRANCH  25  26
HETATM   26  P           1     -27.122  -6.039 -17.234  0.00  0.00     0.411 P 
HETATM   27  O           1     -25.855  -6.341 -17.936  0.00  0.00    -0.624 OA
HETATM   28  O           1     -26.981  -4.773 -16.482  0.00  0.00    -0.624 OA
BRANCH  26  29
HETATM   29  O           1     -27.468  -7.238 -16.209  0.00  0.00    -0.300 OA
HETATM   30  H           1     -28.407  -7.300 -16.213  0.00  0.00     0.223 HD
ENDBRANCH  26  29
ENDBRANCH  25  26
ENDBRANCH  22  25
ENDBRANCH  18  19
ENDBRANCH   1  18
TORSDOF 11
ENDMDL
MODEL 5
REMARK VINA RESULT:      -7.6      1.791      2.854
REMARK  11 active torsions:
REMARK  status: ('A' for Active; 'I' for Inactive)
REMARK       I    between atoms: C_1  and  N_2 
REMARK    1  A    between atoms: C_1  and  C_30 
REMARK    2  A    between atoms: N_2  and  C_6 
REMARK    3  A    between atoms: C_5  and  C_6 
REMARK    4  A    between atoms: C_6  and  C_8 
REMARK    5  A    between atoms: C_8  and  C_9 
REMARK    6  A    between atoms: O_11  and  P_23 
REMARK    7  A    between atoms: N_16  and  C_30 
REMARK    8  A    between atoms: P_23  and  O_24 
REMARK    9  A    between atoms: O_24  and  C_25 
REMARK   10  A    between atoms: C_28  and  C_29 
REMARK   11  A    between atoms: C_29  and  C_30 
ROOT
HETATM    1  C           1     -21.440  -6.814  -4.635  0.00  0.00     0.278 C 
ENDROOT
BRANCH   1   2
HETATM    2  C           1     -21.174  -8.247  -4.243  0.00  0.00     0.249 C 
HETATM    3  N           1     -20.064  -8.561  -3.505  0.00  0.00    -0.344 N 
HETATM    4  H           1     -19.422  -7.831  -3.223  0.00  0.00     0.163 HD
HETATM    5  O           1     -21.941  -9.118  -4.580  0.00  0.00    -0.271 OA
BRANCH   3   6
HETATM    6  C           1     -19.809  -9.936  -3.128  0.00  0.00     0.189 C 
BRANCH   6   7
HETATM    7  C           1     -20.025 -10.099  -1.644  0.00  0.00     0.197 C 
HETATM    8  O           1     -20.611  -9.206  -0.996  0.00  0.00    -0.646 OA
HETATM    9  O           1     -19.617 -11.128  -1.062  0.00  0.00    -0.646 OA
ENDBRANCH   6   7
BRANCH   6  10
HETATM   10  C           1     -18.372 -10.301  -3.475  0.00  0.00     0.014 C 
HETATM   11  C           1     -18.209 -10.334  -4.990  0.00  0.00     0.012 C 
BRANCH  10  12
HETATM   12  C           1     -17.427  -9.261  -2.887  0.00  0.00     0.002 C 
HETATM   13  C           1     -16.013  -9.828  -2.842  0.00  0.00     0.005 C 
ENDBRANCH  10  12
ENDBRANCH   6  10
ENDBRANCH   3   6
ENDBRANCH   1   2
BRANCH   1  14
HETATM   14  N           1     -21.473  -5.958  -3.404  0.00  0.00    -0.066 N 
HETATM   15  H           1     -20.707  -6.248  -2.756  0.00  0.00     0.275 HD
HETATM   16  H           1     -21.340  -4.957  -3.674  0.00  0.00     0.275 HD
HETATM   17  H           1     -22.395  -6.071  -2.926  0.00  0.00     0.275 HD
ENDBRANCH   1  14
BRANCH   1  18
HETATM   18  C           1     -20.333  -6.328  -5.561  0.00  0.00     0.081 C 
BRANCH  18  19
HETATM   19  C           1     -20.933  -5.555  -6.694  0.00  0.00    -0.056 A 
HETATM   20  C           1     -20.221  -5.394  -7.883  0.00  0.00     0.010 A 
HETATM   21  C           1     -20.781  -4.673  -8.938  0.00  0.00     0.038 A 
HETATM   22  C           1     -22.050  -4.113  -8.805  0.00  0.00     0.081 A 
HETATM   23  C           1     -22.762  -4.273  -7.616  0.00  0.00     0.038 A 
HETATM   24  C           1     -22.204  -4.994  -6.560  0.00  0.00     0.010 A 
BRANCH  22  25
HETATM   25  O           1     -22.593  -3.413  -9.831  0.00  0.00    -0.247 OA
BRANCH  25  26
HETATM   26  P           1     -23.603  -4.187 -10.825  0.00  0.00     0.411 P 
HETATM   27  O           1     -23.962  -5.498 -10.241  0.00  0.00    -0.624 OA
HETATM   28  O           1     -24.828  -3.377 -11.011  0.00  0.00    -0.624 OA
BRANCH  26  29
HETATM   29  O           1     -22.886  -4.413 -12.254  0.00  0.00    -0.300 OA
HETATM   30  H           1     -23.499  -4.921 -12.757  0.00  0.00     0.223 HD
ENDBRANCH  26  29
ENDBRANCH  25  26
ENDBRANCH  22  25
ENDBRANCH  18  19
ENDBRANCH   1  18
TORSDOF 11
ENDMDL
MODEL 6
REMARK VINA RESULT:      -7.3      1.941      2.729
REMARK  11 active torsions:
REMARK  status: ('A' for Active; 'I' for Inactive)
REMARK       I    between atoms: C_1  and  N_2 
REMARK    1  A    between atoms: C_1  and  C_30 
REMARK    2  A    between atoms: N_2  and  C_6 
REMARK    3  A    between atoms: C_5  and  C_6 
REMARK    4  A    between atoms: C_6  and  C_8 
REMARK    5  A    between atoms: C_8  and  C_9 
REMARK    6  A    between atoms: O_11  and  P_23 
REMARK    7  A    between atoms: N_16  and  C_30 
REMARK    8  A    between atoms: P_23  and  O_24 
REMARK    9  A    between atoms: O_24  and  C_25 
REMARK   10  A    between atoms: C_28  and  C_29 
REMARK   11  A    between atoms: C_29  and  C_30 
ROOT
HETATM    1  C           1     -21.416  -6.826  -4.998  0.00  0.00     0.278 C 
ENDROOT
BRANCH   1   2
HETATM    2  C           1     -20.746  -8.160  -4.771  0.00  0.00     0.249 C 
HETATM    3  N           1     -21.504  -9.270  -4.507  0.00  0.00    -0.344 N 
HETATM    4  H           1     -22.512  -9.196  -4.464  0.00  0.00     0.163 HD
HETATM    5  O           1     -19.543  -8.249  -4.823  0.00  0.00    -0.271 OA
BRANCH   3   6
HETATM    6  C           1     -20.862 -10.551  -4.289  0.00  0.00     0.189 C 
BRANCH   6   7
HETATM    7  C           1     -21.140 -11.459  -5.461  0.00  0.00     0.197 C 
HETATM    8  O           1     -21.196 -10.987  -6.617  0.00  0.00    -0.646 OA
HETATM    9  O           1     -21.317 -12.682  -5.276  0.00  0.00    -0.646 OA
ENDBRANCH   6   7
BRANCH   6  10
HETATM   10  C           1     -21.407 -11.183  -3.016  0.00  0.00     0.014 C 
HETATM   11  C           1     -20.617 -10.672  -1.817  0.00  0.00     0.012 C 
BRANCH  10  12
HETATM   12  C           1     -22.874 -10.811  -2.850  0.00  0.00     0.002 C 
HETATM   13  C           1     -23.263 -10.918  -1.381  0.00  0.00     0.005 C 
ENDBRANCH  10  12
ENDBRANCH   6  10
ENDBRANCH   3   6
ENDBRANCH   1   2
BRANCH   1  14
HETATM   14  N           1     -21.931  -6.297  -3.693  0.00  0.00    -0.066 N 
HETATM   15  H           1     -22.976  -6.275  -3.713  0.00  0.00     0.275 HD
HETATM   16  H           1     -21.612  -6.920  -2.916  0.00  0.00     0.275 HD
HETATM   17  H           1     -21.565  -5.331  -3.539  0.00  0.00     0.275 HD
ENDBRANCH   1  14
BRANCH   1  18
HETATM   18  C           1     -20.407  -5.845  -5.579  0.00  0.00     0.081 C 
BRANCH  18  19
HETATM   19  C           1     -20.972  -5.223  -6.819  0.00  0.00    -0.056 A 
HETATM   20  C           1     -22.239  -4.640  -6.792  0.00  0.00     0.010 A 
HETATM   21  C           1     -22.764  -4.062  -7.947  0.00  0.00     0.038 A 
HETATM   22  C           1     -22.025  -4.067  -9.129  0.00  0.00     0.081 A 
HETATM   23  C           1     -20.758  -4.651  -9.156  0.00  0.00     0.038 A 
HETATM   24  C           1     -20.231  -5.229  -8.001  0.00  0.00     0.010 A 
BRANCH  22  25
HETATM   25  O           1     -22.536  -3.505 -10.251  0.00  0.00    -0.247 OA
BRANCH  25  26
HETATM   26  P           1     -23.833  -4.195 -10.921  0.00  0.00     0.411 P 
HETATM   27  O           1     -24.968  -3.246 -10.887  0.00  0.00    -0.624 OA
HETATM   28  O           1     -23.531  -4.555 -12.324  0.00  0.00    -0.624 OA
BRANCH  26  29
HETATM   29  O           1     -24.222  -5.528 -10.096  0.00  0.00    -0.300 OA
HETATM   30  H           1     -24.944  -5.274  -9.548  0.00  0.00     0.223 HD
ENDBRANCH  26  29
ENDBRANCH  25  26
ENDBRANCH  22  25
ENDBRANCH  18  19
ENDBRANCH   1  18
TORSDOF 11
ENDMDL
MODEL 7
REMARK VINA RESULT:      -7.1      1.314      2.009
REMARK  11 active torsions:
REMARK  status: ('A' for Active; 'I' for Inactive)
REMARK       I    between atoms: C_1  and  N_2 
REMARK    1  A    between atoms: C_1  and  C_30 
REMARK    2  A    between atoms: N_2  and  C_6 
REMARK    3  A    between atoms: C_5  and  C_6 
REMARK    4  A    between atoms: C_6  and  C_8 
REMARK    5  A    between atoms: C_8  and  C_9 
REMARK    6  A    between atoms: O_11  and  P_23 
REMARK    7  A    between atoms: N_16  and  C_30 
REMARK    8  A    between atoms: P_23  and  O_24 
REMARK    9  A    between atoms: O_24  and  C_25 
REMARK   10  A    between atoms: C_28  and  C_29 
REMARK   11  A    between atoms: C_29  and  C_30 
ROOT
HETATM    1  C           1     -20.287  -7.833  -4.798  0.00  0.00     0.278 C 
ENDROOT
BRANCH   1   2
HETATM    2  C           1     -20.002  -8.709  -3.603  0.00  0.00     0.249 C 
HETATM    3  N           1     -21.037  -9.233  -2.875  0.00  0.00    -0.344 N 
HETATM    4  H           1     -21.993  -9.032  -3.138  0.00  0.00     0.163 HD
HETATM    5  O           1     -18.861  -8.949  -3.288  0.00  0.00    -0.271 OA
BRANCH   3   6
HETATM    6  C           1     -20.763 -10.074  -1.727  0.00  0.00     0.189 C 
BRANCH   6   7
HETATM    7  C           1     -20.917 -11.523  -2.118  0.00  0.00     0.197 C 
HETATM    8  O           1     -22.057 -12.007  -2.285  0.00  0.00    -0.646 OA
HETATM    9  O           1     -19.904 -12.240  -2.272  0.00  0.00    -0.646 OA
ENDBRANCH   6   7
BRANCH   6  10
HETATM   10  C           1     -21.741  -9.742  -0.608  0.00  0.00     0.014 C 
HETATM   11  C           1     -21.065  -9.965   0.739  0.00  0.00     0.012 C 
BRANCH  10  12
HETATM   12  C           1     -22.173  -8.287  -0.724  0.00  0.00     0.002 C 
HETATM   13  C           1     -23.036  -7.916   0.476  0.00  0.00     0.005 C 
ENDBRANCH  10  12
ENDBRANCH   6  10
ENDBRANCH   3   6
ENDBRANCH   1   2
BRANCH   1  14
HETATM   14  N           1     -21.137  -8.587  -5.778  0.00  0.00    -0.066 N 
HETATM   15  H           1     -22.145  -8.463  -5.533  0.00  0.00     0.275 HD
HETATM   16  H           1     -20.965  -8.219  -6.741  0.00  0.00     0.275 HD
HETATM   17  H           1     -20.892  -9.602  -5.743  0.00  0.00     0.275 HD
ENDBRANCH   1  14
BRANCH   1  18
HETATM   18  C           1     -21.027  -6.581  -4.345  0.00  0.00     0.081 C 
BRANCH  18  19
HETATM   19  C           1     -21.295  -5.704  -5.529  0.00  0.00    -0.056 A 
HETATM   20  C           1     -22.592  -5.585  -6.029  0.00  0.00     0.010 A 
HETATM   21  C           1     -22.841  -4.768  -7.132  0.00  0.00     0.038 A 
HETATM   22  C           1     -21.795  -4.071  -7.734  0.00  0.00     0.081 A 
HETATM   23  C           1     -20.498  -4.190  -7.235  0.00  0.00     0.038 A 
HETATM   24  C           1     -20.248  -5.007  -6.132  0.00  0.00     0.010 A 
BRANCH  22  25
HETATM   25  O           1     -22.037  -3.277  -8.806  0.00  0.00    -0.247 OA
BRANCH  25  26
HETATM   26  P           1     -21.904  -3.930 -10.277  0.00  0.00     0.411 P 
HETATM   27  O           1     -23.007  -4.893 -10.490  0.00  0.00    -0.624 OA
HETATM   28  O           1     -21.977  -2.861 -11.298  0.00  0.00    -0.624 OA
BRANCH  26  29
HETATM   29  O           1     -20.488  -4.696 -10.402  0.00  0.00    -0.300 OA
HETATM   30  H           1     -20.377  -4.856 -11.323  0.00  0.00     0.223 HD
ENDBRANCH  26  29
ENDBRANCH  25  26
ENDBRANCH  22  25
ENDBRANCH  18  19
ENDBRANCH   1  18
TORSDOF 11
ENDMDL
MODEL 8
REMARK VINA RESULT:      -7.1      4.258      6.458
REMARK  11 active torsions:
REMARK  status: ('A' for Active; 'I' for Inactive)
REMARK       I    between atoms: C_1  and  N_2 
REMARK    1  A    between atoms: C_1  and  C_30 
REMARK    2  A    between atoms: N_2  and  C_6 
REMARK    3  A    between atoms: C_5  and  C_6 
REMARK    4  A    between atoms: C_6  and  C_8 
REMARK    5  A    between atoms: C_8  and  C_9 
REMARK    6  A    between atoms: O_11  and  P_23 
REMARK    7  A    between atoms: N_16  and  C_30 
REMARK    8  A    between atoms: P_23  and  O_24 
REMARK    9  A    between atoms: O_24  and  C_25 
REMARK   10  A    between atoms: C_28  and  C_29 
REMARK   11  A    between atoms: C_29  and  C_30 
ROOT
HETATM    1  C           1     -22.746 -10.431  -0.294  0.00  0.00     0.278 C 
ENDROOT
BRANCH   1   2
HETATM    2  C           1     -21.895 -11.444   0.433  0.00  0.00     0.249 C 
HETATM    3  N           1     -22.272 -12.761   0.462  0.00  0.00    -0.344 N 
HETATM    4  H           1     -23.121 -13.054  -0.004  0.00  0.00     0.163 HD
HETATM    5  O           1     -20.882 -11.094   0.990  0.00  0.00    -0.271 OA
BRANCH   3   6
HETATM    6  C           1     -21.456 -13.733   1.161  0.00  0.00     0.189 C 
BRANCH   6   7
HETATM    7  C           1     -20.572 -14.451   0.170  0.00  0.00     0.197 C 
HETATM    8  O           1     -19.376 -14.116   0.043  0.00  0.00    -0.646 OA
HETATM    9  O           1     -21.038 -15.381  -0.524  0.00  0.00    -0.646 OA
ENDBRANCH   6   7
BRANCH   6  10
HETATM   10  C           1     -22.355 -14.741   1.863  0.00  0.00     0.014 C 
HETATM   11  C           1     -21.589 -15.390   3.010  0.00  0.00     0.012 C 
BRANCH  10  12
HETATM   12  C           1     -23.584 -14.031   2.414  0.00  0.00     0.002 C 
HETATM   13  C           1     -24.315 -14.955   3.379  0.00  0.00     0.005 C 
ENDBRANCH  10  12
ENDBRANCH   6  10
ENDBRANCH   3   6
ENDBRANCH   1   2
BRANCH   1  14
HETATM   14  N           1     -24.195 -10.715  -0.030  0.00  0.00    -0.066 N 
HETATM   15  H           1     -24.453 -11.634  -0.456  0.00  0.00     0.275 HD
HETATM   16  H           1     -24.360 -10.750   1.001  0.00  0.00     0.275 HD
HETATM   17  H           1     -24.780  -9.959  -0.452  0.00  0.00     0.275 HD
ENDBRANCH   1  14
BRANCH   1  18
HETATM   18  C           1     -22.406  -9.033   0.202  0.00  0.00     0.081 C 
BRANCH  18  19
HETATM   19  C           1     -22.003  -8.176  -0.957  0.00  0.00    -0.056 A 
HETATM   20  C           1     -22.399  -6.839  -1.008  0.00  0.00     0.010 A 
HETATM   21  C           1     -22.024  -6.041  -2.089  0.00  0.00     0.038 A 
HETATM   22  C           1     -21.254  -6.579  -3.119  0.00  0.00     0.081 A 
HETATM   23  C           1     -20.858  -7.916  -3.070  0.00  0.00     0.038 A 
HETATM   24  C           1     -21.233  -8.714  -1.989  0.00  0.00     0.010 A 
BRANCH  22  25
HETATM   25  O           1     -20.890  -5.804  -4.169  0.00  0.00    -0.247 OA
BRANCH  25  26
HETATM   26  P           1     -21.683  -5.996  -5.563  0.00  0.00     0.411 P 
HETATM   27  O           1     -21.146  -7.175  -6.277  0.00  0.00    -0.624 OA
HETATM   28  O           1     -23.122  -6.198  -5.287  0.00  0.00    -0.624 OA
BRANCH  26  29
HETATM   29  O           1     -21.491  -4.680  -6.479  0.00  0.00    -0.300 OA
HETATM   30  H           1     -22.293  -4.197  -6.384  0.00  0.00     0.223 HD
ENDBRANCH  26  29
ENDBRANCH  25  26
ENDBRANCH  22  25
ENDBRANCH  18  19
ENDBRANCH   1  18
TORSDOF 11
ENDMDL
MODEL 9
REMARK VINA RESULT:      -6.9      2.784      3.962
REMARK  11 active torsions:
REMARK  status: ('A' for Active; 'I' for Inactive)
REMARK       I    between atoms: C_1  and  N_2 
REMARK    1  A    between atoms: C_1  and  C_30 
REMARK    2  A    between atoms: N_2  and  C_6 
REMARK    3  A    between atoms: C_5  and  C_6 
REMARK    4  A    between atoms: C_6  and  C_8 
REMARK    5  A    between atoms: C_8  and  C_9 
REMARK    6  A    between atoms: O_11  and  P_23 
REMARK    7  A    between atoms: N_16  and  C_30 
REMARK    8  A    between atoms: P_23  and  O_24 
REMARK    9  A    between atoms: O_24  and  C_25 
REMARK   10  A    between atoms: C_28  and  C_29 
REMARK   11  A    between atoms: C_29  and  C_30 
ROOT
HETATM    1  C           1     -21.062  -8.598  -5.182  0.00  0.00     0.278 C 
ENDROOT
BRANCH   1   2
HETATM    2  C           1     -20.268  -9.863  -5.401  0.00  0.00     0.249 C 
HETATM    3  N           1     -19.163 -10.120  -4.634  0.00  0.00    -0.344 N 
HETATM    4  H           1     -18.878  -9.461  -3.921  0.00  0.00     0.163 HD
HETATM    5  O           1     -20.608 -10.650  -6.252  0.00  0.00    -0.271 OA
BRANCH   3   6
HETATM    6  C           1     -18.401 -11.335  -4.845  0.00  0.00     0.189 C 
BRANCH   6   7
HETATM    7  C           1     -18.845 -12.384  -3.856  0.00  0.00     0.197 C 
HETATM    8  O           1     -18.332 -12.427  -2.718  0.00  0.00    -0.646 OA
HETATM    9  O           1     -19.726 -13.211  -4.176  0.00  0.00    -0.646 OA
ENDBRANCH   6   7
BRANCH   6  10
HETATM   10  C           1     -16.919 -11.046  -4.647  0.00  0.00     0.014 C 
HETATM   11  C           1     -16.203 -11.130  -5.990  0.00  0.00     0.012 C 
BRANCH  10  12
HETATM   12  C           1     -16.745  -9.649  -4.067  0.00  0.00     0.002 C 
HETATM   13  C           1     -15.976  -9.736  -2.755  0.00  0.00     0.005 C 
ENDBRANCH  10  12
ENDBRANCH   6  10
ENDBRANCH   3   6
ENDBRANCH   1   2
BRANCH   1  14
HETATM   14  N           1     -21.781  -8.681  -3.868  0.00  0.00    -0.066 N 
HETATM   15  H           1     -22.343  -9.561  -3.833  0.00  0.00     0.275 HD
HETATM   16  H           1     -21.083  -8.683  -3.090  0.00  0.00     0.275 HD
HETATM   17  H           1     -22.416  -7.858  -3.765  0.00  0.00     0.275 HD
ENDBRANCH   1  14
BRANCH   1  18
HETATM   18  C           1     -20.118  -7.404  -5.168  0.00  0.00     0.081 C 
BRANCH  18  19
HETATM   19  C           1     -20.632  -6.351  -6.100  0.00  0.00    -0.056 A 
HETATM   20  C           1     -21.871  -5.756  -5.865  0.00  0.00     0.010 A 
HETATM   21  C           1     -22.350  -4.775  -6.735  0.00  0.00     0.038 A 
HETATM   22  C           1     -21.590  -4.390  -7.839  0.00  0.00     0.081 A 
HETATM   23  C           1     -20.351  -4.986  -8.074  0.00  0.00     0.038 A 
HETATM   24  C           1     -19.871  -5.966  -7.205  0.00  0.00     0.010 A 
BRANCH  22  25
HETATM   25  O           1     -22.055  -3.438  -8.683  0.00  0.00    -0.247 OA
BRANCH  25  26
HETATM   26  P           1     -23.295  -3.818  -9.645  0.00  0.00     0.411 P 
HETATM   27  O           1     -23.185  -3.063 -10.913  0.00  0.00    -0.624 OA
HETATM   28  O           1     -23.270  -5.270  -9.931  0.00  0.00    -0.624 OA
BRANCH  26  29
HETATM   29  O           1     -24.683  -3.439  -8.912  0.00  0.00    -0.300 OA
HETATM   30  H           1     -24.428  -3.001  -8.119  0.00  0.00     0.223 HD
ENDBRANCH  26  29
ENDBRANCH  25  26
ENDBRANCH  22  25
ENDBRANCH  18  19
ENDBRANCH   1  18
TORSDOF 11
ENDMDL
