MODEL 1
REMARK VINA RESULT:      -6.3      0.000      0.000
REMARK  8 active torsions:
REMARK  status: ('A' for Active; 'I' for Inactive)
REMARK    1  A    between atoms: N_4  and  C_7 
REMARK    2  A    between atoms: S_5  and  C_6 
REMARK    3  A    between atoms: C_6  and  C_7 
REMARK    4  A    between atoms: C_7  and  C_8 
REMARK       I    between atoms: C_8  and  N_9 
REMARK    5  A    between atoms: N_9  and  C_18 
REMARK    6  A    between atoms: C_18  and  C_20 
REMARK    7  A    between atoms: C_18  and  C_22 
REMARK    8  A    between atoms: C_22  and  C_23 
ROOT
HETATM    1  C           1     -21.634  -6.408  -4.681  0.00  0.00     0.249 C 
HETATM    2  N           1     -22.225  -5.660  -5.664  0.00  0.00    -0.344 N 
HETATM    3  O           1     -20.896  -5.882  -3.883  0.00  0.00    -0.271 OA
HETATM    4  H           1     -23.125  -5.229  -5.499  0.00  0.00     0.163 HD
ENDROOT
BRANCH   2   5
HETATM    5  C           1     -21.560  -5.487  -6.941  0.00  0.00     0.189 C 
BRANCH   5   6
HETATM    6  C           1     -20.066  -5.559  -6.743  0.00  0.00     0.197 C 
HETATM    7  O           1     -19.438  -4.552  -6.353  0.00  0.00    -0.646 OA
HETATM    8  O           1     -19.456  -6.626  -6.971  0.00  0.00    -0.646 OA
ENDBRANCH   5   6
BRANCH   5   9
HETATM    9  C           1     -21.931  -4.130  -7.526  0.00  0.00     0.074 C 
BRANCH   9  10
HETATM   10  C           1     -21.891  -4.204  -9.021  0.00  0.00    -0.056 A 
HETATM   11  C           1     -20.705  -3.931  -9.701  0.00  0.00     0.007 A 
HETATM   12  C           1     -20.668  -4.000 -11.095  0.00  0.00     0.001 A 
HETATM   13  C           1     -21.819  -4.341 -11.806  0.00  0.00     0.000 A 
HETATM   14  C           1     -23.004  -4.614 -11.125  0.00  0.00     0.001 A 
HETATM   15  C           1     -23.041  -4.545  -9.733  0.00  0.00     0.007 A 
ENDBRANCH   9  10
ENDBRANCH   5   9
ENDBRANCH   2   5
BRANCH   1  16
HETATM   16  C           1     -21.906  -7.890  -4.596  0.00  0.00     0.283 C 
BRANCH  16  17
HETATM   17  N           1     -21.101  -8.606  -5.639  0.00  0.00    -0.066 N 
HETATM   18  H           1     -20.129  -8.759  -5.286  0.00  0.00     0.275 HD
HETATM   19  H           1     -21.544  -9.528  -5.848  0.00  0.00     0.275 HD
HETATM   20  H           1     -21.067  -8.029  -6.511  0.00  0.00     0.275 HD
ENDBRANCH  16  17
BRANCH  16  21
HETATM   21  C           1     -21.514  -8.400  -3.215  0.00  0.00     0.113 C 
BRANCH  21  22
HETATM   22  S           1     -21.495 -10.214  -3.220  0.00  0.00    -0.180 SA
HETATM   23  H           1     -21.395 -10.357  -1.887  0.00  0.00     0.101 HD
ENDBRANCH  21  22
ENDBRANCH  16  21
ENDBRANCH   1  16
TORSDOF 8
ENDMDL
MODEL 2
REMARK VINA RESULT:      -6.2      4.175      7.090
REMARK  8 active torsions:
REMARK  status: ('A' for Active; 'I' for Inactive)
REMARK    1  A    between atoms: N_4  and  C_7 
REMARK    2  A    between atoms: S_5  and  C_6 
REMARK    3  A    between atoms: C_6  and  C_7 
REMARK    4  A    between atoms: C_7  and  C_8 
REMARK       I    between atoms: C_8  and  N_9 
REMARK    5  A    between atoms: N_9  and  C_18 
REMARK    6  A    between atoms: C_18  and  C_20 
REMARK    7  A    between atoms: C_18  and  C_22 
REMARK    8  A    between atoms: C_22  and  C_23 
ROOT
HETATM    1  C           1     -19.386  -9.567  -4.796  0.00  0.00     0.249 C 
HETATM    2  N           1     -19.709  -8.253  -4.590  0.00  0.00    -0.344 N 
HETATM    3  O           1     -19.547 -10.065  -5.886  0.00  0.00    -0.271 OA
HETATM    4  H           1     -19.017  -7.532  -4.741  0.00  0.00     0.163 HD
ENDROOT
BRANCH   2   5
HETATM    5  C           1     -21.045  -7.896  -4.153  0.00  0.00     0.189 C 
BRANCH   5   6
HETATM    6  C           1     -21.712  -7.054  -5.213  0.00  0.00     0.197 C 
HETATM    7  O           1     -21.294  -7.085  -6.390  0.00  0.00    -0.646 OA
HETATM    8  O           1     -22.682  -6.326  -4.914  0.00  0.00    -0.646 OA
ENDBRANCH   5   6
BRANCH   5   9
HETATM    9  C           1     -20.960  -7.106  -2.854  0.00  0.00     0.074 C 
BRANCH   9  10
HETATM   10  C           1     -21.718  -7.825  -1.781  0.00  0.00    -0.056 A 
HETATM   11  C           1     -22.301  -7.106  -0.738  0.00  0.00     0.007 A 
HETATM   12  C           1     -23.007  -7.777   0.262  0.00  0.00     0.001 A 
HETATM   13  C           1     -23.128  -9.166   0.217  0.00  0.00     0.000 A 
HETATM   14  C           1     -22.544  -9.884  -0.827  0.00  0.00     0.001 A 
HETATM   15  C           1     -21.839  -9.213  -1.826  0.00  0.00     0.007 A 
ENDBRANCH   9  10
ENDBRANCH   5   9
ENDBRANCH   2   5
BRANCH   1  16
HETATM   16  C           1     -18.827 -10.394  -3.664  0.00  0.00     0.283 C 
BRANCH  16  17
HETATM   17  N           1     -17.949 -11.475  -4.219  0.00  0.00    -0.066 N 
HETATM   18  H           1     -17.476 -11.130  -5.085  0.00  0.00     0.275 HD
HETATM   19  H           1     -17.230 -11.737  -3.510  0.00  0.00     0.275 HD
HETATM   20  H           1     -18.532 -12.312  -4.453  0.00  0.00     0.275 HD
ENDBRANCH  16  17
BRANCH  16  21
HETATM   21  C           1     -18.009  -9.501  -2.739  0.00  0.00     0.113 C 
BRANCH  21  22
HETATM   22  S           1     -16.244  -9.693  -3.116  0.00  0.00    -0.180 SA
HETATM   23  H           1     -16.265  -8.972  -4.252  0.00  0.00     0.101 HD
ENDBRANCH  21  22
ENDBRANCH  16  21
ENDBRANCH   1  16
TORSDOF 8
ENDMDL
MODEL 3
REMARK VINA RESULT:      -6.1      3.273      6.956
REMARK  8 active torsions:
REMARK  status: ('A' for Active; 'I' for Inactive)
REMARK    1  A    between atoms: N_4  and  C_7 
REMARK    2  A    between atoms: S_5  and  C_6 
REMARK    3  A    between atoms: C_6  and  C_7 
REMARK    4  A    between atoms: C_7  and  C_8 
REMARK       I    between atoms: C_8  and  N_9 
REMARK    5  A    between atoms: N_9  and  C_18 
REMARK    6  A    between atoms: C_18  and  C_20 
REMARK    7  A    between atoms: C_18  and  C_22 
REMARK    8  A    between atoms: C_22  and  C_23 
ROOT
HETATM    1  C           1     -20.470  -6.804  -6.129  0.00  0.00     0.249 C 
HETATM    2  N           1     -20.825  -8.028  -5.628  0.00  0.00    -0.344 N 
HETATM    3  O           1     -19.583  -6.721  -6.946  0.00  0.00    -0.271 OA
HETATM    4  H           1     -21.541  -8.574  -6.087  0.00  0.00     0.163 HD
ENDROOT
BRANCH   2   5
HETATM    5  C           1     -20.174  -8.540  -4.437  0.00  0.00     0.189 C 
BRANCH   5   6
HETATM    6  C           1     -18.942  -9.317  -4.833  0.00  0.00     0.197 C 
HETATM    7  O           1     -17.957  -9.360  -4.065  0.00  0.00    -0.646 OA
HETATM    8  O           1     -18.906  -9.917  -5.929  0.00  0.00    -0.646 OA
ENDBRANCH   5   6
BRANCH   5   9
HETATM    9  C           1     -21.133  -9.455  -3.687  0.00  0.00     0.074 C 
BRANCH   9  10
HETATM   10  C           1     -21.631  -8.758  -2.459  0.00  0.00    -0.056 A 
HETATM   11  C           1     -21.681  -7.365  -2.421  0.00  0.00     0.007 A 
HETATM   12  C           1     -22.145  -6.716  -1.275  0.00  0.00     0.001 A 
HETATM   13  C           1     -22.558  -7.461  -0.170  0.00  0.00     0.000 A 
HETATM   14  C           1     -22.507  -8.854  -0.211  0.00  0.00     0.001 A 
HETATM   15  C           1     -22.043  -9.503  -1.354  0.00  0.00     0.007 A 
ENDBRANCH   9  10
ENDBRANCH   5   9
ENDBRANCH   2   5
BRANCH   1  16
HETATM   16  C           1     -21.186  -5.561  -5.661  0.00  0.00     0.283 C 
BRANCH  16  17
HETATM   17  N           1     -20.185  -4.474  -5.407  0.00  0.00    -0.066 N 
HETATM   18  H           1     -19.250  -4.898  -5.214  0.00  0.00     0.275 HD
HETATM   19  H           1     -20.121  -3.857  -6.248  0.00  0.00     0.275 HD
HETATM   20  H           1     -20.487  -3.908  -4.581  0.00  0.00     0.275 HD
ENDBRANCH  16  17
BRANCH  16  21
HETATM   21  C           1     -22.168  -5.107  -6.734  0.00  0.00     0.113 C 
BRANCH  21  22
HETATM   22  S           1     -21.454  -3.719  -7.660  0.00  0.00    -0.180 SA
HETATM   23  H           1     -20.256  -4.292  -7.871  0.00  0.00     0.101 HD
ENDBRANCH  21  22
ENDBRANCH  16  21
ENDBRANCH   1  16
TORSDOF 8
ENDMDL
MODEL 4
REMARK VINA RESULT:      -6.0      6.257      8.565
REMARK  8 active torsions:
REMARK  status: ('A' for Active; 'I' for Inactive)
REMARK    1  A    between atoms: N_4  and  C_7 
REMARK    2  A    between atoms: S_5  and  C_6 
REMARK    3  A    between atoms: C_6  and  C_7 
REMARK    4  A    between atoms: C_7  and  C_8 
REMARK       I    between atoms: C_8  and  N_9 
REMARK    5  A    between atoms: N_9  and  C_18 
REMARK    6  A    between atoms: C_18  and  C_20 
REMARK    7  A    between atoms: C_18  and  C_22 
REMARK    8  A    between atoms: C_22  and  C_23 
ROOT
HETATM    1  C           1     -19.533  -8.999  -3.035  0.00  0.00     0.249 C 
HETATM    2  N           1     -19.974  -8.119  -2.083  0.00  0.00    -0.344 N 
HETATM    3  O           1     -19.639  -8.724  -4.206  0.00  0.00    -0.271 OA
HETATM    4  H           1     -19.347  -7.417  -1.713  0.00  0.00     0.163 HD
ENDROOT
BRANCH   2   5
HETATM    5  C           1     -21.341  -8.195  -1.604  0.00  0.00     0.189 C 
BRANCH   5   6
HETATM    6  C           1     -22.013  -6.857  -1.789  0.00  0.00     0.197 C 
HETATM    7  O           1     -21.878  -6.233  -2.863  0.00  0.00    -0.646 OA
HETATM    8  O           1     -22.704  -6.371  -0.868  0.00  0.00    -0.646 OA
ENDBRANCH   5   6
BRANCH   5   9
HETATM    9  C           1     -21.342  -8.565  -0.127  0.00  0.00     0.074 C 
BRANCH   9  10
HETATM   10  C           1     -22.021  -9.886   0.057  0.00  0.00    -0.056 A 
HETATM   11  C           1     -21.307 -10.973   0.561  0.00  0.00     0.007 A 
HETATM   12  C           1     -21.941 -12.205   0.732  0.00  0.00     0.001 A 
HETATM   13  C           1     -23.287 -12.348   0.398  0.00  0.00     0.000 A 
HETATM   14  C           1     -24.000 -11.261  -0.106  0.00  0.00     0.001 A 
HETATM   15  C           1     -23.367 -10.030  -0.277  0.00  0.00     0.007 A 
ENDBRANCH   9  10
ENDBRANCH   5   9
ENDBRANCH   2   5
BRANCH   1  16
HETATM   16  C           1     -18.916 -10.312  -2.620  0.00  0.00     0.283 C 
BRANCH  16  17
HETATM   17  N           1     -19.931 -11.407  -2.756  0.00  0.00    -0.066 N 
HETATM   18  H           1     -20.350 -11.612  -1.821  0.00  0.00     0.275 HD
HETATM   19  H           1     -20.683 -11.104  -3.415  0.00  0.00     0.275 HD
HETATM   20  H           1     -19.468 -12.268  -3.125  0.00  0.00     0.275 HD
ENDBRANCH  16  17
BRANCH  16  21
HETATM   21  C           1     -17.720 -10.615  -3.513  0.00  0.00     0.113 C 
BRANCH  21  22
HETATM   22  S           1     -16.284  -9.659  -2.949  0.00  0.00    -0.180 SA
HETATM   23  H           1     -15.774 -10.624  -2.163  0.00  0.00     0.101 HD
ENDBRANCH  21  22
ENDBRANCH  16  21
ENDBRANCH   1  16
TORSDOF 8
ENDMDL
MODEL 5
REMARK VINA RESULT:      -6.0      4.566      8.886
REMARK  8 active torsions:
REMARK  status: ('A' for Active; 'I' for Inactive)
REMARK    1  A    between atoms: N_4  and  C_7 
REMARK    2  A    between atoms: S_5  and  C_6 
REMARK    3  A    between atoms: C_6  and  C_7 
REMARK    4  A    between atoms: C_7  and  C_8 
REMARK       I    between atoms: C_8  and  N_9 
REMARK    5  A    between atoms: N_9  and  C_18 
REMARK    6  A    between atoms: C_18  and  C_20 
REMARK    7  A    between atoms: C_18  and  C_22 
REMARK    8  A    between atoms: C_22  and  C_23 
ROOT
HETATM    1  C           1     -21.650  -6.736  -2.776  0.00  0.00     0.249 C 
HETATM    2  N           1     -21.042  -7.605  -1.909  0.00  0.00    -0.344 N 
HETATM    3  O           1     -22.047  -5.666  -2.379  0.00  0.00    -0.271 OA
HETATM    4  H           1     -20.041  -7.568  -1.775  0.00  0.00     0.163 HD
ENDROOT
BRANCH   2   5
HETATM    5  C           1     -21.836  -8.578  -1.185  0.00  0.00     0.189 C 
BRANCH   5   6
HETATM    6  C           1     -22.304  -7.976   0.117  0.00  0.00     0.197 C 
HETATM    7  O           1     -21.541  -7.956   1.106  0.00  0.00    -0.646 OA
HETATM    8  O           1     -23.455  -7.498   0.207  0.00  0.00    -0.646 OA
ENDBRANCH   5   6
BRANCH   5   9
HETATM    9  C           1     -20.990  -9.812  -0.900  0.00  0.00     0.074 C 
BRANCH   9  10
HETATM   10  C           1     -21.874 -10.928  -0.437  0.00  0.00    -0.056 A 
HETATM   11  C           1     -21.468 -11.749   0.615  0.00  0.00     0.007 A 
HETATM   12  C           1     -22.293 -12.789   1.046  0.00  0.00     0.001 A 
HETATM   13  C           1     -23.523 -13.007   0.424  0.00  0.00     0.000 A 
HETATM   14  C           1     -23.928 -12.186  -0.628  0.00  0.00     0.001 A 
HETATM   15  C           1     -23.104 -11.146  -1.059  0.00  0.00     0.007 A 
ENDBRANCH   9  10
ENDBRANCH   5   9
ENDBRANCH   2   5
BRANCH   1  16
HETATM   16  C           1     -21.821  -7.115  -4.227  0.00  0.00     0.283 C 
BRANCH  16  17
HETATM   17  N           1     -22.866  -6.239  -4.852  0.00  0.00    -0.066 N 
HETATM   18  H           1     -22.502  -5.263  -4.928  0.00  0.00     0.275 HD
HETATM   19  H           1     -23.098  -6.600  -5.804  0.00  0.00     0.275 HD
HETATM   20  H           1     -23.726  -6.244  -4.256  0.00  0.00     0.275 HD
ENDBRANCH  16  17
BRANCH  16  21
HETATM   21  C           1     -20.499  -6.929  -4.960  0.00  0.00     0.113 C 
BRANCH  21  22
HETATM   22  S           1     -20.432  -5.263  -5.677  0.00  0.00    -0.180 SA
HETATM   23  H           1     -21.762  -5.114  -5.808  0.00  0.00     0.101 HD
ENDBRANCH  21  22
ENDBRANCH  16  21
ENDBRANCH   1  16
TORSDOF 8
ENDMDL
MODEL 6
REMARK VINA RESULT:      -6.0     12.609     14.261
REMARK  8 active torsions:
REMARK  status: ('A' for Active; 'I' for Inactive)
REMARK    1  A    between atoms: N_4  and  C_7 
REMARK    2  A    between atoms: S_5  and  C_6 
REMARK    3  A    between atoms: C_6  and  C_7 
REMARK    4  A    between atoms: C_7  and  C_8 
REMARK       I    between atoms: C_8  and  N_9 
REMARK    5  A    between atoms: N_9  and  C_18 
REMARK    6  A    between atoms: C_18  and  C_20 
REMARK    7  A    between atoms: C_18  and  C_22 
REMARK    8  A    between atoms: C_22  and  C_23 
ROOT
HETATM    1  C           1     -34.181  -3.886 -14.602  0.00  0.00     0.249 C 
HETATM    2  N           1     -33.800  -4.585 -15.716  0.00  0.00    -0.344 N 
HETATM    3  O           1     -34.658  -2.781 -14.716  0.00  0.00    -0.271 OA
HETATM    4  H           1     -34.460  -5.194 -16.181  0.00  0.00     0.163 HD
ENDROOT
BRANCH   2   5
HETATM    5  C           1     -32.450  -4.452 -16.228  0.00  0.00     0.189 C 
BRANCH   5   6
HETATM    6  C           1     -32.406  -3.340 -17.246  0.00  0.00     0.197 C 
HETATM    7  O           1     -31.306  -2.911 -17.656  0.00  0.00    -0.646 OA
HETATM    8  O           1     -33.469  -2.847 -17.680  0.00  0.00    -0.646 OA
ENDBRANCH   5   6
BRANCH   5   9
HETATM    9  C           1     -32.025  -5.759 -16.884  0.00  0.00     0.074 C 
BRANCH   9  10
HETATM   10  C           1     -30.530  -5.841 -16.912  0.00  0.00    -0.056 A 
HETATM   11  C           1     -29.873  -6.197 -18.089  0.00  0.00     0.007 A 
HETATM   12  C           1     -28.480  -6.274 -18.114  0.00  0.00     0.001 A 
HETATM   13  C           1     -27.746  -5.994 -16.961  0.00  0.00     0.000 A 
HETATM   14  C           1     -28.404  -5.638 -15.784  0.00  0.00     0.001 A 
HETATM   15  C           1     -29.796  -5.562 -15.759  0.00  0.00     0.007 A 
ENDBRANCH   9  10
ENDBRANCH   5   9
ENDBRANCH   2   5
BRANCH   1  16
HETATM   16  C           1     -34.007  -4.496 -13.233  0.00  0.00     0.283 C 
BRANCH  16  17
HETATM   17  N           1     -32.551  -4.501 -12.870  0.00  0.00    -0.066 N 
HETATM   18  H           1     -32.164  -5.463 -12.997  0.00  0.00     0.275 HD
HETATM   19  H           1     -32.037  -3.834 -13.488  0.00  0.00     0.275 HD
HETATM   20  H           1     -32.440  -4.211 -11.872  0.00  0.00     0.275 HD
ENDBRANCH  16  17
BRANCH  16  21
HETATM   21  C           1     -34.781  -3.675 -12.209  0.00  0.00     0.113 C 
BRANCH  21  22
HETATM   22  S           1     -33.646  -3.084 -10.922  0.00  0.00    -0.180 SA
HETATM   23  H           1     -34.486  -2.168 -10.406  0.00  0.00     0.101 HD
ENDBRANCH  21  22
ENDBRANCH  16  21
ENDBRANCH   1  16
TORSDOF 8
ENDMDL
MODEL 7
REMARK VINA RESULT:      -6.0      4.880      7.594
REMARK  8 active torsions:
REMARK  status: ('A' for Active; 'I' for Inactive)
REMARK    1  A    between atoms: N_4  and  C_7 
REMARK    2  A    between atoms: S_5  and  C_6 
REMARK    3  A    between atoms: C_6  and  C_7 
REMARK    4  A    between atoms: C_7  and  C_8 
REMARK       I    between atoms: C_8  and  N_9 
REMARK    5  A    between atoms: N_9  and  C_18 
REMARK    6  A    between atoms: C_18  and  C_20 
REMARK    7  A    between atoms: C_18  and  C_22 
REMARK    8  A    between atoms: C_22  and  C_23 
ROOT
HETATM    1  C           1     -20.702  -8.713  -4.981  0.00  0.00     0.249 C 
HETATM    2  N           1     -20.506  -8.052  -3.798  0.00  0.00    -0.344 N 
HETATM    3  O           1     -21.121  -8.116  -5.944  0.00  0.00    -0.271 OA
HETATM    4  H           1     -19.613  -7.621  -3.602  0.00  0.00     0.163 HD
ENDROOT
BRANCH   2   5
HETATM    5  C           1     -21.580  -7.972  -2.827  0.00  0.00     0.189 C 
BRANCH   5   6
HETATM    6  C           1     -21.830  -6.527  -2.473  0.00  0.00     0.197 C 
HETATM    7  O           1     -22.489  -6.239  -1.451  0.00  0.00    -0.646 OA
HETATM    8  O           1     -21.378  -5.617  -3.201  0.00  0.00    -0.646 OA
ENDBRANCH   5   6
BRANCH   5   9
HETATM    9  C           1     -21.188  -8.743  -1.573  0.00  0.00     0.074 C 
BRANCH   9  10
HETATM   10  C           1     -22.203  -9.811  -1.306  0.00  0.00    -0.056 A 
HETATM   11  C           1     -22.277 -10.926  -2.139  0.00  0.00     0.007 A 
HETATM   12  C           1     -23.224 -11.921  -1.890  0.00  0.00     0.001 A 
HETATM   13  C           1     -24.094 -11.799  -0.807  0.00  0.00     0.000 A 
HETATM   14  C           1     -24.019 -10.683   0.026  0.00  0.00     0.001 A 
HETATM   15  C           1     -23.073  -9.689  -0.223  0.00  0.00     0.007 A 
ENDBRANCH   9  10
ENDBRANCH   5   9
ENDBRANCH   2   5
BRANCH   1  16
HETATM   16  C           1     -20.394 -10.187  -5.081  0.00  0.00     0.283 C 
BRANCH  16  17
HETATM   17  N           1     -20.984 -10.736  -6.346  0.00  0.00    -0.066 N 
HETATM   18  H           1     -20.229 -11.168  -6.925  0.00  0.00     0.275 HD
HETATM   19  H           1     -21.699 -11.460  -6.110  0.00  0.00     0.275 HD
HETATM   20  H           1     -21.435  -9.961  -6.885  0.00  0.00     0.275 HD
ENDBRANCH  16  17
BRANCH  16  21
HETATM   21  C           1     -18.884 -10.390  -5.096  0.00  0.00     0.113 C 
BRANCH  21  22
HETATM   22  S           1     -18.355 -11.122  -3.522  0.00  0.00    -0.180 SA
HETATM   23  H           1     -18.863 -12.344  -3.758  0.00  0.00     0.101 HD
ENDBRANCH  21  22
ENDBRANCH  16  21
ENDBRANCH   1  16
TORSDOF 8
ENDMDL
MODEL 8
REMARK VINA RESULT:      -5.9     10.976     12.771
REMARK  8 active torsions:
REMARK  status: ('A' for Active; 'I' for Inactive)
REMARK    1  A    between atoms: N_4  and  C_7 
REMARK    2  A    between atoms: S_5  and  C_6 
REMARK    3  A    between atoms: C_6  and  C_7 
REMARK    4  A    between atoms: C_7  and  C_8 
REMARK       I    between atoms: C_8  and  N_9 
REMARK    5  A    between atoms: N_9  and  C_18 
REMARK    6  A    between atoms: C_18  and  C_20 
REMARK    7  A    between atoms: C_18  and  C_22 
REMARK    8  A    between atoms: C_22  and  C_23 
ROOT
HETATM    1  C           1     -28.844  -5.144 -16.200  0.00  0.00     0.249 C 
HETATM    2  N           1     -27.527  -5.151 -16.574  0.00  0.00    -0.344 N 
HETATM    3  O           1     -29.140  -5.251 -15.033  0.00  0.00    -0.271 OA
HETATM    4  H           1     -27.011  -4.283 -16.626  0.00  0.00     0.163 HD
ENDROOT
BRANCH   2   5
HETATM    5  C           1     -26.873  -6.404 -16.898  0.00  0.00     0.189 C 
BRANCH   5   6
HETATM    6  C           1     -26.662  -7.202 -15.635  0.00  0.00     0.197 C 
HETATM    7  O           1     -25.528  -7.253 -15.110  0.00  0.00    -0.646 OA
HETATM    8  O           1     -27.619  -7.812 -15.113  0.00  0.00    -0.646 OA
ENDBRANCH   5   6
BRANCH   5   9
HETATM    9  C           1     -25.527  -6.121 -17.552  0.00  0.00     0.074 C 
BRANCH   9  10
HETATM   10  C           1     -25.476  -6.778 -18.896  0.00  0.00    -0.056 A 
HETATM   11  C           1     -24.274  -7.302 -19.370  0.00  0.00     0.007 A 
HETATM   12  C           1     -24.226  -7.915 -20.623  0.00  0.00     0.001 A 
HETATM   13  C           1     -25.382  -8.003 -21.400  0.00  0.00     0.000 A 
HETATM   14  C           1     -26.583  -7.479 -20.924  0.00  0.00     0.001 A 
HETATM   15  C           1     -26.631  -6.866 -19.673  0.00  0.00     0.007 A 
ENDBRANCH   9  10
ENDBRANCH   5   9
ENDBRANCH   2   5
BRANCH   1  16
HETATM   16  C           1     -29.924  -5.002 -17.244  0.00  0.00     0.283 C 
BRANCH  16  17
HETATM   17  N           1     -29.295  -4.865 -18.598  0.00  0.00    -0.066 N 
HETATM   18  H           1     -29.599  -3.966 -19.035  0.00  0.00     0.275 HD
HETATM   19  H           1     -28.255  -4.871 -18.500  0.00  0.00     0.275 HD
HETATM   20  H           1     -29.594  -5.664 -19.204  0.00  0.00     0.275 HD
ENDBRANCH  16  17
BRANCH  16  21
HETATM   21  C           1     -30.817  -6.237 -17.222  0.00  0.00     0.113 C 
BRANCH  21  22
HETATM   22  S           1     -30.106  -7.518 -18.292  0.00  0.00    -0.180 SA
HETATM   23  H           1     -30.442  -6.932 -19.455  0.00  0.00     0.101 HD
ENDBRANCH  21  22
ENDBRANCH  16  21
ENDBRANCH   1  16
TORSDOF 8
ENDMDL
MODEL 9
REMARK VINA RESULT:      -5.9     15.075     16.608
REMARK  8 active torsions:
REMARK  status: ('A' for Active; 'I' for Inactive)
REMARK    1  A    between atoms: N_4  and  C_7 
REMARK    2  A    between atoms: S_5  and  C_6 
REMARK    3  A    between atoms: C_6  and  C_7 
REMARK    4  A    between atoms: C_7  and  C_8 
REMARK       I    between atoms: C_8  and  N_9 
REMARK    5  A    between atoms: N_9  and  C_18 
REMARK    6  A    between atoms: C_18  and  C_20 
REMARK    7  A    between atoms: C_18  and  C_22 
REMARK    8  A    between atoms: C_22  and  C_23 
ROOT
HETATM    1  C           1     -34.471  -2.449 -12.748  0.00  0.00     0.249 C 
HETATM    2  N           1     -34.776  -1.115 -12.796  0.00  0.00    -0.344 N 
HETATM    3  O           1     -34.659  -3.146 -13.717  0.00  0.00    -0.271 OA
HETATM    4  H           1     -34.079  -0.447 -13.097  0.00  0.00     0.163 HD
ENDROOT
BRANCH   2   5
HETATM    5  C           1     -36.099  -0.661 -12.414  0.00  0.00     0.189 C 
BRANCH   5   6
HETATM    6  C           1     -36.900  -0.347 -13.653  0.00  0.00     0.197 C 
HETATM    7  O           1     -38.075  -0.761 -13.759  0.00  0.00    -0.646 OA
HETATM    8  O           1     -36.389   0.325 -14.575  0.00  0.00    -0.646 OA
ENDBRANCH   5   6
BRANCH   5   9
HETATM    9  C           1     -35.977   0.593 -11.557  0.00  0.00     0.074 C 
BRANCH   9  10
HETATM   10  C           1     -36.662   0.369 -10.244  0.00  0.00    -0.056 A 
HETATM   11  C           1     -37.073   1.458  -9.477  0.00  0.00     0.007 A 
HETATM   12  C           1     -37.711   1.248  -8.254  0.00  0.00     0.001 A 
HETATM   13  C           1     -37.937  -0.051  -7.799  0.00  0.00     0.000 A 
HETATM   14  C           1     -37.526  -1.140  -8.568  0.00  0.00     0.001 A 
HETATM   15  C           1     -36.889  -0.931  -9.790  0.00  0.00     0.007 A 
ENDBRANCH   9  10
ENDBRANCH   5   9
ENDBRANCH   2   5
BRANCH   1  16
HETATM   16  C           1     -33.899  -3.047 -11.486  0.00  0.00     0.283 C 
BRANCH  16  17
HETATM   17  N           1     -33.559  -1.949 -10.523  0.00  0.00    -0.066 N 
HETATM   18  H           1     -32.554  -1.688 -10.633  0.00  0.00     0.275 HD
HETATM   19  H           1     -34.159  -1.117 -10.718  0.00  0.00     0.275 HD
HETATM   20  H           1     -33.727  -2.280  -9.545  0.00  0.00     0.275 HD
ENDBRANCH  16  17
BRANCH  16  21
HETATM   21  C           1     -34.928  -3.977 -10.854  0.00  0.00     0.113 C 
BRANCH  21  22
HETATM   22  S           1     -34.247  -5.656 -10.755  0.00  0.00    -0.180 SA
HETATM   23  H           1     -33.902  -5.591  -9.456  0.00  0.00     0.101 HD
ENDBRANCH  21  22
ENDBRANCH  16  21
ENDBRANCH   1  16
TORSDOF 8
ENDMDL
