MODEL 1
REMARK VINA RESULT:      -6.7      0.000      0.000
REMARK  9 active torsions:
REMARK  status: ('A' for Active; 'I' for Inactive)
REMARK    1  A    between atoms: N_6  and  C_20 
REMARK       I    between atoms: N_6  and  C_7 
REMARK    2  A    between atoms: C_7  and  C_24 
REMARK    3  A    between atoms: N_8  and  C_24 
REMARK    4  A    between atoms: C_11  and  C_24 
REMARK    5  A    between atoms: C_11  and  C_12 
REMARK    6  A    between atoms: C_12  and  C_13 
REMARK       I    between atoms: C_13  and  N_22 
REMARK    7  A    between atoms: C_19  and  C_20 
REMARK    8  A    between atoms: C_20  and  C_21 
REMARK    9  A    between atoms: C_21  and  C_23 
ROOT
HETATM    1  N           1     -35.448  -2.206 -12.121  0.00  0.00    -0.345 N 
HETATM    2  C           1     -34.324  -2.840 -11.665  0.00  0.00     0.249 C 
HETATM    3  O           1     -33.547  -2.253 -10.950  0.00  0.00    -0.271 OA
HETATM    4  H           1     -36.100  -2.697 -12.719  0.00  0.00     0.163 HD
ENDROOT
BRANCH   2   5
HETATM    5  C           1     -34.055  -4.273 -12.056  0.00  0.00     0.275 C 
BRANCH   5   6
HETATM    6  N           1     -32.586  -4.455 -12.299  0.00  0.00    -0.066 N 
HETATM    7  H           1     -32.274  -5.365 -11.889  0.00  0.00     0.275 HD
HETATM    8  H           1     -32.400  -4.455 -13.327  0.00  0.00     0.275 HD
HETATM    9  H           1     -32.058  -3.672 -11.849  0.00  0.00     0.275 HD
ENDBRANCH   5   6
BRANCH   5  10
HETATM   10  C           1     -34.501  -5.199 -10.932  0.00  0.00     0.052 C 
BRANCH  10  11
HETATM   11  C           1     -33.543  -6.378 -10.835  0.00  0.00     0.105 C 
BRANCH  11  12
HETATM   12  C           1     -34.240  -7.541 -10.172  0.00  0.00     0.215 C 
HETATM   13  N           1     -33.686  -8.791 -10.225  0.00  0.00    -0.370 N 
HETATM   14  H           1     -34.154  -9.572  -9.781  0.00  0.00     0.159 HD
HETATM   15  H           1     -32.809  -8.937 -10.710  0.00  0.00     0.159 HD
HETATM   16  O           1     -35.287  -7.368  -9.594  0.00  0.00    -0.274 OA
ENDBRANCH  11  12
ENDBRANCH  10  11
ENDBRANCH   5  10
ENDBRANCH   2   5
BRANCH   1  17
HETATM   17  C           1     -35.707  -0.830 -11.744  0.00  0.00     0.185 C 
BRANCH  17  18
HETATM   18  C           1     -36.626  -0.800 -10.548  0.00  0.00     0.196 C 
HETATM   19  O           1     -37.843  -1.048 -10.688  0.00  0.00    -0.646 OA
HETATM   20  O           1     -36.170  -0.528  -9.416  0.00  0.00    -0.646 OA
ENDBRANCH  17  18
BRANCH  17  21
HETATM   21  C           1     -36.365  -0.101 -12.908  0.00  0.00     0.040 C 
BRANCH  21  22
HETATM   22  C           1     -35.411  -0.076 -14.095  0.00  0.00    -0.020 C 
HETATM   23  C           1     -36.212  -0.098 -15.390  0.00  0.00     0.009 C 
HETATM   24  C           1     -34.567   1.191 -14.041  0.00  0.00     0.009 C 
ENDBRANCH  21  22
ENDBRANCH  17  21
ENDBRANCH   1  17
TORSDOF 9
ENDMDL
MODEL 2
REMARK VINA RESULT:      -6.6      9.880     11.289
REMARK  9 active torsions:
REMARK  status: ('A' for Active; 'I' for Inactive)
REMARK    1  A    between atoms: N_6  and  C_20 
REMARK       I    between atoms: N_6  and  C_7 
REMARK    2  A    between atoms: C_7  and  C_24 
REMARK    3  A    between atoms: N_8  and  C_24 
REMARK    4  A    between atoms: C_11  and  C_24 
REMARK    5  A    between atoms: C_11  and  C_12 
REMARK    6  A    between atoms: C_12  and  C_13 
REMARK       I    between atoms: C_13  and  N_22 
REMARK    7  A    between atoms: C_19  and  C_20 
REMARK    8  A    between atoms: C_20  and  C_21 
REMARK    9  A    between atoms: C_21  and  C_23 
ROOT
HETATM    1  N           1     -27.738  -6.583 -17.183  0.00  0.00    -0.345 N 
HETATM    2  C           1     -26.591  -6.895 -16.505  0.00  0.00     0.249 C 
HETATM    3  O           1     -26.653  -7.321 -15.375  0.00  0.00    -0.271 OA
HETATM    4  H           1     -27.687  -6.228 -18.129  0.00  0.00     0.163 HD
ENDROOT
BRANCH   2   5
HETATM    5  C           1     -25.248  -6.709 -17.167  0.00  0.00     0.275 C 
BRANCH   5   6
HETATM    6  N           1     -24.310  -7.784 -16.703  0.00  0.00    -0.066 N 
HETATM    7  H           1     -24.861  -8.606 -16.365  0.00  0.00     0.275 HD
HETATM    8  H           1     -23.698  -8.078 -17.496  0.00  0.00     0.275 HD
HETATM    9  H           1     -23.719  -7.416 -15.923  0.00  0.00     0.275 HD
ENDBRANCH   5   6
BRANCH   5  10
HETATM   10  C           1     -25.410  -6.795 -18.679  0.00  0.00     0.052 C 
BRANCH  10  11
HETATM   11  C           1     -24.065  -7.120 -19.316  0.00  0.00     0.105 C 
BRANCH  11  12
HETATM   12  C           1     -24.281  -7.977 -20.539  0.00  0.00     0.215 C 
HETATM   13  N           1     -23.251  -8.726 -21.040  0.00  0.00    -0.370 N 
HETATM   14  H           1     -23.395  -9.302 -21.860  0.00  0.00     0.159 HD
HETATM   15  H           1     -22.344  -8.705 -20.590  0.00  0.00     0.159 HD
HETATM   16  O           1     -25.363  -8.002 -21.076  0.00  0.00    -0.274 OA
ENDBRANCH  11  12
ENDBRANCH  10  11
ENDBRANCH   5  10
ENDBRANCH   2   5
BRANCH   1  17
HETATM   17  C           1     -29.029  -6.764 -16.546  0.00  0.00     0.185 C 
BRANCH  17  18
HETATM   18  C           1     -29.975  -7.438 -17.509  0.00  0.00     0.196 C 
HETATM   19  O           1     -29.530  -8.219 -18.378  0.00  0.00    -0.646 OA
HETATM   20  O           1     -31.202  -7.216 -17.436  0.00  0.00    -0.646 OA
ENDBRANCH  17  18
BRANCH  17  21
HETATM   21  C           1     -29.591  -5.407 -16.147  0.00  0.00     0.040 C 
BRANCH  21  22
HETATM   22  C           1     -29.416  -4.426 -17.298  0.00  0.00    -0.020 C 
HETATM   23  C           1     -30.751  -3.758 -17.602  0.00  0.00     0.009 C 
HETATM   24  C           1     -28.394  -3.365 -16.910  0.00  0.00     0.009 C 
ENDBRANCH  21  22
ENDBRANCH  17  21
ENDBRANCH   1  17
TORSDOF 9
ENDMDL
MODEL 3
REMARK VINA RESULT:      -6.3      3.563      5.541
REMARK  9 active torsions:
REMARK  status: ('A' for Active; 'I' for Inactive)
REMARK    1  A    between atoms: N_6  and  C_20 
REMARK       I    between atoms: N_6  and  C_7 
REMARK    2  A    between atoms: C_7  and  C_24 
REMARK    3  A    between atoms: N_8  and  C_24 
REMARK    4  A    between atoms: C_11  and  C_24 
REMARK    5  A    between atoms: C_11  and  C_12 
REMARK    6  A    between atoms: C_12  and  C_13 
REMARK       I    between atoms: C_13  and  N_22 
REMARK    7  A    between atoms: C_19  and  C_20 
REMARK    8  A    between atoms: C_20  and  C_21 
REMARK    9  A    between atoms: C_21  and  C_23 
ROOT
HETATM    1  N           1     -35.972  -0.330 -12.281  0.00  0.00    -0.345 N 
HETATM    2  C           1     -36.746  -0.347 -13.409  0.00  0.00     0.249 C 
HETATM    3  O           1     -37.857  -0.823 -13.374  0.00  0.00    -0.271 OA
HETATM    4  H           1     -35.043   0.069 -12.310  0.00  0.00     0.163 HD
ENDROOT
BRANCH   2   5
HETATM    5  C           1     -36.215   0.230 -14.698  0.00  0.00     0.275 C 
BRANCH   5   6
HETATM    6  N           1     -34.725   0.379 -14.600  0.00  0.00    -0.066 N 
HETATM    7  H           1     -34.359  -0.258 -13.857  0.00  0.00     0.275 HD
HETATM    8  H           1     -34.289   0.132 -15.516  0.00  0.00     0.275 HD
HETATM    9  H           1     -34.490   1.369 -14.357  0.00  0.00     0.275 HD
ENDBRANCH   5   6
BRANCH   5  10
HETATM   10  C           1     -36.556  -0.704 -15.853  0.00  0.00     0.052 C 
BRANCH  10  11
HETATM   11  C           1     -35.336  -0.871 -16.749  0.00  0.00     0.105 C 
BRANCH  11  12
HETATM   12  C           1     -34.697  -2.212 -16.486  0.00  0.00     0.215 C 
HETATM   13  N           1     -33.925  -2.803 -17.449  0.00  0.00    -0.370 N 
HETATM   14  H           1     -33.496  -3.703 -17.273  0.00  0.00     0.159 HD
HETATM   15  H           1     -33.782  -2.340 -18.338  0.00  0.00     0.159 HD
HETATM   16  O           1     -34.868  -2.764 -15.425  0.00  0.00    -0.274 OA
ENDBRANCH  11  12
ENDBRANCH  10  11
ENDBRANCH   5  10
ENDBRANCH   2   5
BRANCH   1  17
HETATM   17  C           1     -36.485  -0.884 -11.042  0.00  0.00     0.185 C 
BRANCH  17  18
HETATM   18  C           1     -36.963   0.236 -10.151  0.00  0.00     0.196 C 
HETATM   19  O           1     -36.285   0.575  -9.156  0.00  0.00    -0.646 OA
HETATM   20  O           1     -38.035   0.824 -10.407  0.00  0.00    -0.646 OA
ENDBRANCH  17  18
BRANCH  17  21
HETATM   21  C           1     -35.378  -1.658 -10.337  0.00  0.00     0.040 C 
BRANCH  21  22
HETATM   22  C           1     -34.805  -2.701 -11.287  0.00  0.00    -0.020 C 
HETATM   23  C           1     -33.293  -2.766 -11.115  0.00  0.00     0.009 C 
HETATM   24  C           1     -35.411  -4.062 -10.970  0.00  0.00     0.009 C 
ENDBRANCH  21  22
ENDBRANCH  17  21
ENDBRANCH   1  17
TORSDOF 9
ENDMDL
MODEL 4
REMARK VINA RESULT:      -6.3     13.449     16.183
REMARK  9 active torsions:
REMARK  status: ('A' for Active; 'I' for Inactive)
REMARK    1  A    between atoms: N_6  and  C_20 
REMARK       I    between atoms: N_6  and  C_7 
REMARK    2  A    between atoms: C_7  and  C_24 
REMARK    3  A    between atoms: N_8  and  C_24 
REMARK    4  A    between atoms: C_11  and  C_24 
REMARK    5  A    between atoms: C_11  and  C_12 
REMARK    6  A    between atoms: C_12  and  C_13 
REMARK       I    between atoms: C_13  and  N_22 
REMARK    7  A    between atoms: C_19  and  C_20 
REMARK    8  A    between atoms: C_20  and  C_21 
REMARK    9  A    between atoms: C_21  and  C_23 
ROOT
HETATM    1  N           1     -21.009  -6.141  -6.089  0.00  0.00    -0.345 N 
HETATM    2  C           1     -20.631  -4.826  -6.115  0.00  0.00     0.249 C 
HETATM    3  O           1     -19.938  -4.378  -5.231  0.00  0.00    -0.271 OA
HETATM    4  H           1     -21.588  -6.516  -6.829  0.00  0.00     0.163 HD
ENDROOT
BRANCH   2   5
HETATM    5  C           1     -21.077  -3.934  -7.247  0.00  0.00     0.275 C 
BRANCH   5   6
HETATM    6  N           1     -20.066  -3.991  -8.354  0.00  0.00    -0.066 N 
HETATM    7  H           1     -20.507  -4.400  -9.210  0.00  0.00     0.275 HD
HETATM    8  H           1     -19.727  -3.026  -8.566  0.00  0.00     0.275 HD
HETATM    9  H           1     -19.259  -4.588  -8.059  0.00  0.00     0.275 HD
ENDBRANCH   5   6
BRANCH   5  10
HETATM   10  C           1     -22.426  -4.410  -7.769  0.00  0.00     0.052 C 
BRANCH  10  11
HETATM   11  C           1     -22.400  -4.444  -9.291  0.00  0.00     0.105 C 
BRANCH  11  12
HETATM   12  C           1     -23.684  -3.863  -9.831  0.00  0.00     0.215 C 
HETATM   13  N           1     -24.574  -3.265  -8.981  0.00  0.00    -0.370 N 
HETATM   14  H           1     -25.435  -2.875  -9.343  0.00  0.00     0.159 HD
HETATM   15  H           1     -24.372  -3.212  -7.990  0.00  0.00     0.159 HD
HETATM   16  O           1     -23.925  -3.926 -11.012  0.00  0.00    -0.274 OA
ENDBRANCH  11  12
ENDBRANCH  10  11
ENDBRANCH   5  10
ENDBRANCH   2   5
BRANCH   1  17
HETATM   17  C           1     -20.578  -6.998  -5.001  0.00  0.00     0.185 C 
BRANCH  17  18
HETATM   18  C           1     -20.243  -8.366  -5.540  0.00  0.00     0.196 C 
HETATM   19  O           1     -21.149  -9.211  -5.707  0.00  0.00    -0.646 OA
HETATM   20  O           1     -19.060  -8.654  -5.822  0.00  0.00    -0.646 OA
ENDBRANCH  17  18
BRANCH  17  21
HETATM   21  C           1     -21.698  -7.116  -3.976  0.00  0.00     0.040 C 
BRANCH  21  22
HETATM   22  C           1     -21.160  -6.768  -2.594  0.00  0.00    -0.020 C 
HETATM   23  C           1     -22.301  -6.268  -1.717  0.00  0.00     0.009 C 
HETATM   24  C           1     -20.542  -8.009  -1.964  0.00  0.00     0.009 C 
ENDBRANCH  21  22
ENDBRANCH  17  21
ENDBRANCH   1  17
TORSDOF 9
ENDMDL
MODEL 5
REMARK VINA RESULT:      -6.2      2.881      5.768
REMARK  9 active torsions:
REMARK  status: ('A' for Active; 'I' for Inactive)
REMARK    1  A    between atoms: N_6  and  C_20 
REMARK       I    between atoms: N_6  and  C_7 
REMARK    2  A    between atoms: C_7  and  C_24 
REMARK    3  A    between atoms: N_8  and  C_24 
REMARK    4  A    between atoms: C_11  and  C_24 
REMARK    5  A    between atoms: C_11  and  C_12 
REMARK    6  A    between atoms: C_12  and  C_13 
REMARK       I    between atoms: C_13  and  N_22 
REMARK    7  A    between atoms: C_19  and  C_20 
REMARK    8  A    between atoms: C_20  and  C_21 
REMARK    9  A    between atoms: C_21  and  C_23 
ROOT
HETATM    1  N           1     -34.771  -1.466 -13.216  0.00  0.00    -0.345 N 
HETATM    2  C           1     -35.904  -0.825 -13.638  0.00  0.00     0.249 C 
HETATM    3  O           1     -36.954  -1.015 -13.070  0.00  0.00    -0.271 OA
HETATM    4  H           1     -33.892  -1.307 -13.691  0.00  0.00     0.163 HD
ENDROOT
BRANCH   2   5
HETATM    5  C           1     -35.843   0.122 -14.811  0.00  0.00     0.275 C 
BRANCH   5   6
HETATM    6  N           1     -35.438   1.485 -14.332  0.00  0.00    -0.066 N 
HETATM    7  H           1     -34.407   1.501 -14.159  0.00  0.00     0.275 HD
HETATM    8  H           1     -35.680   2.195 -15.058  0.00  0.00     0.275 HD
HETATM    9  H           1     -35.944   1.706 -13.444  0.00  0.00     0.275 HD
ENDBRANCH   5   6
BRANCH   5  10
HETATM   10  C           1     -34.822  -0.385 -15.821  0.00  0.00     0.052 C 
BRANCH  10  11
HETATM   11  C           1     -35.436  -1.508 -16.646  0.00  0.00     0.105 C 
BRANCH  11  12
HETATM   12  C           1     -34.558  -2.732 -16.564  0.00  0.00     0.215 C 
HETATM   13  N           1     -33.622  -2.969 -17.534  0.00  0.00    -0.370 N 
HETATM   14  H           1     -33.033  -3.790 -17.479  0.00  0.00     0.159 HD
HETATM   15  H           1     -33.520  -2.323 -18.307  0.00  0.00     0.159 HD
HETATM   16  O           1     -34.681  -3.502 -15.642  0.00  0.00    -0.274 OA
ENDBRANCH  11  12
ENDBRANCH  10  11
ENDBRANCH   5  10
ENDBRANCH   2   5
BRANCH   1  17
HETATM   17  C           1     -34.830  -2.375 -12.087  0.00  0.00     0.185 C 
BRANCH  17  18
HETATM   18  C           1     -34.430  -1.643 -10.830  0.00  0.00     0.196 C 
HETATM   19  O           1     -33.235  -1.642 -10.462  0.00  0.00    -0.646 OA
HETATM   20  O           1     -35.292  -1.036 -10.159  0.00  0.00    -0.646 OA
ENDBRANCH  17  18
BRANCH  17  21
HETATM   21  C           1     -33.877  -3.539 -12.323  0.00  0.00     0.040 C 
BRANCH  21  22
HETATM   22  C           1     -34.520  -4.829 -11.833  0.00  0.00    -0.020 C 
HETATM   23  C           1     -33.473  -5.681 -11.127  0.00  0.00     0.009 C 
HETATM   24  C           1     -35.645  -4.498 -10.862  0.00  0.00     0.009 C 
ENDBRANCH  21  22
ENDBRANCH  17  21
ENDBRANCH   1  17
TORSDOF 9
ENDMDL
MODEL 6
REMARK VINA RESULT:      -6.0      2.579      3.504
REMARK  9 active torsions:
REMARK  status: ('A' for Active; 'I' for Inactive)
REMARK    1  A    between atoms: N_6  and  C_20 
REMARK       I    between atoms: N_6  and  C_7 
REMARK    2  A    between atoms: C_7  and  C_24 
REMARK    3  A    between atoms: N_8  and  C_24 
REMARK    4  A    between atoms: C_11  and  C_24 
REMARK    5  A    between atoms: C_11  and  C_12 
REMARK    6  A    between atoms: C_12  and  C_13 
REMARK       I    between atoms: C_13  and  N_22 
REMARK    7  A    between atoms: C_19  and  C_20 
REMARK    8  A    between atoms: C_20  and  C_21 
REMARK    9  A    between atoms: C_21  and  C_23 
ROOT
HETATM    1  N           1     -34.892  -1.454 -14.000  0.00  0.00    -0.345 N 
HETATM    2  C           1     -35.087  -1.776 -12.684  0.00  0.00     0.249 C 
HETATM    3  O           1     -36.206  -1.810 -12.229  0.00  0.00    -0.271 OA
HETATM    4  H           1     -33.955  -1.426 -14.381  0.00  0.00     0.163 HD
ENDROOT
BRANCH   2   5
HETATM    5  C           1     -33.905  -2.090 -11.801  0.00  0.00     0.275 C 
BRANCH   5   6
HETATM    6  N           1     -34.282  -1.868 -10.366  0.00  0.00    -0.066 N 
HETATM    7  H           1     -33.432  -1.599  -9.819  0.00  0.00     0.275 HD
HETATM    8  H           1     -34.990  -1.102 -10.306  0.00  0.00     0.275 HD
HETATM    9  H           1     -34.686  -2.748  -9.972  0.00  0.00     0.275 HD
ENDBRANCH   5   6
BRANCH   5  10
HETATM   10  C           1     -33.493  -3.543 -11.998  0.00  0.00     0.052 C 
BRANCH  10  11
HETATM   11  C           1     -33.837  -4.342 -10.748  0.00  0.00     0.105 C 
BRANCH  11  12
HETATM   12  C           1     -34.334  -5.710 -11.145  0.00  0.00     0.215 C 
HETATM   13  N           1     -34.810  -5.924 -12.410  0.00  0.00    -0.370 N 
HETATM   14  H           1     -35.144  -6.841 -12.678  0.00  0.00     0.159 HD
HETATM   15  H           1     -34.830  -5.164 -13.079  0.00  0.00     0.159 HD
HETATM   16  O           1     -34.311  -6.616 -10.347  0.00  0.00    -0.274 OA
ENDBRANCH  11  12
ENDBRANCH  10  11
ENDBRANCH   5  10
ENDBRANCH   2   5
BRANCH   1  17
HETATM   17  C           1     -36.029  -1.154 -14.849  0.00  0.00     0.185 C 
BRANCH  17  18
HETATM   18  C           1     -35.649  -1.368 -16.293  0.00  0.00     0.196 C 
HETATM   19  O           1     -36.422  -0.999 -17.204  0.00  0.00    -0.646 OA
HETATM   20  O           1     -34.561  -1.912 -16.579  0.00  0.00    -0.646 OA
ENDBRANCH  17  18
BRANCH  17  21
HETATM   21  C           1     -36.447   0.296 -14.642  0.00  0.00     0.040 C 
BRANCH  21  22
HETATM   22  C           1     -35.303   1.216 -15.046  0.00  0.00    -0.020 C 
HETATM   23  C           1     -35.849   2.368 -15.879  0.00  0.00     0.009 C 
HETATM   24  C           1     -34.631   1.768 -13.795  0.00  0.00     0.009 C 
ENDBRANCH  21  22
ENDBRANCH  17  21
ENDBRANCH   1  17
TORSDOF 9
ENDMDL
MODEL 7
REMARK VINA RESULT:      -5.9      9.259     11.384
REMARK  9 active torsions:
REMARK  status: ('A' for Active; 'I' for Inactive)
REMARK    1  A    between atoms: N_6  and  C_20 
REMARK       I    between atoms: N_6  and  C_7 
REMARK    2  A    between atoms: C_7  and  C_24 
REMARK    3  A    between atoms: N_8  and  C_24 
REMARK    4  A    between atoms: C_11  and  C_24 
REMARK    5  A    between atoms: C_11  and  C_12 
REMARK    6  A    between atoms: C_12  and  C_13 
REMARK       I    between atoms: C_13  and  N_22 
REMARK    7  A    between atoms: C_19  and  C_20 
REMARK    8  A    between atoms: C_20  and  C_21 
REMARK    9  A    between atoms: C_21  and  C_23 
ROOT
HETATM    1  N           1     -26.728  -5.850 -17.046  0.00  0.00    -0.345 N 
HETATM    2  C           1     -28.087  -5.987 -17.133  0.00  0.00     0.249 C 
HETATM    3  O           1     -28.568  -7.043 -17.473  0.00  0.00    -0.271 OA
HETATM    4  H           1     -26.326  -4.967 -16.761  0.00  0.00     0.163 HD
ENDROOT
BRANCH   2   5
HETATM    5  C           1     -28.986  -4.821 -16.803  0.00  0.00     0.275 C 
BRANCH   5   6
HETATM    6  N           1     -28.201  -3.546 -16.891  0.00  0.00    -0.066 N 
HETATM    7  H           1     -27.301  -3.724 -17.393  0.00  0.00     0.275 HD
HETATM    8  H           1     -28.755  -2.831 -17.413  0.00  0.00     0.275 HD
HETATM    9  H           1     -27.998  -3.195 -15.927  0.00  0.00     0.275 HD
ENDBRANCH   5   6
BRANCH   5  10
HETATM   10  C           1     -30.142  -4.774 -17.793  0.00  0.00     0.052 C 
BRANCH  10  11
HETATM   11  C           1     -30.897  -3.461 -17.632  0.00  0.00     0.105 C 
BRANCH  11  12
HETATM   12  C           1     -32.341  -3.746 -17.302  0.00  0.00     0.215 C 
HETATM   13  N           1     -32.688  -4.937 -16.724  0.00  0.00    -0.370 N 
HETATM   14  H           1     -33.657  -5.129 -16.502  0.00  0.00     0.159 HD
HETATM   15  H           1     -31.976  -5.627 -16.518  0.00  0.00     0.159 HD
HETATM   16  O           1     -33.190  -2.923 -17.547  0.00  0.00    -0.274 OA
ENDBRANCH  11  12
ENDBRANCH  10  11
ENDBRANCH   5  10
ENDBRANCH   2   5
BRANCH   1  17
HETATM   17  C           1     -25.865  -6.972 -17.362  0.00  0.00     0.185 C 
BRANCH  17  18
HETATM   18  C           1     -25.030  -7.320 -16.154  0.00  0.00     0.196 C 
HETATM   19  O           1     -25.335  -6.862 -15.031  0.00  0.00    -0.646 OA
HETATM   20  O           1     -24.036  -8.067 -16.276  0.00  0.00    -0.646 OA
ENDBRANCH  17  18
BRANCH  17  21
HETATM   21  C           1     -24.951  -6.597 -18.521  0.00  0.00     0.040 C 
BRANCH  21  22
HETATM   22  C           1     -25.436  -7.281 -19.792  0.00  0.00    -0.020 C 
HETATM   23  C           1     -26.229  -6.289 -20.631  0.00  0.00     0.009 C 
HETATM   24  C           1     -24.237  -7.777 -20.590  0.00  0.00     0.009 C 
ENDBRANCH  21  22
ENDBRANCH  17  21
ENDBRANCH   1  17
TORSDOF 9
ENDMDL
MODEL 8
REMARK VINA RESULT:      -5.9     13.630     15.449
REMARK  9 active torsions:
REMARK  status: ('A' for Active; 'I' for Inactive)
REMARK    1  A    between atoms: N_6  and  C_20 
REMARK       I    between atoms: N_6  and  C_7 
REMARK    2  A    between atoms: C_7  and  C_24 
REMARK    3  A    between atoms: N_8  and  C_24 
REMARK    4  A    between atoms: C_11  and  C_24 
REMARK    5  A    between atoms: C_11  and  C_12 
REMARK    6  A    between atoms: C_12  and  C_13 
REMARK       I    between atoms: C_13  and  N_22 
REMARK    7  A    between atoms: C_19  and  C_20 
REMARK    8  A    between atoms: C_20  and  C_21 
REMARK    9  A    between atoms: C_21  and  C_23 
ROOT
HETATM    1  N           1     -21.725  -5.452  -6.094  0.00  0.00    -0.345 N 
HETATM    2  C           1     -21.551  -6.752  -5.702  0.00  0.00     0.249 C 
HETATM    3  O           1     -21.023  -7.543  -6.448  0.00  0.00    -0.271 OA
HETATM    4  H           1     -22.166  -4.790  -5.470  0.00  0.00     0.163 HD
ENDROOT
BRANCH   2   5
HETATM    5  C           1     -22.017  -7.197  -4.338  0.00  0.00     0.275 C 
BRANCH   5   6
HETATM    6  N           1     -21.689  -8.649  -4.149  0.00  0.00    -0.066 N 
HETATM    7  H           1     -20.664  -8.755  -3.971  0.00  0.00     0.275 HD
HETATM    8  H           1     -22.223  -9.024  -3.333  0.00  0.00     0.275 HD
HETATM    9  H           1     -21.950  -9.180  -5.011  0.00  0.00     0.275 HD
ENDBRANCH   5   6
BRANCH   5  10
HETATM   10  C           1     -21.313  -6.375  -3.266  0.00  0.00     0.052 C 
BRANCH  10  11
HETATM   11  C           1     -22.230  -6.222  -2.059  0.00  0.00     0.105 C 
BRANCH  11  12
HETATM   12  C           1     -21.915  -7.296  -1.047  0.00  0.00     0.215 C 
HETATM   13  N           1     -22.815  -7.591  -0.060  0.00  0.00    -0.370 N 
HETATM   14  H           1     -22.604  -8.312   0.620  0.00  0.00     0.159 HD
HETATM   15  H           1     -23.692  -7.088  -0.007  0.00  0.00     0.159 HD
HETATM   16  O           1     -20.868  -7.896  -1.110  0.00  0.00    -0.274 OA
ENDBRANCH  11  12
ENDBRANCH  10  11
ENDBRANCH   5  10
ENDBRANCH   2   5
BRANCH   1  17
HETATM   17  C           1     -21.275  -5.024  -7.405  0.00  0.00     0.185 C 
BRANCH  17  18
HETATM   18  C           1     -19.886  -4.446  -7.297  0.00  0.00     0.196 C 
HETATM   19  O           1     -19.395  -3.815  -8.258  0.00  0.00    -0.646 OA
HETATM   20  O           1     -19.228  -4.596  -6.245  0.00  0.00    -0.646 OA
ENDBRANCH  17  18
BRANCH  17  21
HETATM   21  C           1     -22.227  -3.965  -7.946  0.00  0.00     0.040 C 
BRANCH  21  22
HETATM   22  C           1     -22.835  -4.450  -9.255  0.00  0.00    -0.020 C 
HETATM   23  C           1     -24.234  -3.869  -9.410  0.00  0.00     0.009 C 
HETATM   24  C           1     -21.964  -3.993 -10.418  0.00  0.00     0.009 C 
ENDBRANCH  21  22
ENDBRANCH  17  21
ENDBRANCH   1  17
TORSDOF 9
ENDMDL
MODEL 9
REMARK VINA RESULT:      -5.9      4.273      6.248
REMARK  9 active torsions:
REMARK  status: ('A' for Active; 'I' for Inactive)
REMARK    1  A    between atoms: N_6  and  C_20 
REMARK       I    between atoms: N_6  and  C_7 
REMARK    2  A    between atoms: C_7  and  C_24 
REMARK    3  A    between atoms: N_8  and  C_24 
REMARK    4  A    between atoms: C_11  and  C_24 
REMARK    5  A    between atoms: C_11  and  C_12 
REMARK    6  A    between atoms: C_12  and  C_13 
REMARK       I    between atoms: C_13  and  N_22 
REMARK    7  A    between atoms: C_19  and  C_20 
REMARK    8  A    between atoms: C_20  and  C_21 
REMARK    9  A    between atoms: C_21  and  C_23 
ROOT
HETATM    1  N           1     -33.531  -3.673 -14.062  0.00  0.00    -0.345 N 
HETATM    2  C           1     -34.037  -4.470 -15.053  0.00  0.00     0.249 C 
HETATM    3  O           1     -35.071  -5.070 -14.877  0.00  0.00    -0.271 OA
HETATM    4  H           1     -32.666  -3.170 -14.209  0.00  0.00     0.163 HD
ENDROOT
BRANCH   2   5
HETATM    5  C           1     -33.306  -4.597 -16.366  0.00  0.00     0.275 C 
BRANCH   5   6
HETATM    6  N           1     -33.631  -3.417 -17.235  0.00  0.00    -0.066 N 
HETATM    7  H           1     -33.502  -3.678 -18.239  0.00  0.00     0.275 HD
HETATM    8  H           1     -34.622  -3.130 -17.074  0.00  0.00     0.275 HD
HETATM    9  H           1     -32.993  -2.624 -16.996  0.00  0.00     0.275 HD
ENDBRANCH   5   6
BRANCH   5  10
HETATM   10  C           1     -31.805  -4.641 -16.111  0.00  0.00     0.052 C 
BRANCH  10  11
HETATM   11  C           1     -31.098  -5.210 -17.334  0.00  0.00     0.105 C 
BRANCH  11  12
HETATM   12  C           1     -30.053  -4.232 -17.812  0.00  0.00     0.215 C 
HETATM   13  N           1     -30.272  -2.887 -17.698  0.00  0.00    -0.370 N 
HETATM   14  H           1     -29.571  -2.230 -18.019  0.00  0.00     0.159 HD
HETATM   15  H           1     -31.135  -2.547 -17.293  0.00  0.00     0.159 HD
HETATM   16  O           1     -29.023  -4.638 -18.296  0.00  0.00    -0.274 OA
ENDBRANCH  11  12
ENDBRANCH  10  11
ENDBRANCH   5  10
ENDBRANCH   2   5
BRANCH   1  17
HETATM   17  C           1     -34.236  -3.550 -12.800  0.00  0.00     0.185 C 
BRANCH  17  18
HETATM   18  C           1     -34.738  -2.137 -12.641  0.00  0.00     0.196 C 
HETATM   19  O           1     -35.584  -1.680 -13.441  0.00  0.00    -0.646 OA
HETATM   20  O           1     -34.310  -1.423 -11.708  0.00  0.00    -0.646 OA
ENDBRANCH  17  18
BRANCH  17  21
HETATM   21  C           1     -33.288  -3.885 -11.656  0.00  0.00     0.040 C 
BRANCH  21  22
HETATM   22  C           1     -34.001  -4.780 -10.651  0.00  0.00    -0.020 C 
HETATM   23  C           1     -35.505  -4.577 -10.770  0.00  0.00     0.009 C 
HETATM   24  C           1     -33.661  -6.236 -10.940  0.00  0.00     0.009 C 
ENDBRANCH  21  22
ENDBRANCH  17  21
ENDBRANCH   1  17
TORSDOF 9
ENDMDL
