MODEL 1
REMARK VINA RESULT:      -8.1      0.000      0.000
REMARK  11 active torsions:
REMARK  status: ('A' for Active; 'I' for Inactive)
REMARK    1  A    between atoms: C_1  and  C_2 
REMARK    2  A    between atoms: C_2  and  C_3 
REMARK    3  A    between atoms: C_3  and  C_27 
REMARK    4  A    between atoms: C_3  and  N_4 
REMARK       I    between atoms: N_4  and  C_22 
REMARK    5  A    between atoms: O_8  and  P_9 
REMARK    6  A    between atoms: P_9  and  O_10 
REMARK    7  A    between atoms: O_10  and  C_23 
REMARK    8  A    between atoms: N_14  and  C_30 
REMARK    9  A    between atoms: C_22  and  C_30 
REMARK   10  A    between atoms: C_30  and  C_31 
REMARK   11  A    between atoms: C_31  and  C_32 
ROOT
HETATM    1  C           1     -32.492  -4.344 -16.224  0.00  0.00     0.189 C 
ENDROOT
BRANCH   1   2
HETATM    2  C           1     -31.967  -5.636 -16.836  0.00  0.00     0.074 C 
BRANCH   2   3
HETATM    3  C           1     -30.470  -5.620 -16.826  0.00  0.00    -0.056 A 
HETATM    4  C           1     -29.784  -5.232 -15.676  0.00  0.00     0.010 A 
HETATM    5  C           1     -28.389  -5.215 -15.666  0.00  0.00     0.038 A 
HETATM    6  C           1     -27.680  -5.590 -16.808  0.00  0.00     0.081 A 
HETATM    7  C           1     -28.365  -5.979 -17.959  0.00  0.00     0.038 A 
HETATM    8  C           1     -29.761  -5.994 -17.968  0.00  0.00     0.010 A 
BRANCH   6   9
HETATM    9  O           1     -26.325  -5.574 -16.799  0.00  0.00    -0.247 OA
BRANCH   9  10
HETATM   10  P           1     -25.560  -6.688 -15.915  0.00  0.00     0.411 P 
HETATM   11  O           1     -26.544  -7.658 -15.384  0.00  0.00    -0.624 OA
HETATM   12  O           1     -24.573  -7.398 -16.759  0.00  0.00    -0.624 OA
BRANCH  10  13
HETATM   13  O           1     -24.797  -5.968 -14.687  0.00  0.00    -0.300 OA
HETATM   14  H           1     -24.587  -6.664 -14.087  0.00  0.00     0.223 HD
ENDBRANCH  10  13
ENDBRANCH   9  10
ENDBRANCH   6   9
ENDBRANCH   2   3
ENDBRANCH   1   2
BRANCH   1  15
HETATM   15  C           1     -32.639  -3.299 -17.303  0.00  0.00     0.197 C 
HETATM   16  O           1     -33.743  -2.742 -17.486  0.00  0.00    -0.646 OA
HETATM   17  O           1     -31.658  -2.992 -18.013  0.00  0.00    -0.646 OA
ENDBRANCH   1  15
BRANCH   1  18
HETATM   18  N           1     -33.784  -4.592 -15.612  0.00  0.00    -0.344 N 
HETATM   19  C           1     -34.060  -4.088 -14.370  0.00  0.00     0.249 C 
HETATM   20  O           1     -34.555  -2.992 -14.257  0.00  0.00    -0.271 OA
HETATM   21  H           1     -34.481  -5.135 -16.105  0.00  0.00     0.163 HD
BRANCH  19  22
HETATM   22  C           1     -33.746  -4.904 -13.139  0.00  0.00     0.280 C 
BRANCH  22  23
HETATM   23  N           1     -32.464  -4.415 -12.530  0.00  0.00    -0.066 N 
HETATM   24  H           1     -32.135  -5.102 -11.815  0.00  0.00     0.275 HD
HETATM   25  H           1     -32.628  -3.489 -12.074  0.00  0.00     0.275 HD
HETATM   26  H           1     -31.740  -4.313 -13.277  0.00  0.00     0.275 HD
ENDBRANCH  22  23
BRANCH  22  27
HETATM   27  C           1     -34.876  -4.754 -12.129  0.00  0.00     0.101 C 
BRANCH  27  28
HETATM   28  C           1     -34.852  -5.911 -11.178  0.00  0.00     0.028 A 
HETATM   29  N           1     -34.938  -7.227 -11.551  0.00  0.00    -0.355 N 
HETATM   30  C           1     -34.881  -7.909 -10.430  0.00  0.00     0.180 A 
ATOM     31  HN          1     -35.028  -7.598 -12.497  1.00  0.00     0.166 HD
HETATM   32  N           1     -34.760  -7.084  -9.348  0.00  0.00    -0.360 N 
HETATM   33  H           1     -34.696  -7.382  -8.343  0.00  0.00     0.166 HD
HETATM   34  C           1     -34.741  -5.798  -9.813  0.00  0.00     0.114 A 
ENDBRANCH  27  28
ENDBRANCH  22  27
ENDBRANCH  19  22
ENDBRANCH   1  18
TORSDOF 11
ENDMDL
MODEL 2
REMARK VINA RESULT:      -7.7      1.531      2.079
REMARK  11 active torsions:
REMARK  status: ('A' for Active; 'I' for Inactive)
REMARK    1  A    between atoms: C_1  and  C_2 
REMARK    2  A    between atoms: C_2  and  C_3 
REMARK    3  A    between atoms: C_3  and  C_27 
REMARK    4  A    between atoms: C_3  and  N_4 
REMARK       I    between atoms: N_4  and  C_22 
REMARK    5  A    between atoms: O_8  and  P_9 
REMARK    6  A    between atoms: P_9  and  O_10 
REMARK    7  A    between atoms: O_10  and  C_23 
REMARK    8  A    between atoms: N_14  and  C_30 
REMARK    9  A    between atoms: C_22  and  C_30 
REMARK   10  A    between atoms: C_30  and  C_31 
REMARK   11  A    between atoms: C_31  and  C_32 
ROOT
HETATM    1  C           1     -32.463  -4.421 -16.306  0.00  0.00     0.189 C 
ENDROOT
BRANCH   1   2
HETATM    2  C           1     -31.924  -5.691 -16.951  0.00  0.00     0.074 C 
BRANCH   2   3
HETATM    3  C           1     -30.427  -5.671 -16.917  0.00  0.00    -0.056 A 
HETATM    4  C           1     -29.761  -5.241 -15.770  0.00  0.00     0.010 A 
HETATM    5  C           1     -28.366  -5.221 -15.739  0.00  0.00     0.038 A 
HETATM    6  C           1     -27.638  -5.633 -16.855  0.00  0.00     0.081 A 
HETATM    7  C           1     -28.304  -6.063 -18.003  0.00  0.00     0.038 A 
HETATM    8  C           1     -29.700  -6.082 -18.034  0.00  0.00     0.010 A 
BRANCH   6   9
HETATM    9  O           1     -26.284  -5.614 -16.826  0.00  0.00    -0.247 OA
BRANCH   9  10
HETATM   10  P           1     -25.530  -6.707 -15.906  0.00  0.00     0.411 P 
HETATM   11  O           1     -26.519  -7.671 -15.375  0.00  0.00    -0.624 OA
HETATM   12  O           1     -24.526  -7.429 -16.719  0.00  0.00    -0.624 OA
BRANCH  10  13
HETATM   13  O           1     -24.792  -5.960 -14.679  0.00  0.00    -0.300 OA
HETATM   14  H           1     -24.461  -6.654 -14.134  0.00  0.00     0.223 HD
ENDBRANCH  10  13
ENDBRANCH   9  10
ENDBRANCH   6   9
ENDBRANCH   2   3
ENDBRANCH   1   2
BRANCH   1  15
HETATM   15  C           1     -32.578  -3.337 -17.350  0.00  0.00     0.197 C 
HETATM   16  O           1     -33.681  -2.788 -17.562  0.00  0.00    -0.646 OA
HETATM   17  O           1     -31.570  -2.987 -18.002  0.00  0.00    -0.646 OA
ENDBRANCH   1  15
BRANCH   1  18
HETATM   18  N           1     -33.771  -4.686 -15.739  0.00  0.00    -0.344 N 
HETATM   19  C           1     -34.123  -4.130 -14.539  0.00  0.00     0.249 C 
HETATM   20  O           1     -34.662  -3.049 -14.507  0.00  0.00    -0.271 OA
HETATM   21  H           1     -34.425  -5.281 -16.232  0.00  0.00     0.163 HD
BRANCH  19  22
HETATM   22  C           1     -33.836  -4.867 -13.253  0.00  0.00     0.280 C 
BRANCH  22  23
HETATM   23  N           1     -32.544  -4.372 -12.672  0.00  0.00    -0.066 N 
HETATM   24  H           1     -32.318  -4.920 -11.812  0.00  0.00     0.275 HD
HETATM   25  H           1     -32.639  -3.361 -12.425  0.00  0.00     0.275 HD
HETATM   26  H           1     -31.779  -4.489 -13.373  0.00  0.00     0.275 HD
ENDBRANCH  22  23
BRANCH  22  27
HETATM   27  C           1     -34.965  -4.618 -12.263  0.00  0.00     0.101 C 
BRANCH  27  28
HETATM   28  C           1     -34.750  -3.302 -11.581  0.00  0.00     0.028 A 
HETATM   29  N           1     -35.358  -2.129 -11.942  0.00  0.00    -0.355 N 
HETATM   30  C           1     -34.902  -1.228 -11.103  0.00  0.00     0.180 A 
ATOM     31  HN          1     -36.025  -1.985 -12.701  1.00  0.00     0.166 HD
HETATM   32  N           1     -34.021  -1.775 -10.213  0.00  0.00    -0.360 N 
HETATM   33  H           1     -33.517  -1.267  -9.445  0.00  0.00     0.166 HD
HETATM   34  C           1     -33.912  -3.106 -10.509  0.00  0.00     0.114 A 
ENDBRANCH  27  28
ENDBRANCH  22  27
ENDBRANCH  19  22
ENDBRANCH   1  18
TORSDOF 11
ENDMDL
MODEL 3
REMARK VINA RESULT:      -7.4     12.092     14.336
REMARK  11 active torsions:
REMARK  status: ('A' for Active; 'I' for Inactive)
REMARK    1  A    between atoms: C_1  and  C_2 
REMARK    2  A    between atoms: C_2  and  C_3 
REMARK    3  A    between atoms: C_3  and  C_27 
REMARK    4  A    between atoms: C_3  and  N_4 
REMARK       I    between atoms: N_4  and  C_22 
REMARK    5  A    between atoms: O_8  and  P_9 
REMARK    6  A    between atoms: P_9  and  O_10 
REMARK    7  A    between atoms: O_10  and  C_23 
REMARK    8  A    between atoms: N_14  and  C_30 
REMARK    9  A    between atoms: C_22  and  C_30 
REMARK   10  A    between atoms: C_30  and  C_31 
REMARK   11  A    between atoms: C_31  and  C_32 
ROOT
HETATM    1  C           1     -20.571  -7.503  -5.709  0.00  0.00     0.189 C 
ENDROOT
BRANCH   1   2
HETATM    2  C           1     -20.251  -6.014  -5.692  0.00  0.00     0.074 C 
BRANCH   2   3
HETATM    3  C           1     -20.815  -5.369  -6.920  0.00  0.00    -0.056 A 
HETATM    4  C           1     -22.050  -4.726  -6.866  0.00  0.00     0.010 A 
HETATM    5  C           1     -22.576  -4.126  -8.011  0.00  0.00     0.038 A 
HETATM    6  C           1     -21.864  -4.169  -9.210  0.00  0.00     0.081 A 
HETATM    7  C           1     -20.628  -4.813  -9.265  0.00  0.00     0.038 A 
HETATM    8  C           1     -20.103  -5.413  -8.119  0.00  0.00     0.010 A 
BRANCH   6   9
HETATM    9  O           1     -22.374  -3.587 -10.322  0.00  0.00    -0.247 OA
BRANCH   9  10
HETATM   10  P           1     -23.672  -4.264 -11.004  0.00  0.00     0.411 P 
HETATM   11  O           1     -24.014  -5.511 -10.285  0.00  0.00    -0.624 OA
HETATM   12  O           1     -24.814  -3.325 -10.934  0.00  0.00    -0.624 OA
BRANCH  10  13
HETATM   13  O           1     -23.350  -4.603 -12.550  0.00  0.00    -0.300 OA
HETATM   14  H           1     -22.821  -3.884 -12.853  0.00  0.00     0.223 HD
ENDBRANCH  10  13
ENDBRANCH   9  10
ENDBRANCH   6   9
ENDBRANCH   2   3
ENDBRANCH   1   2
BRANCH   1  15
HETATM   15  C           1     -19.298  -8.293  -5.523  0.00  0.00     0.197 C 
HETATM   16  O           1     -19.060  -8.844  -4.427  0.00  0.00    -0.646 OA
HETATM   17  O           1     -18.482  -8.395  -6.465  0.00  0.00    -0.646 OA
ENDBRANCH   1  15
BRANCH   1  18
HETATM   18  N           1     -21.491  -7.811  -4.632  0.00  0.00    -0.344 N 
HETATM   19  C           1     -22.022  -6.801  -3.875  0.00  0.00     0.249 C 
HETATM   20  O           1     -23.059  -6.278  -4.206  0.00  0.00    -0.271 OA
HETATM   21  H           1     -21.743  -8.773  -4.440  0.00  0.00     0.163 HD
BRANCH  19  22
HETATM   22  C           1     -21.310  -6.341  -2.626  0.00  0.00     0.280 C 
BRANCH  22  23
HETATM   23  N           1     -22.289  -5.656  -1.719  0.00  0.00    -0.066 N 
HETATM   24  H           1     -23.046  -6.326  -1.454  0.00  0.00     0.275 HD
HETATM   25  H           1     -22.707  -4.837  -2.215  0.00  0.00     0.275 HD
HETATM   26  H           1     -21.796  -5.328  -0.858  0.00  0.00     0.275 HD
ENDBRANCH  22  23
BRANCH  22  27
HETATM   27  C           1     -20.713  -7.545  -1.910  0.00  0.00     0.101 C 
BRANCH  27  28
HETATM   28  C           1     -21.754  -8.171  -1.034  0.00  0.00     0.028 A 
HETATM   29  N           1     -22.251  -7.605   0.111  0.00  0.00    -0.355 N 
HETATM   30  C           1     -23.130  -8.466   0.571  0.00  0.00     0.180 A 
ATOM     31  HN          1     -21.994  -6.706   0.519  1.00  0.00     0.166 HD
HETATM   32  N           1     -23.219  -9.567  -0.234  0.00  0.00    -0.360 N 
HETATM   33  H           1     -23.845 -10.397  -0.085  0.00  0.00     0.166 HD
HETATM   34  C           1     -22.341  -9.392  -1.267  0.00  0.00     0.114 A 
ENDBRANCH  27  28
ENDBRANCH  22  27
ENDBRANCH  19  22
ENDBRANCH   1  18
TORSDOF 11
ENDMDL
MODEL 4
REMARK VINA RESULT:      -7.2     12.521     14.723
REMARK  11 active torsions:
REMARK  status: ('A' for Active; 'I' for Inactive)
REMARK    1  A    between atoms: C_1  and  C_2 
REMARK    2  A    between atoms: C_2  and  C_3 
REMARK    3  A    between atoms: C_3  and  C_27 
REMARK    4  A    between atoms: C_3  and  N_4 
REMARK       I    between atoms: N_4  and  C_22 
REMARK    5  A    between atoms: O_8  and  P_9 
REMARK    6  A    between atoms: P_9  and  O_10 
REMARK    7  A    between atoms: O_10  and  C_23 
REMARK    8  A    between atoms: N_14  and  C_30 
REMARK    9  A    between atoms: C_22  and  C_30 
REMARK   10  A    between atoms: C_30  and  C_31 
REMARK   11  A    between atoms: C_31  and  C_32 
ROOT
HETATM    1  C           1     -21.126  -7.946  -5.480  0.00  0.00     0.189 C 
ENDROOT
BRANCH   1   2
HETATM    2  C           1     -20.353  -6.637  -5.567  0.00  0.00     0.074 C 
BRANCH   2   3
HETATM    3  C           1     -20.960  -5.770  -6.627  0.00  0.00    -0.056 A 
HETATM    4  C           1     -20.276  -5.544  -7.820  0.00  0.00     0.010 A 
HETATM    5  C           1     -20.841  -4.735  -8.806  0.00  0.00     0.038 A 
HETATM    6  C           1     -22.092  -4.154  -8.599  0.00  0.00     0.081 A 
HETATM    7  C           1     -22.777  -4.380  -7.406  0.00  0.00     0.038 A 
HETATM    8  C           1     -22.211  -5.189  -6.419  0.00  0.00     0.010 A 
BRANCH   6   9
HETATM    9  O           1     -22.641  -3.369  -9.557  0.00  0.00    -0.247 OA
BRANCH   9  10
HETATM   10  P           1     -23.577  -4.072 -10.670  0.00  0.00     0.411 P 
HETATM   11  O           1     -22.834  -4.175 -11.946  0.00  0.00    -0.624 OA
HETATM   12  O           1     -23.957  -5.427 -10.212  0.00  0.00    -0.624 OA
BRANCH  10  13
HETATM   13  O           1     -24.909  -3.186 -10.890  0.00  0.00    -0.300 OA
HETATM   14  H           1     -25.619  -3.805 -10.880  0.00  0.00     0.223 HD
ENDBRANCH  10  13
ENDBRANCH   9  10
ENDBRANCH   6   9
ENDBRANCH   2   3
ENDBRANCH   1   2
BRANCH   1  15
HETATM   15  C           1     -20.159  -9.090  -5.289  0.00  0.00     0.197 C 
HETATM   16  O           1     -20.518 -10.260  -5.541  0.00  0.00    -0.646 OA
HETATM   17  O           1     -19.000  -8.865  -4.879  0.00  0.00    -0.646 OA
ENDBRANCH   1  15
BRANCH   1  18
HETATM   18  N           1     -22.038  -7.893  -4.353  0.00  0.00    -0.344 N 
HETATM   19  C           1     -21.583  -7.508  -3.122  0.00  0.00     0.249 C 
HETATM   20  O           1     -21.604  -6.342  -2.806  0.00  0.00    -0.271 OA
HETATM   21  H           1     -23.012  -8.140  -4.478  0.00  0.00     0.163 HD
BRANCH  19  22
HETATM   22  C           1     -21.053  -8.540  -2.156  0.00  0.00     0.280 C 
BRANCH  22  23
HETATM   23  N           1     -19.589  -8.303  -1.926  0.00  0.00    -0.066 N 
HETATM   24  H           1     -19.158  -7.923  -2.798  0.00  0.00     0.275 HD
HETATM   25  H           1     -19.126  -9.205  -1.674  0.00  0.00     0.275 HD
HETATM   26  H           1     -19.466  -7.618  -1.147  0.00  0.00     0.275 HD
ENDBRANCH  22  23
BRANCH  22  27
HETATM   27  C           1     -21.798  -8.428  -0.833  0.00  0.00     0.101 C 
BRANCH  27  28
HETATM   28  C           1     -22.261  -9.787  -0.405  0.00  0.00     0.028 A 
HETATM   29  N           1     -23.559 -10.221  -0.459  0.00  0.00    -0.355 N 
HETATM   30  C           1     -23.534 -11.450   0.003  0.00  0.00     0.180 A 
ATOM     31  HN          1     -24.373  -9.700  -0.789  1.00  0.00     0.166 HD
HETATM   32  N           1     -22.269 -11.826   0.354  0.00  0.00    -0.360 N 
HETATM   33  H           1     -21.984 -12.756   0.749  0.00  0.00     0.166 HD
HETATM   34  C           1     -21.440 -10.768   0.099  0.00  0.00     0.114 A 
ENDBRANCH  27  28
ENDBRANCH  22  27
ENDBRANCH  19  22
ENDBRANCH   1  18
TORSDOF 11
ENDMDL
MODEL 5
REMARK VINA RESULT:      -7.2     12.782     14.959
REMARK  11 active torsions:
REMARK  status: ('A' for Active; 'I' for Inactive)
REMARK    1  A    between atoms: C_1  and  C_2 
REMARK    2  A    between atoms: C_2  and  C_3 
REMARK    3  A    between atoms: C_3  and  C_27 
REMARK    4  A    between atoms: C_3  and  N_4 
REMARK       I    between atoms: N_4  and  C_22 
REMARK    5  A    between atoms: O_8  and  P_9 
REMARK    6  A    between atoms: P_9  and  O_10 
REMARK    7  A    between atoms: O_10  and  C_23 
REMARK    8  A    between atoms: N_14  and  C_30 
REMARK    9  A    between atoms: C_22  and  C_30 
REMARK   10  A    between atoms: C_30  and  C_31 
REMARK   11  A    between atoms: C_31  and  C_32 
ROOT
HETATM    1  C           1     -21.084  -7.819  -5.521  0.00  0.00     0.189 C 
ENDROOT
BRANCH   1   2
HETATM    2  C           1     -20.401  -6.458  -5.564  0.00  0.00     0.074 C 
BRANCH   2   3
HETATM    3  C           1     -20.962  -5.654  -6.695  0.00  0.00    -0.056 A 
HETATM    4  C           1     -20.242  -5.521  -7.881  0.00  0.00     0.010 A 
HETATM    5  C           1     -20.764  -4.770  -8.935  0.00  0.00     0.038 A 
HETATM    6  C           1     -22.008  -4.155  -8.802  0.00  0.00     0.081 A 
HETATM    7  C           1     -22.730  -4.288  -7.616  0.00  0.00     0.038 A 
HETATM    8  C           1     -22.206  -5.038  -6.562  0.00  0.00     0.010 A 
BRANCH   6   9
HETATM    9  O           1     -22.516  -3.426  -9.826  0.00  0.00    -0.247 OA
BRANCH   9  10
HETATM   10  P           1     -23.559  -4.147 -10.826  0.00  0.00     0.411 P 
HETATM   11  O           1     -23.945  -5.464 -10.271  0.00  0.00    -0.624 OA
HETATM   12  O           1     -24.766  -3.303 -10.975  0.00  0.00    -0.624 OA
BRANCH  10  13
HETATM   13  O           1     -22.865  -4.352 -12.270  0.00  0.00    -0.300 OA
HETATM   14  H           1     -23.197  -5.176 -12.585  0.00  0.00     0.223 HD
ENDBRANCH  10  13
ENDBRANCH   9  10
ENDBRANCH   6   9
ENDBRANCH   2   3
ENDBRANCH   1   2
BRANCH   1  15
HETATM   15  C           1     -20.054  -8.892  -5.264  0.00  0.00     0.197 C 
HETATM   16  O           1     -20.285 -10.073  -5.598  0.00  0.00    -0.646 OA
HETATM   17  O           1     -18.969  -8.597  -4.716  0.00  0.00    -0.646 OA
ENDBRANCH   1  15
BRANCH   1  18
HETATM   18  N           1     -22.069  -7.831  -4.458  0.00  0.00    -0.344 N 
HETATM   19  C           1     -21.796  -7.217  -3.265  0.00  0.00     0.249 C 
HETATM   20  O           1     -22.081  -6.054  -3.104  0.00  0.00    -0.271 OA
HETATM   21  H           1     -22.959  -8.292  -4.597  0.00  0.00     0.163 HD
BRANCH  19  22
HETATM   22  C           1     -21.140  -7.994  -2.150  0.00  0.00     0.280 C 
BRANCH  22  23
HETATM   23  N           1     -21.543  -7.407  -0.829  0.00  0.00    -0.066 N 
HETATM   24  H           1     -21.045  -6.499  -0.686  0.00  0.00     0.275 HD
HETATM   25  H           1     -21.286  -8.069  -0.062  0.00  0.00     0.275 HD
HETATM   26  H           1     -22.575  -7.245  -0.819  0.00  0.00     0.275 HD
ENDBRANCH  22  23
BRANCH  22  27
HETATM   27  C           1     -21.585  -9.449  -2.214  0.00  0.00     0.101 C 
BRANCH  27  28
HETATM   28  C           1     -20.492 -10.329  -1.691  0.00  0.00     0.028 A 
HETATM   29  N           1     -19.200 -10.321  -2.148  0.00  0.00    -0.355 N 
HETATM   30  C           1     -18.574 -11.228  -1.434  0.00  0.00     0.180 A 
ATOM     31  HN          1     -18.808  -9.735  -2.885  1.00  0.00     0.166 HD
HETATM   32  N           1     -19.413 -11.822  -0.534  0.00  0.00    -0.360 N 
HETATM   33  H           1     -19.157 -12.577   0.150  0.00  0.00     0.166 HD
HETATM   34  C           1     -20.648 -11.255  -0.687  0.00  0.00     0.114 A 
ENDBRANCH  27  28
ENDBRANCH  22  27
ENDBRANCH  19  22
ENDBRANCH   1  18
TORSDOF 11
ENDMDL
MODEL 6
REMARK VINA RESULT:      -7.0     13.369     16.071
REMARK  11 active torsions:
REMARK  status: ('A' for Active; 'I' for Inactive)
REMARK    1  A    between atoms: C_1  and  C_2 
REMARK    2  A    between atoms: C_2  and  C_3 
REMARK    3  A    between atoms: C_3  and  C_27 
REMARK    4  A    between atoms: C_3  and  N_4 
REMARK       I    between atoms: N_4  and  C_22 
REMARK    5  A    between atoms: O_8  and  P_9 
REMARK    6  A    between atoms: P_9  and  O_10 
REMARK    7  A    between atoms: O_10  and  C_23 
REMARK    8  A    between atoms: N_14  and  C_30 
REMARK    9  A    between atoms: C_22  and  C_30 
REMARK   10  A    between atoms: C_30  and  C_31 
REMARK   11  A    between atoms: C_31  and  C_32 
ROOT
HETATM    1  C           1     -19.943  -7.840  -5.262  0.00  0.00     0.189 C 
ENDROOT
BRANCH   1   2
HETATM    2  C           1     -21.290  -8.546  -5.338  0.00  0.00     0.074 C 
BRANCH   2   3
HETATM    3  C           1     -21.606  -9.162  -4.010  0.00  0.00    -0.056 A 
HETATM    4  C           1     -21.413  -8.431  -2.838  0.00  0.00     0.010 A 
HETATM    5  C           1     -21.705  -9.006  -1.601  0.00  0.00     0.038 A 
HETATM    6  C           1     -22.193 -10.311  -1.537  0.00  0.00     0.081 A 
HETATM    7  C           1     -22.386 -11.042  -2.708  0.00  0.00     0.038 A 
HETATM    8  C           1     -22.092 -10.467  -3.946  0.00  0.00     0.010 A 
BRANCH   6   9
HETATM    9  O           1     -22.477 -10.869  -0.335  0.00  0.00    -0.247 OA
BRANCH   9  10
HETATM   10  P           1     -21.266 -11.542   0.494  0.00  0.00     0.411 P 
HETATM   11  O           1     -20.656 -10.530   1.385  0.00  0.00    -0.624 OA
HETATM   12  O           1     -21.785 -12.665   1.306  0.00  0.00    -0.624 OA
BRANCH  10  13
HETATM   13  O           1     -20.151 -12.094  -0.537  0.00  0.00    -0.300 OA
HETATM   14  H           1     -19.796 -12.863  -0.123  0.00  0.00     0.223 HD
ENDBRANCH  10  13
ENDBRANCH   9  10
ENDBRANCH   6   9
ENDBRANCH   2   3
ENDBRANCH   1   2
BRANCH   1  15
HETATM   15  C           1     -18.836  -8.866  -5.277  0.00  0.00     0.197 C 
HETATM   16  O           1     -18.250  -9.168  -4.215  0.00  0.00    -0.646 OA
HETATM   17  O           1     -18.505  -9.413  -6.351  0.00  0.00    -0.646 OA
ENDBRANCH   1  15
BRANCH   1  18
HETATM   18  N           1     -19.797  -6.956  -6.403  0.00  0.00    -0.344 N 
HETATM   19  C           1     -20.304  -5.686  -6.353  0.00  0.00     0.249 C 
HETATM   20  O           1     -19.621  -4.777  -5.945  0.00  0.00    -0.271 OA
HETATM   21  H           1     -19.319  -7.278  -7.235  0.00  0.00     0.163 HD
BRANCH  19  22
HETATM   22  C           1     -21.719  -5.420  -6.810  0.00  0.00     0.280 C 
BRANCH  22  23
HETATM   23  N           1     -22.645  -5.499  -5.632  0.00  0.00    -0.066 N 
HETATM   24  H           1     -22.626  -4.592  -5.113  0.00  0.00     0.275 HD
HETATM   25  H           1     -22.336  -6.269  -4.997  0.00  0.00     0.275 HD
HETATM   26  H           1     -23.617  -5.690  -5.965  0.00  0.00     0.275 HD
ENDBRANCH  22  23
BRANCH  22  27
HETATM   27  C           1     -21.800  -4.030  -7.426  0.00  0.00     0.101 C 
BRANCH  27  28
HETATM   28  C           1     -22.735  -4.058  -8.596  0.00  0.00     0.028 A 
HETATM   29  N           1     -24.053  -3.686  -8.549  0.00  0.00    -0.355 N 
HETATM   30  C           1     -24.506  -3.858  -9.769  0.00  0.00     0.180 A 
ATOM     31  HN          1     -24.572  -3.348  -7.738  1.00  0.00     0.166 HD
HETATM   32  N           1     -23.531  -4.327 -10.603  0.00  0.00    -0.360 N 
HETATM   33  H           1     -23.638  -4.547 -11.624  0.00  0.00     0.166 HD
HETATM   34  C           1     -22.388  -4.461  -9.864  0.00  0.00     0.114 A 
ENDBRANCH  27  28
ENDBRANCH  22  27
ENDBRANCH  19  22
ENDBRANCH   1  18
TORSDOF 11
ENDMDL
MODEL 7
REMARK VINA RESULT:      -6.8     12.904     15.200
REMARK  11 active torsions:
REMARK  status: ('A' for Active; 'I' for Inactive)
REMARK    1  A    between atoms: C_1  and  C_2 
REMARK    2  A    between atoms: C_2  and  C_3 
REMARK    3  A    between atoms: C_3  and  C_27 
REMARK    4  A    between atoms: C_3  and  N_4 
REMARK       I    between atoms: N_4  and  C_22 
REMARK    5  A    between atoms: O_8  and  P_9 
REMARK    6  A    between atoms: P_9  and  O_10 
REMARK    7  A    between atoms: O_10  and  C_23 
REMARK    8  A    between atoms: N_14  and  C_30 
REMARK    9  A    between atoms: C_22  and  C_30 
REMARK   10  A    between atoms: C_30  and  C_31 
REMARK   11  A    between atoms: C_31  and  C_32 
ROOT
HETATM    1  C           1     -21.000  -8.094  -4.892  0.00  0.00     0.189 C 
ENDROOT
BRANCH   1   2
HETATM    2  C           1     -19.981  -7.200  -5.586  0.00  0.00     0.074 C 
BRANCH   2   3
HETATM    3  C           1     -20.695  -6.184  -6.422  0.00  0.00    -0.056 A 
HETATM    4  C           1     -20.092  -5.676  -7.571  0.00  0.00     0.010 A 
HETATM    5  C           1     -20.757  -4.728  -8.349  0.00  0.00     0.038 A 
HETATM    6  C           1     -22.029  -4.291  -7.977  0.00  0.00     0.081 A 
HETATM    7  C           1     -22.633  -4.798  -6.827  0.00  0.00     0.038 A 
HETATM    8  C           1     -21.966  -5.746  -6.049  0.00  0.00     0.010 A 
BRANCH   6   9
HETATM    9  O           1     -22.675  -3.370  -8.733  0.00  0.00    -0.247 OA
BRANCH   9  10
HETATM   10  P           1     -23.263  -3.840 -10.162  0.00  0.00     0.411 P 
HETATM   11  O           1     -23.589  -5.282 -10.111  0.00  0.00    -0.624 OA
HETATM   12  O           1     -24.487  -3.068 -10.472  0.00  0.00    -0.624 OA
BRANCH  10  13
HETATM   13  O           1     -22.157  -3.577 -11.310  0.00  0.00    -0.300 OA
HETATM   14  H           1     -22.115  -4.382 -11.797  0.00  0.00     0.223 HD
ENDBRANCH  10  13
ENDBRANCH   9  10
ENDBRANCH   6   9
ENDBRANCH   2   3
ENDBRANCH   1   2
BRANCH   1  15
HETATM   15  C           1     -20.805  -9.522  -5.340  0.00  0.00     0.197 C 
HETATM   16  O           1     -21.766 -10.321  -5.315  0.00  0.00    -0.646 OA
HETATM   17  O           1     -19.683  -9.905  -5.737  0.00  0.00    -0.646 OA
ENDBRANCH   1  15
BRANCH   1  18
HETATM   18  N           1     -20.817  -8.010  -3.456  0.00  0.00    -0.344 N 
HETATM   19  C           1     -20.074  -8.956  -2.804  0.00  0.00     0.249 C 
HETATM   20  O           1     -18.884  -8.800  -2.661  0.00  0.00    -0.271 OA
HETATM   21  H           1     -21.237  -7.250  -2.936  0.00  0.00     0.163 HD
BRANCH  19  22
HETATM   22  C           1     -20.741 -10.198  -2.264  0.00  0.00     0.280 C 
BRANCH  22  23
HETATM   23  N           1     -20.109 -11.412  -2.879  0.00  0.00    -0.066 N 
HETATM   24  H           1     -20.781 -12.211  -2.840  0.00  0.00     0.275 HD
HETATM   25  H           1     -19.243 -11.660  -2.349  0.00  0.00     0.275 HD
HETATM   26  H           1     -19.863 -11.210  -3.875  0.00  0.00     0.275 HD
ENDBRANCH  22  23
BRANCH  22  27
HETATM   27  C           1     -20.568 -10.249  -0.752  0.00  0.00     0.101 C 
BRANCH  27  28
HETATM   28  C           1     -21.584  -9.359  -0.104  0.00  0.00     0.028 A 
HETATM   29  N           1     -21.290  -8.372   0.800  0.00  0.00    -0.355 N 
HETATM   30  C           1     -22.447  -7.838   1.118  0.00  0.00     0.180 A 
ATOM     31  HN          1     -20.369  -8.107   1.150  1.00  0.00     0.166 HD
HETATM   32  N           1     -23.476  -8.443   0.454  0.00  0.00    -0.360 N 
HETATM   33  H           1     -24.495  -8.202   0.536  0.00  0.00     0.166 HD
HETATM   34  C           1     -22.938  -9.423  -0.333  0.00  0.00     0.114 A 
ENDBRANCH  27  28
ENDBRANCH  22  27
ENDBRANCH  19  22
ENDBRANCH   1  18
TORSDOF 11
ENDMDL
MODEL 8
REMARK VINA RESULT:      -6.7     13.813     16.262
REMARK  11 active torsions:
REMARK  status: ('A' for Active; 'I' for Inactive)
REMARK    1  A    between atoms: C_1  and  C_2 
REMARK    2  A    between atoms: C_2  and  C_3 
REMARK    3  A    between atoms: C_3  and  C_27 
REMARK    4  A    between atoms: C_3  and  N_4 
REMARK       I    between atoms: N_4  and  C_22 
REMARK    5  A    between atoms: O_8  and  P_9 
REMARK    6  A    between atoms: P_9  and  O_10 
REMARK    7  A    between atoms: O_10  and  C_23 
REMARK    8  A    between atoms: N_14  and  C_30 
REMARK    9  A    between atoms: C_22  and  C_30 
REMARK   10  A    between atoms: C_30  and  C_31 
REMARK   11  A    between atoms: C_31  and  C_32 
ROOT
HETATM    1  C           1     -21.287  -7.672  -2.415  0.00  0.00     0.189 C 
ENDROOT
BRANCH   1   2
HETATM    2  C           1     -19.826  -7.970  -2.102  0.00  0.00     0.074 C 
BRANCH   2   3
HETATM    3  C           1     -19.386  -9.173  -2.877  0.00  0.00    -0.056 A 
HETATM    4  C           1     -18.030  -9.394  -3.112  0.00  0.00     0.010 A 
HETATM    5  C           1     -17.620 -10.514  -3.835  0.00  0.00     0.038 A 
HETATM    6  C           1     -18.568 -11.415  -4.321  0.00  0.00     0.081 A 
HETATM    7  C           1     -19.924 -11.195  -4.086  0.00  0.00     0.038 A 
HETATM    8  C           1     -20.334 -10.073  -3.363  0.00  0.00     0.010 A 
BRANCH   6   9
HETATM    9  O           1     -18.170 -12.503  -5.023  0.00  0.00    -0.247 OA
BRANCH   9  10
HETATM   10  P           1     -17.806 -12.307  -6.584  0.00  0.00     0.411 P 
HETATM   11  O           1     -16.369 -11.980  -6.719  0.00  0.00    -0.624 OA
HETATM   12  O           1     -18.099 -13.557  -7.322  0.00  0.00    -0.624 OA
BRANCH  10  13
HETATM   13  O           1     -18.693 -11.103  -7.195  0.00  0.00    -0.300 OA
HETATM   14  H           1     -19.157 -11.485  -7.920  0.00  0.00     0.223 HD
ENDBRANCH  10  13
ENDBRANCH   9  10
ENDBRANCH   6   9
ENDBRANCH   2   3
ENDBRANCH   1   2
BRANCH   1  15
HETATM   15  C           1     -22.089  -7.691  -1.137  0.00  0.00     0.197 C 
HETATM   16  O           1     -22.120  -8.724  -0.434  0.00  0.00    -0.646 OA
HETATM   17  O           1     -22.723  -6.674  -0.781  0.00  0.00    -0.646 OA
ENDBRANCH   1  15
BRANCH   1  18
HETATM   18  N           1     -21.391  -6.362  -3.030  0.00  0.00    -0.344 N 
HETATM   19  C           1     -21.634  -6.254  -4.372  0.00  0.00     0.249 C 
HETATM   20  O           1     -22.771  -6.201  -4.779  0.00  0.00    -0.271 OA
HETATM   21  H           1     -21.285  -5.529  -2.466  0.00  0.00     0.163 HD
BRANCH  19  22
HETATM   22  C           1     -20.482  -6.201  -5.346  0.00  0.00     0.280 C 
BRANCH  22  23
HETATM   23  N           1     -20.838  -6.972  -6.583  0.00  0.00    -0.066 N 
HETATM   24  H           1     -21.472  -7.762  -6.329  0.00  0.00     0.275 HD
HETATM   25  H           1     -19.967  -7.350  -7.019  0.00  0.00     0.275 HD
HETATM   26  H           1     -21.322  -6.340  -7.260  0.00  0.00     0.275 HD
ENDBRANCH  22  23
BRANCH  22  27
HETATM   27  C           1     -20.197  -4.751  -5.717  0.00  0.00     0.101 C 
BRANCH  27  28
HETATM   28  C           1     -20.891  -4.420  -7.002  0.00  0.00     0.028 A 
HETATM   29  N           1     -22.219  -4.102  -7.111  0.00  0.00    -0.355 N 
HETATM   30  C           1     -22.420  -3.885  -8.390  0.00  0.00     0.180 A 
ATOM     31  HN          1     -22.906  -4.046  -6.358  1.00  0.00     0.166 HD
HETATM   32  N           1     -21.272  -4.050  -9.111  0.00  0.00    -0.360 N 
HETATM   33  H           1     -21.169  -3.936 -10.151  0.00  0.00     0.166 HD
HETATM   34  C           1     -20.282  -4.395  -8.234  0.00  0.00     0.114 A 
ENDBRANCH  27  28
ENDBRANCH  22  27
ENDBRANCH  19  22
ENDBRANCH   1  18
TORSDOF 11
ENDMDL
MODEL 9
REMARK VINA RESULT:      -6.7     13.134     15.643
REMARK  11 active torsions:
REMARK  status: ('A' for Active; 'I' for Inactive)
REMARK    1  A    between atoms: C_1  and  C_2 
REMARK    2  A    between atoms: C_2  and  C_3 
REMARK    3  A    between atoms: C_3  and  C_27 
REMARK    4  A    between atoms: C_3  and  N_4 
REMARK       I    between atoms: N_4  and  C_22 
REMARK    5  A    between atoms: O_8  and  P_9 
REMARK    6  A    between atoms: P_9  and  O_10 
REMARK    7  A    between atoms: O_10  and  C_23 
REMARK    8  A    between atoms: N_14  and  C_30 
REMARK    9  A    between atoms: C_22  and  C_30 
REMARK   10  A    between atoms: C_30  and  C_31 
REMARK   11  A    between atoms: C_31  and  C_32 
ROOT
HETATM    1  C           1     -21.482  -7.468  -5.512  0.00  0.00     0.189 C 
ENDROOT
BRANCH   1   2
HETATM    2  C           1     -20.290  -7.966  -4.705  0.00  0.00     0.074 C 
BRANCH   2   3
HETATM    3  C           1     -20.779  -8.757  -3.531  0.00  0.00    -0.056 A 
HETATM    4  C           1     -21.675  -9.808  -3.722  0.00  0.00     0.010 A 
HETATM    5  C           1     -22.131 -10.544  -2.628  0.00  0.00     0.038 A 
HETATM    6  C           1     -21.687 -10.230  -1.343  0.00  0.00     0.081 A 
HETATM    7  C           1     -20.791  -9.180  -1.152  0.00  0.00     0.038 A 
HETATM    8  C           1     -20.335  -8.443  -2.246  0.00  0.00     0.010 A 
BRANCH   6   9
HETATM    9  O           1     -22.130 -10.945  -0.281  0.00  0.00    -0.247 OA
BRANCH   9  10
HETATM   10  P           1     -21.336 -12.297   0.107  0.00  0.00     0.411 P 
HETATM   11  O           1     -21.877 -12.842   1.372  0.00  0.00    -0.624 OA
HETATM   12  O           1     -21.505 -13.297  -0.972  0.00  0.00    -0.624 OA
BRANCH  10  13
HETATM   13  O           1     -19.766 -11.965   0.290  0.00  0.00    -0.300 OA
HETATM   14  H           1     -19.352 -12.802   0.418  0.00  0.00     0.223 HD
ENDBRANCH  10  13
ENDBRANCH   9  10
ENDBRANCH   6   9
ENDBRANCH   2   3
ENDBRANCH   1   2
BRANCH   1  15
HETATM   15  C           1     -22.127  -6.308  -4.794  0.00  0.00     0.197 C 
HETATM   16  O           1     -23.356  -6.107  -4.908  0.00  0.00    -0.646 OA
HETATM   17  O           1     -21.433  -5.548  -4.084  0.00  0.00    -0.646 OA
ENDBRANCH   1  15
BRANCH   1  18
HETATM   18  N           1     -21.031  -7.035  -6.820  0.00  0.00    -0.344 N 
HETATM   19  C           1     -20.664  -5.732  -7.021  0.00  0.00     0.249 C 
HETATM   20  O           1     -19.517  -5.393  -6.847  0.00  0.00    -0.271 OA
HETATM   21  H           1     -20.987  -7.696  -7.585  0.00  0.00     0.163 HD
BRANCH  19  22
HETATM   22  C           1     -21.692  -4.717  -7.459  0.00  0.00     0.280 C 
BRANCH  22  23
HETATM   23  N           1     -21.420  -3.407  -6.779  0.00  0.00    -0.066 N 
HETATM   24  H           1     -21.200  -2.682  -7.498  0.00  0.00     0.275 HD
HETATM   25  H           1     -20.607  -3.514  -6.131  0.00  0.00     0.275 HD
HETATM   26  H           1     -22.263  -3.116  -6.235  0.00  0.00     0.275 HD
ENDBRANCH  22  23
BRANCH  22  27
HETATM   27  C           1     -21.610  -4.531  -8.968  0.00  0.00     0.101 C 
BRANCH  27  28
HETATM   28  C           1     -22.961  -4.163  -9.499  0.00  0.00     0.028 A 
HETATM   29  N           1     -23.941  -3.541  -8.771  0.00  0.00    -0.355 N 
HETATM   30  C           1     -24.953  -3.404  -9.598  0.00  0.00     0.180 A 
ATOM     31  HN          1     -23.895  -3.247  -7.796  1.00  0.00     0.166 HD
HETATM   32  N           1     -24.662  -3.914 -10.831  0.00  0.00    -0.360 N 
HETATM   33  H           1     -25.302  -3.928 -11.665  0.00  0.00     0.166 HD
HETATM   34  C           1     -23.388  -4.406 -10.783  0.00  0.00     0.114 A 
ENDBRANCH  27  28
ENDBRANCH  22  27
ENDBRANCH  19  22
ENDBRANCH   1  18
TORSDOF 11
ENDMDL
