MODEL 1
REMARK VINA RESULT:      -6.5      0.000      0.000
REMARK  10 active torsions:
REMARK  status: ('A' for Active; 'I' for Inactive)
REMARK    1  A    between atoms: C_1  and  C_5 
REMARK    2  A    between atoms: C_1  and  C_11 
REMARK       I    between atoms: C_3  and  N_12 
REMARK    3  A    between atoms: C_3  and  C_4 
REMARK    4  A    between atoms: C_4  and  C_7 
REMARK    5  A    between atoms: C_4  and  N_24 
REMARK    6  A    between atoms: C_7  and  C_10 
REMARK    7  A    between atoms: C_8  and  C_10 
REMARK    8  A    between atoms: C_8  and  N_17 
REMARK    9  A    between atoms: C_11  and  C_13 
REMARK   10  A    between atoms: C_11  and  N_12 
ROOT
HETATM    1  C           1     -34.271  -2.586 -11.528  0.00  0.00     0.249 C 
HETATM    2  N           1     -35.427  -2.116 -12.092  0.00  0.00    -0.345 N 
HETATM    3  O           1     -33.572  -1.845 -10.879  0.00  0.00    -0.271 OA
HETATM    4  H           1     -36.013  -2.736 -12.637  0.00  0.00     0.163 HD
ENDROOT
BRANCH   1   5
HETATM    5  C           1     -33.870  -4.028 -11.720  0.00  0.00     0.274 C 
BRANCH   5   6
HETATM    6  C           1     -34.225  -4.823 -10.471  0.00  0.00     0.044 C 
BRANCH   6   7
HETATM    7  C           1     -34.086  -6.313 -10.760  0.00  0.00     0.030 C 
BRANCH   7   8
HETATM    8  C           1     -34.930  -7.103  -9.770  0.00  0.00     0.230 C 
BRANCH   8   9
HETATM    9  N           1     -34.382  -8.494  -9.642  0.00  0.00    -0.079 N 
HETATM   10  H           1     -35.157  -9.185  -9.757  0.00  0.00     0.274 HD
HETATM   11  H           1     -33.947  -8.611  -8.699  0.00  0.00     0.274 HD
HETATM   12  H           1     -33.661  -8.653 -10.381  0.00  0.00     0.274 HD
ENDBRANCH   8   9
ENDBRANCH   7   8
ENDBRANCH   6   7
ENDBRANCH   5   6
BRANCH   5  13
HETATM   13  N           1     -32.391  -4.108 -11.960  0.00  0.00    -0.067 N 
HETATM   14  H           1     -32.193  -3.934 -12.970  0.00  0.00     0.275 HD
HETATM   15  H           1     -31.906  -3.387 -11.380  0.00  0.00     0.275 HD
HETATM   16  H           1     -32.048  -5.059 -11.697  0.00  0.00     0.275 HD
ENDBRANCH   5  13
ENDBRANCH   1   5
BRANCH   2  17
HETATM   17  C           1     -35.812  -0.730 -11.909  0.00  0.00     0.185 C 
BRANCH  17  18
HETATM   18  C           1     -36.492  -0.222 -13.173  0.00  0.00     0.040 C 
BRANCH  18  19
HETATM   19  C           1     -35.439   0.057 -14.240  0.00  0.00    -0.020 C 
HETATM   20  C           1     -36.128   0.396 -15.555  0.00  0.00     0.009 C 
HETATM   21  C           1     -34.573   1.229 -13.802  0.00  0.00     0.009 C 
ENDBRANCH  18  19
ENDBRANCH  17  18
BRANCH  17  22
HETATM   22  C           1     -36.768  -0.624 -10.746  0.00  0.00     0.196 C 
HETATM   23  O           1     -36.356  -0.233  -9.632  0.00  0.00    -0.646 OA
HETATM   24  O           1     -37.971  -0.926 -10.897  0.00  0.00    -0.646 OA
ENDBRANCH  17  22
ENDBRANCH   2  17
TORSDOF 10
ENDMDL
MODEL 2
REMARK VINA RESULT:      -6.1     11.988     13.598
REMARK  10 active torsions:
REMARK  status: ('A' for Active; 'I' for Inactive)
REMARK    1  A    between atoms: C_1  and  C_5 
REMARK    2  A    between atoms: C_1  and  C_11 
REMARK       I    between atoms: C_3  and  N_12 
REMARK    3  A    between atoms: C_3  and  C_4 
REMARK    4  A    between atoms: C_4  and  C_7 
REMARK    5  A    between atoms: C_4  and  N_24 
REMARK    6  A    between atoms: C_7  and  C_10 
REMARK    7  A    between atoms: C_8  and  C_10 
REMARK    8  A    between atoms: C_8  and  N_17 
REMARK    9  A    between atoms: C_11  and  C_13 
REMARK   10  A    between atoms: C_11  and  N_12 
ROOT
HETATM    1  C           1     -22.306  -4.237  -7.548  0.00  0.00     0.249 C 
HETATM    2  N           1     -23.226  -4.503  -8.527  0.00  0.00    -0.345 N 
HETATM    3  O           1     -21.426  -3.435  -7.750  0.00  0.00    -0.271 OA
HETATM    4  H           1     -23.964  -5.176  -8.357  0.00  0.00     0.163 HD
ENDROOT
BRANCH   1   5
HETATM    5  C           1     -22.392  -4.945  -6.218  0.00  0.00     0.274 C 
BRANCH   5   6
HETATM    6  C           1     -21.494  -6.173  -6.238  0.00  0.00     0.044 C 
BRANCH   6   7
HETATM    7  C           1     -21.825  -7.066  -5.048  0.00  0.00     0.030 C 
BRANCH   7   8
HETATM    8  C           1     -21.186  -6.494  -3.791  0.00  0.00     0.230 C 
BRANCH   8   9
HETATM    9  N           1     -22.257  -6.130  -2.805  0.00  0.00    -0.079 N 
HETATM   10  H           1     -22.084  -6.627  -1.903  0.00  0.00     0.274 HD
HETATM   11  H           1     -23.190  -6.412  -3.185  0.00  0.00     0.274 HD
HETATM   12  H           1     -22.244  -5.098  -2.642  0.00  0.00     0.274 HD
ENDBRANCH   8   9
ENDBRANCH   7   8
ENDBRANCH   6   7
ENDBRANCH   5   6
BRANCH   5  13
HETATM   13  N           1     -23.810  -5.367  -5.968  0.00  0.00    -0.067 N 
HETATM   14  H           1     -23.875  -5.836  -5.037  0.00  0.00     0.275 HD
HETATM   15  H           1     -24.430  -4.526  -5.978  0.00  0.00     0.275 HD
HETATM   16  H           1     -24.112  -6.032  -6.715  0.00  0.00     0.275 HD
ENDBRANCH   5  13
ENDBRANCH   1   5
BRANCH   2  17
HETATM   17  C           1     -23.143  -3.824  -9.804  0.00  0.00     0.185 C 
BRANCH  17  18
HETATM   18  C           1     -22.582  -4.778 -10.850  0.00  0.00     0.040 C 
BRANCH  18  19
HETATM   19  C           1     -21.259  -4.234 -11.376  0.00  0.00    -0.020 C 
HETATM   20  C           1     -21.270  -2.713 -11.299  0.00  0.00     0.009 C 
HETATM   21  C           1     -20.115  -4.777 -10.530  0.00  0.00     0.009 C 
ENDBRANCH  18  19
ENDBRANCH  17  18
BRANCH  17  22
HETATM   22  C           1     -24.522  -3.373 -10.223  0.00  0.00     0.196 C 
HETATM   23  O           1     -25.232  -2.717  -9.430  0.00  0.00    -0.646 OA
HETATM   24  O           1     -24.952  -3.653 -11.362  0.00  0.00    -0.646 OA
ENDBRANCH  17  22
ENDBRANCH   2  17
TORSDOF 10
ENDMDL
MODEL 3
REMARK VINA RESULT:      -6.0      2.811      5.478
REMARK  10 active torsions:
REMARK  status: ('A' for Active; 'I' for Inactive)
REMARK    1  A    between atoms: C_1  and  C_5 
REMARK    2  A    between atoms: C_1  and  C_11 
REMARK       I    between atoms: C_3  and  N_12 
REMARK    3  A    between atoms: C_3  and  C_4 
REMARK    4  A    between atoms: C_4  and  C_7 
REMARK    5  A    between atoms: C_4  and  N_24 
REMARK    6  A    between atoms: C_7  and  C_10 
REMARK    7  A    between atoms: C_8  and  C_10 
REMARK    8  A    between atoms: C_8  and  N_17 
REMARK    9  A    between atoms: C_11  and  C_13 
REMARK   10  A    between atoms: C_11  and  N_12 
ROOT
HETATM    1  C           1     -36.019  -0.402 -13.023  0.00  0.00     0.249 C 
HETATM    2  N           1     -35.183  -0.512 -11.944  0.00  0.00    -0.345 N 
HETATM    3  O           1     -36.986  -1.119 -13.112  0.00  0.00    -0.271 OA
HETATM    4  H           1     -34.372   0.089 -11.869  0.00  0.00     0.163 HD
ENDROOT
BRANCH   1   5
HETATM    5  C           1     -35.730   0.616 -14.099  0.00  0.00     0.274 C 
BRANCH   5   6
HETATM    6  C           1     -36.338   0.149 -15.415  0.00  0.00     0.044 C 
BRANCH   6   7
HETATM    7  C           1     -35.237  -0.385 -16.323  0.00  0.00     0.030 C 
BRANCH   7   8
HETATM    8  C           1     -35.600  -1.787 -16.791  0.00  0.00     0.230 C 
BRANCH   8   9
HETATM    9  N           1     -34.352  -2.608 -16.930  0.00  0.00    -0.079 N 
HETATM   10  H           1     -34.568  -3.485 -17.454  0.00  0.00     0.274 HD
HETATM   11  H           1     -33.988  -2.851 -15.980  0.00  0.00     0.274 HD
HETATM   12  H           1     -33.630  -2.060 -17.450  0.00  0.00     0.274 HD
ENDBRANCH   8   9
ENDBRANCH   7   8
ENDBRANCH   6   7
ENDBRANCH   5   6
BRANCH   5  13
HETATM   13  N           1     -34.246   0.767 -14.259  0.00  0.00    -0.067 N 
HETATM   14  H           1     -33.882   1.420 -13.531  0.00  0.00     0.275 HD
HETATM   15  H           1     -33.789  -0.166 -14.151  0.00  0.00     0.275 HD
HETATM   16  H           1     -34.037   1.151 -15.208  0.00  0.00     0.275 HD
ENDBRANCH   5  13
ENDBRANCH   1   5
BRANCH   2  17
HETATM   17  C           1     -35.459  -1.490 -10.910  0.00  0.00     0.185 C 
BRANCH  17  18
HETATM   18  C           1     -34.146  -1.984 -10.316  0.00  0.00     0.040 C 
BRANCH  18  19
HETATM   19  C           1     -33.987  -3.472 -10.602  0.00  0.00    -0.020 C 
HETATM   20  C           1     -35.307  -4.035 -11.112  0.00  0.00     0.009 C 
HETATM   21  C           1     -32.907  -3.673 -11.656  0.00  0.00     0.009 C 
ENDBRANCH  18  19
ENDBRANCH  17  18
BRANCH  17  22
HETATM   22  C           1     -36.294  -0.853  -9.826  0.00  0.00     0.196 C 
HETATM   23  O           1     -37.542  -0.879  -9.902  0.00  0.00    -0.646 OA
HETATM   24  O           1     -35.738  -0.300  -8.853  0.00  0.00    -0.646 OA
ENDBRANCH  17  22
ENDBRANCH   2  17
TORSDOF 10
ENDMDL
MODEL 4
REMARK VINA RESULT:      -5.7     13.801     16.434
REMARK  10 active torsions:
REMARK  status: ('A' for Active; 'I' for Inactive)
REMARK    1  A    between atoms: C_1  and  C_5 
REMARK    2  A    between atoms: C_1  and  C_11 
REMARK       I    between atoms: C_3  and  N_12 
REMARK    3  A    between atoms: C_3  and  C_4 
REMARK    4  A    between atoms: C_4  and  C_7 
REMARK    5  A    between atoms: C_4  and  N_24 
REMARK    6  A    between atoms: C_7  and  C_10 
REMARK    7  A    between atoms: C_8  and  C_10 
REMARK    8  A    between atoms: C_8  and  N_17 
REMARK    9  A    between atoms: C_11  and  C_13 
REMARK   10  A    between atoms: C_11  and  N_12 
ROOT
HETATM    1  C           1     -20.660  -4.910  -6.216  0.00  0.00     0.249 C 
HETATM    2  N           1     -20.983  -6.240  -6.167  0.00  0.00    -0.345 N 
HETATM    3  O           1     -20.019  -4.411  -5.322  0.00  0.00    -0.271 OA
HETATM    4  H           1     -21.520  -6.657  -6.916  0.00  0.00     0.163 HD
ENDROOT
BRANCH   1   5
HETATM    5  C           1     -21.104  -4.068  -7.387  0.00  0.00     0.274 C 
BRANCH   5   6
HETATM    6  C           1     -22.560  -4.376  -7.710  0.00  0.00     0.044 C 
BRANCH   6   7
HETATM    7  C           1     -22.956  -3.665  -8.998  0.00  0.00     0.030 C 
BRANCH   7   8
HETATM    8  C           1     -24.091  -4.426  -9.670  0.00  0.00     0.230 C 
BRANCH   8   9
HETATM    9  N           1     -25.327  -3.575  -9.681  0.00  0.00    -0.079 N 
HETATM   10  H           1     -26.172  -4.189  -9.717  0.00  0.00     0.274 HD
HETATM   11  H           1     -25.313  -2.952 -10.521  0.00  0.00     0.274 HD
HETATM   12  H           1     -25.357  -2.993  -8.814  0.00  0.00     0.274 HD
ENDBRANCH   8   9
ENDBRANCH   7   8
ENDBRANCH   6   7
ENDBRANCH   5   6
BRANCH   5  13
HETATM   13  N           1     -20.250  -4.382  -8.580  0.00  0.00    -0.067 N 
HETATM   14  H           1     -19.446  -3.716  -8.618  0.00  0.00     0.275 HD
HETATM   15  H           1     -19.890  -5.360  -8.502  0.00  0.00     0.275 HD
HETATM   16  H           1     -20.821  -4.288  -9.451  0.00  0.00     0.275 HD
ENDBRANCH   5  13
ENDBRANCH   1   5
BRANCH   2  17
HETATM   17  C           1     -20.557  -7.048  -5.042  0.00  0.00     0.185 C 
BRANCH  17  18
HETATM   18  C           1     -21.683  -7.127  -4.020  0.00  0.00     0.040 C 
BRANCH  18  19
HETATM   19  C           1     -21.145  -6.763  -2.641  0.00  0.00    -0.020 C 
HETATM   20  C           1     -22.282  -6.230  -1.779  0.00  0.00     0.009 C 
HETATM   21  C           1     -20.547  -8.000  -1.986  0.00  0.00     0.009 C 
ENDBRANCH  18  19
ENDBRANCH  17  18
BRANCH  17  22
HETATM   22  C           1     -20.214  -8.437  -5.523  0.00  0.00     0.196 C 
HETATM   23  O           1     -21.125  -9.273  -5.717  0.00  0.00    -0.646 OA
HETATM   24  O           1     -19.023  -8.751  -5.728  0.00  0.00    -0.646 OA
ENDBRANCH  17  22
ENDBRANCH   2  17
TORSDOF 10
ENDMDL
MODEL 5
REMARK VINA RESULT:      -5.7     14.428     17.018
REMARK  10 active torsions:
REMARK  status: ('A' for Active; 'I' for Inactive)
REMARK    1  A    between atoms: C_1  and  C_5 
REMARK    2  A    between atoms: C_1  and  C_11 
REMARK       I    between atoms: C_3  and  N_12 
REMARK    3  A    between atoms: C_3  and  C_4 
REMARK    4  A    between atoms: C_4  and  C_7 
REMARK    5  A    between atoms: C_4  and  N_24 
REMARK    6  A    between atoms: C_7  and  C_10 
REMARK    7  A    between atoms: C_8  and  C_10 
REMARK    8  A    between atoms: C_8  and  N_17 
REMARK    9  A    between atoms: C_11  and  C_13 
REMARK   10  A    between atoms: C_11  and  N_12 
ROOT
HETATM    1  C           1     -20.974  -5.601  -6.336  0.00  0.00     0.249 C 
HETATM    2  N           1     -20.997  -6.948  -6.090  0.00  0.00    -0.345 N 
HETATM    3  O           1     -20.481  -4.849  -5.530  0.00  0.00    -0.271 OA
HETATM    4  H           1     -21.411  -7.578  -6.765  0.00  0.00     0.163 HD
ENDROOT
BRANCH   1   5
HETATM    5  C           1     -21.566  -5.057  -7.613  0.00  0.00     0.274 C 
BRANCH   5   6
HETATM    6  C           1     -20.579  -4.095  -8.260  0.00  0.00     0.044 C 
BRANCH   6   7
HETATM    7  C           1     -20.392  -4.466  -9.726  0.00  0.00     0.030 C 
BRANCH   7   8
HETATM    8  C           1     -21.462  -3.781 -10.564  0.00  0.00     0.230 C 
BRANCH   8   9
HETATM    9  N           1     -20.834  -3.191 -11.793  0.00  0.00    -0.079 N 
HETATM   10  H           1     -19.855  -2.898 -11.578  0.00  0.00     0.274 HD
HETATM   11  H           1     -21.386  -2.358 -12.100  0.00  0.00     0.274 HD
HETATM   12  H           1     -20.825  -3.905 -12.556  0.00  0.00     0.274 HD
ENDBRANCH   8   9
ENDBRANCH   7   8
ENDBRANCH   6   7
ENDBRANCH   5   6
BRANCH   5  13
HETATM   13  N           1     -22.842  -4.331  -7.304  0.00  0.00    -0.067 N 
HETATM   14  H           1     -22.651  -3.569  -6.616  0.00  0.00     0.275 HD
HETATM   15  H           1     -23.229  -3.919  -8.182  0.00  0.00     0.275 HD
HETATM   16  H           1     -23.533  -5.001  -6.898  0.00  0.00     0.275 HD
ENDBRANCH   5  13
ENDBRANCH   1   5
BRANCH   2  17
HETATM   17  C           1     -20.430  -7.470  -4.863  0.00  0.00     0.185 C 
BRANCH  17  18
HETATM   18  C           1     -21.534  -7.643  -3.828  0.00  0.00     0.040 C 
BRANCH  18  19
HETATM   19  C           1     -21.093  -7.025  -2.506  0.00  0.00    -0.020 C 
HETATM   20  C           1     -22.244  -6.224  -1.912  0.00  0.00     0.009 C 
HETATM   21  C           1     -20.690  -8.130  -1.539  0.00  0.00     0.009 C 
ENDBRANCH  18  19
ENDBRANCH  17  18
BRANCH  17  22
HETATM   22  C           1     -19.784  -8.807  -5.137  0.00  0.00     0.196 C 
HETATM   23  O           1     -18.658  -9.066  -4.660  0.00  0.00    -0.646 OA
HETATM   24  O           1     -20.376  -9.654  -5.840  0.00  0.00    -0.646 OA
ENDBRANCH  17  22
ENDBRANCH   2  17
TORSDOF 10
ENDMDL
MODEL 6
REMARK VINA RESULT:      -5.6     14.292     16.920
REMARK  10 active torsions:
REMARK  status: ('A' for Active; 'I' for Inactive)
REMARK    1  A    between atoms: C_1  and  C_5 
REMARK    2  A    between atoms: C_1  and  C_11 
REMARK       I    between atoms: C_3  and  N_12 
REMARK    3  A    between atoms: C_3  and  C_4 
REMARK    4  A    between atoms: C_4  and  C_7 
REMARK    5  A    between atoms: C_4  and  N_24 
REMARK    6  A    between atoms: C_7  and  C_10 
REMARK    7  A    between atoms: C_8  and  C_10 
REMARK    8  A    between atoms: C_8  and  N_17 
REMARK    9  A    between atoms: C_11  and  C_13 
REMARK   10  A    between atoms: C_11  and  N_12 
ROOT
HETATM    1  C           1     -21.341  -5.894  -5.503  0.00  0.00     0.249 C 
HETATM    2  N           1     -20.785  -6.775  -4.615  0.00  0.00    -0.345 N 
HETATM    3  O           1     -22.540  -5.762  -5.551  0.00  0.00    -0.271 OA
HETATM    4  H           1     -19.779  -6.886  -4.575  0.00  0.00     0.163 HD
ENDROOT
BRANCH   1   5
HETATM    5  C           1     -20.455  -5.088  -6.421  0.00  0.00     0.274 C 
BRANCH   5   6
HETATM    6  C           1     -21.255  -3.938  -7.018  0.00  0.00     0.044 C 
BRANCH   6   7
HETATM    7  C           1     -21.373  -4.129  -8.525  0.00  0.00     0.030 C 
BRANCH   7   8
HETATM    8  C           1     -22.818  -3.914  -8.953  0.00  0.00     0.230 C 
BRANCH   8   9
HETATM    9  N           1     -23.727  -4.140  -7.781  0.00  0.00    -0.079 N 
HETATM   10  H           1     -23.205  -4.639  -7.026  0.00  0.00     0.274 HD
HETATM   11  H           1     -24.543  -4.720  -8.081  0.00  0.00     0.274 HD
HETATM   12  H           1     -24.066  -3.220  -7.420  0.00  0.00     0.274 HD
ENDBRANCH   8   9
ENDBRANCH   7   8
ENDBRANCH   6   7
ENDBRANCH   5   6
BRANCH   5  13
HETATM   13  N           1     -19.946  -5.968  -7.524  0.00  0.00    -0.067 N 
HETATM   14  H           1     -20.380  -6.915  -7.443  0.00  0.00     0.275 HD
HETATM   15  H           1     -20.197  -5.548  -8.448  0.00  0.00     0.275 HD
HETATM   16  H           1     -18.907  -6.054  -7.449  0.00  0.00     0.275 HD
ENDBRANCH   5  13
ENDBRANCH   1   5
BRANCH   2  17
HETATM   17  C           1     -21.635  -7.550  -3.733  0.00  0.00     0.185 C 
BRANCH  17  18
HETATM   18  C           1     -21.082  -8.964  -3.609  0.00  0.00     0.040 C 
BRANCH  18  19
HETATM   19  C           1     -19.701  -9.028  -4.252  0.00  0.00    -0.020 C 
HETATM   20  C           1     -18.656  -9.304  -3.179  0.00  0.00     0.009 C 
HETATM   21  C           1     -19.675 -10.143  -5.287  0.00  0.00     0.009 C 
ENDBRANCH  18  19
ENDBRANCH  17  18
BRANCH  17  22
HETATM   22  C           1     -21.669  -6.902  -2.371  0.00  0.00     0.196 C 
HETATM   23  O           1     -21.035  -7.411  -1.421  0.00  0.00    -0.646 OA
HETATM   24  O           1     -22.330  -5.856  -2.193  0.00  0.00    -0.646 OA
ENDBRANCH  17  22
ENDBRANCH   2  17
TORSDOF 10
ENDMDL
MODEL 7
REMARK VINA RESULT:      -5.6      2.596      3.432
REMARK  10 active torsions:
REMARK  status: ('A' for Active; 'I' for Inactive)
REMARK    1  A    between atoms: C_1  and  C_5 
REMARK    2  A    between atoms: C_1  and  C_11 
REMARK       I    between atoms: C_3  and  N_12 
REMARK    3  A    between atoms: C_3  and  C_4 
REMARK    4  A    between atoms: C_4  and  C_7 
REMARK    5  A    between atoms: C_4  and  N_24 
REMARK    6  A    between atoms: C_7  and  C_10 
REMARK    7  A    between atoms: C_8  and  C_10 
REMARK    8  A    between atoms: C_8  and  N_17 
REMARK    9  A    between atoms: C_11  and  C_13 
REMARK   10  A    between atoms: C_11  and  N_12 
ROOT
HETATM    1  C           1     -35.046  -1.814 -12.629  0.00  0.00     0.249 C 
HETATM    2  N           1     -34.846  -1.453 -13.934  0.00  0.00    -0.345 N 
HETATM    3  O           1     -36.168  -1.889 -12.189  0.00  0.00    -0.271 OA
HETATM    4  H           1     -33.905  -1.389 -14.302  0.00  0.00     0.163 HD
ENDROOT
BRANCH   1   5
HETATM    5  C           1     -33.865  -2.119 -11.740  0.00  0.00     0.274 C 
BRANCH   5   6
HETATM    6  C           1     -33.489  -3.587 -11.880  0.00  0.00     0.044 C 
BRANCH   6   7
HETATM    7  C           1     -33.888  -4.337 -10.615  0.00  0.00     0.030 C 
BRANCH   7   8
HETATM    8  C           1     -34.158  -5.796 -10.954  0.00  0.00     0.230 C 
BRANCH   8   9
HETATM    9  N           1     -34.730  -5.892 -12.338  0.00  0.00    -0.079 N 
HETATM   10  H           1     -34.784  -6.895 -12.624  0.00  0.00     0.274 HD
HETATM   11  H           1     -34.114  -5.373 -13.005  0.00  0.00     0.274 HD
HETATM   12  H           1     -35.687  -5.475 -12.349  0.00  0.00     0.274 HD
ENDBRANCH   8   9
ENDBRANCH   7   8
ENDBRANCH   6   7
ENDBRANCH   5   6
BRANCH   5  13
HETATM   13  N           1     -34.225  -1.829 -10.313  0.00  0.00    -0.067 N 
HETATM   14  H           1     -33.564  -2.329  -9.678  0.00  0.00     0.275 HD
HETATM   15  H           1     -34.162  -0.800 -10.141  0.00  0.00     0.275 HD
HETATM   16  H           1     -35.200  -2.155 -10.128  0.00  0.00     0.275 HD
ENDBRANCH   5  13
ENDBRANCH   1   5
BRANCH   2  17
HETATM   17  C           1     -35.980  -1.159 -14.788  0.00  0.00     0.185 C 
BRANCH  17  18
HETATM   18  C           1     -36.408   0.288 -14.582  0.00  0.00     0.040 C 
BRANCH  18  19
HETATM   19  C           1     -35.277   1.217 -15.007  0.00  0.00    -0.020 C 
HETATM   20  C           1     -35.842   2.347 -15.858  0.00  0.00     0.009 C 
HETATM   21  C           1     -34.608   1.800 -13.769  0.00  0.00     0.009 C 
ENDBRANCH  18  19
ENDBRANCH  17  18
BRANCH  17  22
HETATM   22  C           1     -35.590  -1.369 -16.231  0.00  0.00     0.196 C 
HETATM   23  O           1     -34.521  -1.957 -16.510  0.00  0.00    -0.646 OA
HETATM   24  O           1     -36.335  -0.958 -17.146  0.00  0.00    -0.646 OA
ENDBRANCH  17  22
ENDBRANCH   2  17
TORSDOF 10
ENDMDL
MODEL 8
REMARK VINA RESULT:      -5.4     15.388     18.158
REMARK  10 active torsions:
REMARK  status: ('A' for Active; 'I' for Inactive)
REMARK    1  A    between atoms: C_1  and  C_5 
REMARK    2  A    between atoms: C_1  and  C_11 
REMARK       I    between atoms: C_3  and  N_12 
REMARK    3  A    between atoms: C_3  and  C_4 
REMARK    4  A    between atoms: C_4  and  C_7 
REMARK    5  A    between atoms: C_4  and  N_24 
REMARK    6  A    between atoms: C_7  and  C_10 
REMARK    7  A    between atoms: C_8  and  C_10 
REMARK    8  A    between atoms: C_8  and  N_17 
REMARK    9  A    between atoms: C_11  and  C_13 
REMARK   10  A    between atoms: C_11  and  N_12 
ROOT
HETATM    1  C           1     -21.325  -6.806  -3.691  0.00  0.00     0.249 C 
HETATM    2  N           1     -20.986  -8.090  -3.360  0.00  0.00    -0.345 N 
HETATM    3  O           1     -21.240  -5.928  -2.867  0.00  0.00    -0.271 OA
HETATM    4  H           1     -21.057  -8.826  -4.052  0.00  0.00     0.163 HD
ENDROOT
BRANCH   1   5
HETATM    5  C           1     -21.805  -6.488  -5.086  0.00  0.00     0.274 C 
BRANCH   5   6
HETATM    6  C           1     -20.979  -5.345  -5.660  0.00  0.00     0.044 C 
BRANCH   6   7
HETATM    7  C           1     -20.638  -5.644  -7.114  0.00  0.00     0.030 C 
BRANCH   7   8
HETATM    8  C           1     -21.601  -4.895  -8.025  0.00  0.00     0.230 C 
BRANCH   8   9
HETATM    9  N           1     -21.921  -3.558  -7.425  0.00  0.00    -0.079 N 
HETATM   10  H           1     -22.294  -3.690  -6.459  0.00  0.00     0.274 HD
HETATM   11  H           1     -22.639  -3.076  -8.013  0.00  0.00     0.274 HD
HETATM   12  H           1     -21.054  -2.977  -7.388  0.00  0.00     0.274 HD
ENDBRANCH   8   9
ENDBRANCH   7   8
ENDBRANCH   6   7
ENDBRANCH   5   6
BRANCH   5  13
HETATM   13  N           1     -23.250  -6.085  -5.038  0.00  0.00    -0.067 N 
HETATM   14  H           1     -23.318  -5.047  -4.934  0.00  0.00     0.275 HD
HETATM   15  H           1     -23.722  -6.379  -5.921  0.00  0.00     0.275 HD
HETATM   16  H           1     -23.712  -6.547  -4.223  0.00  0.00     0.275 HD
ENDBRANCH   5  13
ENDBRANCH   1   5
BRANCH   2  17
HETATM   17  C           1     -20.525  -8.396  -2.020  0.00  0.00     0.185 C 
BRANCH  17  18
HETATM   18  C           1     -21.690  -8.919  -1.191  0.00  0.00     0.040 C 
BRANCH  18  19
HETATM   19  C           1     -21.820  -8.091   0.082  0.00  0.00    -0.020 C 
HETATM   20  C           1     -23.289  -7.985   0.470  0.00  0.00     0.009 C 
HETATM   21  C           1     -21.045  -8.764   1.206  0.00  0.00     0.009 C 
ENDBRANCH  18  19
ENDBRANCH  17  18
BRANCH  17  22
HETATM   22  C           1     -19.444  -9.448  -2.089  0.00  0.00     0.196 C 
HETATM   23  O           1     -19.623 -10.563  -1.550  0.00  0.00    -0.646 OA
HETATM   24  O           1     -18.373  -9.206  -2.685  0.00  0.00    -0.646 OA
ENDBRANCH  17  22
ENDBRANCH   2  17
TORSDOF 10
ENDMDL
MODEL 9
REMARK VINA RESULT:      -5.2     15.890     18.335
REMARK  10 active torsions:
REMARK  status: ('A' for Active; 'I' for Inactive)
REMARK    1  A    between atoms: C_1  and  C_5 
REMARK    2  A    between atoms: C_1  and  C_11 
REMARK       I    between atoms: C_3  and  N_12 
REMARK    3  A    between atoms: C_3  and  C_4 
REMARK    4  A    between atoms: C_4  and  C_7 
REMARK    5  A    between atoms: C_4  and  N_24 
REMARK    6  A    between atoms: C_7  and  C_10 
REMARK    7  A    between atoms: C_8  and  C_10 
REMARK    8  A    between atoms: C_8  and  N_17 
REMARK    9  A    between atoms: C_11  and  C_13 
REMARK   10  A    between atoms: C_11  and  N_12 
ROOT
HETATM    1  C           1     -21.424  -9.579  -3.314  0.00  0.00     0.249 C 
HETATM    2  N           1     -21.242  -8.976  -2.098  0.00  0.00    -0.345 N 
HETATM    3  O           1     -22.395 -10.271  -3.505  0.00  0.00    -0.271 OA
HETATM    4  H           1     -20.428  -8.397  -1.938  0.00  0.00     0.163 HD
ENDROOT
BRANCH   1   5
HETATM    5  C           1     -20.411  -9.379  -4.414  0.00  0.00     0.274 C 
BRANCH   5   6
HETATM    6  C           1     -20.239  -7.890  -4.681  0.00  0.00     0.044 C 
BRANCH   6   7
HETATM    7  C           1     -21.273  -7.434  -5.703  0.00  0.00     0.030 C 
BRANCH   7   8
HETATM    8  C           1     -22.210  -6.420  -5.061  0.00  0.00     0.230 C 
BRANCH   8   9
HETATM    9  N           1     -21.659  -6.003  -3.729  0.00  0.00    -0.079 N 
HETATM   10  H           1     -21.002  -5.201  -3.859  0.00  0.00     0.274 HD
HETATM   11  H           1     -21.147  -6.806  -3.297  0.00  0.00     0.274 HD
HETATM   12  H           1     -22.443  -5.712  -3.103  0.00  0.00     0.274 HD
ENDBRANCH   8   9
ENDBRANCH   7   8
ENDBRANCH   6   7
ENDBRANCH   5   6
BRANCH   5  13
HETATM   13  N           1     -20.889 -10.058  -5.664  0.00  0.00    -0.067 N 
HETATM   14  H           1     -20.397 -10.974  -5.772  0.00  0.00     0.275 HD
HETATM   15  H           1     -21.919 -10.222  -5.598  0.00  0.00     0.275 HD
HETATM   16  H           1     -20.683  -9.452  -6.490  0.00  0.00     0.275 HD
ENDBRANCH   5  13
ENDBRANCH   1   5
BRANCH   2  17
HETATM   17  C           1     -22.215  -9.169  -1.040  0.00  0.00     0.185 C 
BRANCH  17  18
HETATM   18  C           1     -21.719 -10.248  -0.087  0.00  0.00     0.040 C 
BRANCH  18  19
HETATM   19  C           1     -22.571 -11.502  -0.252  0.00  0.00    -0.020 C 
HETATM   20  C           1     -22.229 -12.494   0.852  0.00  0.00     0.009 C 
HETATM   21  C           1     -24.044 -11.129  -0.162  0.00  0.00     0.009 C 
ENDBRANCH  18  19
ENDBRANCH  17  18
BRANCH  17  22
HETATM   22  C           1     -22.398  -7.875  -0.285  0.00  0.00     0.196 C 
HETATM   23  O           1     -22.665  -6.823  -0.905  0.00  0.00    -0.646 OA
HETATM   24  O           1     -22.284  -7.857   0.959  0.00  0.00    -0.646 OA
ENDBRANCH  17  22
ENDBRANCH   2  17
TORSDOF 10
ENDMDL
