MODEL 1
REMARK VINA RESULT:      -7.3      0.000      0.000
REMARK  9 active torsions:
REMARK  status: ('A' for Active; 'I' for Inactive)
REMARK    1  A    between atoms: C_1  and  C_25 
REMARK    2  A    between atoms: C_1  and  C_2 
REMARK    3  A    between atoms: C_1  and  N_6 
REMARK    4  A    between atoms: C_2  and  C_3 
REMARK    5  A    between atoms: C_3  and  Se_4 
REMARK    6  A    between atoms: C_11  and  C_13 
REMARK    7  A    between atoms: C_13  and  C_14 
REMARK    8  A    between atoms: C_13  and  N_24 
REMARK    9  A    between atoms: C_14  and  C_15 
REMARK       I    between atoms: N_24  and  C_25 
ROOT
HETATM    1  C           1     -21.940  -6.706  -5.429  0.00  0.00     0.190 C 
ENDROOT
BRANCH   1   2
HETATM    2  C           1     -20.995  -7.865  -5.230  0.00  0.00     0.197 C 
HETATM    3  O           1     -21.441  -9.031  -5.161  0.00  0.00    -0.646 OA
HETATM    4  O           1     -19.765  -7.660  -5.135  0.00  0.00    -0.646 OA
ENDBRANCH   1   2
BRANCH   1   5
HETATM    5  C           1     -21.176  -5.520  -6.004  0.00  0.00     0.077 C 
BRANCH   5   6
HETATM    6  C           1     -21.967  -4.912  -7.120  0.00  0.00    -0.028 A 
HETATM    7  C           1     -23.286  -4.521  -7.063  0.00  0.00     0.096 A 
HETATM    8  N           1     -23.627  -4.016  -8.289  0.00  0.00    -0.365 N 
HETATM    9  H           1     -24.574  -3.640  -8.541  0.00  0.00     0.165 HD
HETATM   10  C           1     -22.549  -4.073  -9.144  0.00  0.00     0.042 A 
HETATM   11  C           1     -22.433  -3.674 -10.480  0.00  0.00     0.030 A 
HETATM   12  C           1     -21.489  -4.634  -8.431  0.00  0.00    -0.002 A 
HETATM   13  C           1     -21.195  -3.855 -11.104  0.00  0.00     0.002 A 
HETATM   14  C           1     -20.118  -4.412 -10.417  0.00  0.00     0.001 A 
HETATM   15  C           1     -20.251  -4.806  -9.080  0.00  0.00     0.014 A 
ENDBRANCH   5   6
ENDBRANCH   1   5
BRANCH   1  16
HETATM   16  N           1     -22.521  -6.333  -4.154  0.00  0.00    -0.344 N 
HETATM   17  H           1     -23.498  -6.073  -4.099  0.00  0.00     0.163 HD
HETATM   18  C           1     -21.749  -6.334  -3.023  0.00  0.00     0.249 C 
HETATM   19  O           1     -21.151  -5.335  -2.699  0.00  0.00    -0.271 OA
BRANCH  18  20
HETATM   20  C           1     -21.645  -7.583  -2.182  0.00  0.00     0.274 C 
BRANCH  20  21
HETATM   21  C           1     -22.307  -7.342  -0.832  0.00  0.00     0.042 C 
BRANCH  21  22
HETATM   22  C           1     -21.969  -8.489   0.112  0.00  0.00     0.003 C 
BRANCH  22  23
HETATM   23 Se           1     -23.053 -10.044  -0.338  0.00  0.00     0.000 Se
HETATM   24  C           1     -21.537 -11.163  -0.835  0.00  0.00     0.000 C 
ENDBRANCH  22  23
ENDBRANCH  21  22
ENDBRANCH  20  21
BRANCH  20  25
HETATM   25  N           1     -20.199  -7.926  -1.976  0.00  0.00    -0.067 N 
HETATM   26  H           1     -20.001  -8.003  -0.952  0.00  0.00     0.275 HD
HETATM   27  H           1     -19.988  -8.838  -2.440  0.00  0.00     0.275 HD
HETATM   28  H           1     -19.601  -7.176  -2.390  0.00  0.00     0.275 HD
ENDBRANCH  20  25
ENDBRANCH  18  20
ENDBRANCH   1  16
TORSDOF 9
ENDMDL
MODEL 2
REMARK VINA RESULT:      -7.1      3.042      7.878
REMARK  9 active torsions:
REMARK  status: ('A' for Active; 'I' for Inactive)
REMARK    1  A    between atoms: C_1  and  C_25 
REMARK    2  A    between atoms: C_1  and  C_2 
REMARK    3  A    between atoms: C_1  and  N_6 
REMARK    4  A    between atoms: C_2  and  C_3 
REMARK    5  A    between atoms: C_3  and  Se_4 
REMARK    6  A    between atoms: C_11  and  C_13 
REMARK    7  A    between atoms: C_13  and  C_14 
REMARK    8  A    between atoms: C_13  and  N_24 
REMARK    9  A    between atoms: C_14  and  C_15 
REMARK       I    between atoms: N_24  and  C_25 
ROOT
HETATM    1  C           1     -21.308  -7.407  -5.613  0.00  0.00     0.190 C 
ENDROOT
BRANCH   1   2
HETATM    2  C           1     -21.997  -6.248  -4.936  0.00  0.00     0.197 C 
HETATM    3  O           1     -23.173  -5.955  -5.241  0.00  0.00    -0.646 OA
HETATM    4  O           1     -21.391  -5.580  -4.069  0.00  0.00    -0.646 OA
ENDBRANCH   1   2
BRANCH   1   5
HETATM    5  C           1     -20.356  -8.077  -4.630  0.00  0.00     0.077 C 
BRANCH   5   6
HETATM    6  C           1     -21.123  -9.024  -3.760  0.00  0.00    -0.028 A 
HETATM    7  C           1     -21.591 -10.265  -4.126  0.00  0.00     0.096 A 
HETATM    8  N           1     -22.237 -10.805  -3.045  0.00  0.00    -0.365 N 
HETATM    9  H           1     -22.698 -11.748  -3.030  0.00  0.00     0.165 HD
HETATM   10  C           1     -22.197  -9.931  -1.982  0.00  0.00     0.042 A 
HETATM   11  C           1     -22.718 -10.056  -0.689  0.00  0.00     0.030 A 
HETATM   12  C           1     -21.500  -8.800  -2.406  0.00  0.00    -0.002 A 
HETATM   13  C           1     -22.520  -8.990   0.194  0.00  0.00     0.002 A 
HETATM   14  C           1     -21.827  -7.847  -0.202  0.00  0.00     0.001 A 
HETATM   15  C           1     -21.312  -7.739  -1.500  0.00  0.00     0.014 A 
ENDBRANCH   5   6
ENDBRANCH   1   5
BRANCH   1  16
HETATM   16  N           1     -20.558  -6.922  -6.756  0.00  0.00    -0.344 N 
HETATM   17  H           1     -20.062  -7.574  -7.350  0.00  0.00     0.163 HD
HETATM   18  C           1     -20.522  -5.582  -7.032  0.00  0.00     0.249 C 
HETATM   19  O           1     -19.656  -4.889  -6.553  0.00  0.00    -0.271 OA
BRANCH  18  20
HETATM   20  C           1     -21.565  -4.969  -7.935  0.00  0.00     0.274 C 
BRANCH  20  21
HETATM   21  C           1     -20.939  -4.635  -9.281  0.00  0.00     0.042 C 
BRANCH  21  22
HETATM   22  C           1     -21.888  -3.751 -10.080  0.00  0.00     0.003 C 
BRANCH  22  23
HETATM   23 Se           1     -23.494  -4.761 -10.528  0.00  0.00     0.000 Se
HETATM   24  C           1     -24.728  -3.420  -9.836  0.00  0.00     0.000 C 
ENDBRANCH  22  23
ENDBRANCH  21  22
ENDBRANCH  20  21
BRANCH  20  25
HETATM   25  N           1     -22.095  -3.715  -7.305  0.00  0.00    -0.067 N 
HETATM   26  H           1     -21.374  -2.960  -7.372  0.00  0.00     0.275 HD
HETATM   27  H           1     -22.962  -3.413  -7.804  0.00  0.00     0.275 HD
HETATM   28  H           1     -22.316  -3.896  -6.300  0.00  0.00     0.275 HD
ENDBRANCH  20  25
ENDBRANCH  18  20
ENDBRANCH   1  16
TORSDOF 9
ENDMDL
MODEL 3
REMARK VINA RESULT:      -7.1      3.076      7.554
REMARK  9 active torsions:
REMARK  status: ('A' for Active; 'I' for Inactive)
REMARK    1  A    between atoms: C_1  and  C_25 
REMARK    2  A    between atoms: C_1  and  C_2 
REMARK    3  A    between atoms: C_1  and  N_6 
REMARK    4  A    between atoms: C_2  and  C_3 
REMARK    5  A    between atoms: C_3  and  Se_4 
REMARK    6  A    between atoms: C_11  and  C_13 
REMARK    7  A    between atoms: C_13  and  C_14 
REMARK    8  A    between atoms: C_13  and  N_24 
REMARK    9  A    between atoms: C_14  and  C_15 
REMARK       I    between atoms: N_24  and  C_25 
ROOT
HETATM    1  C           1     -19.957  -7.522  -5.276  0.00  0.00     0.190 C 
ENDROOT
BRANCH   1   2
HETATM    2  C           1     -18.986  -8.677  -5.249  0.00  0.00     0.197 C 
HETATM    3  O           1     -18.725  -9.249  -4.168  0.00  0.00    -0.646 OA
HETATM    4  O           1     -18.443  -9.063  -6.307  0.00  0.00    -0.646 OA
ENDBRANCH   1   2
BRANCH   1   5
HETATM    5  C           1     -21.335  -8.007  -4.843  0.00  0.00     0.077 C 
BRANCH   5   6
HETATM    6  C           1     -21.685  -7.399  -3.521  0.00  0.00    -0.028 A 
HETATM    7  C           1     -22.027  -6.085  -3.296  0.00  0.00     0.096 A 
HETATM    8  N           1     -22.271  -5.939  -1.956  0.00  0.00    -0.365 N 
HETATM    9  H           1     -22.553  -5.041  -1.492  0.00  0.00     0.165 HD
HETATM   10  C           1     -22.093  -7.139  -1.306  0.00  0.00     0.042 A 
HETATM   11  C           1     -22.230  -7.463   0.048  0.00  0.00     0.030 A 
HETATM   12  C           1     -21.723  -8.077  -2.271  0.00  0.00    -0.002 A 
HETATM   13  C           1     -21.981  -8.786   0.426  0.00  0.00     0.002 A 
HETATM   14  C           1     -21.610  -9.745  -0.516  0.00  0.00     0.001 A 
HETATM   15  C           1     -21.477  -9.403  -1.867  0.00  0.00     0.014 A 
ENDBRANCH   5   6
ENDBRANCH   1   5
BRANCH   1  16
HETATM   16  N           1     -20.034  -6.989  -6.622  0.00  0.00    -0.344 N 
HETATM   17  H           1     -20.055  -7.617  -7.416  0.00  0.00     0.163 HD
HETATM   18  C           1     -20.079  -5.635  -6.820  0.00  0.00     0.249 C 
HETATM   19  O           1     -19.054  -5.010  -6.957  0.00  0.00    -0.271 OA
BRANCH  18  20
HETATM   20  C           1     -21.409  -4.923  -6.868  0.00  0.00     0.274 C 
BRANCH  20  21
HETATM   21  C           1     -22.141  -5.300  -8.149  0.00  0.00     0.042 C 
BRANCH  21  22
HETATM   22  C           1     -22.384  -4.050  -8.984  0.00  0.00     0.003 C 
BRANCH  22  23
HETATM   23 Se           1     -23.306  -4.535 -10.630  0.00  0.00     0.000 Se
HETATM   24  C           1     -21.761  -4.228 -11.779  0.00  0.00     0.000 C 
ENDBRANCH  22  23
ENDBRANCH  21  22
ENDBRANCH  20  21
BRANCH  20  25
HETATM   25  N           1     -21.182  -3.441  -6.840  0.00  0.00    -0.067 N 
HETATM   26  H           1     -22.103  -2.946  -6.863  0.00  0.00     0.275 HD
HETATM   27  H           1     -20.670  -3.183  -5.966  0.00  0.00     0.275 HD
HETATM   28  H           1     -20.615  -3.159  -7.672  0.00  0.00     0.275 HD
ENDBRANCH  20  25
ENDBRANCH  18  20
ENDBRANCH   1  16
TORSDOF 9
ENDMDL
MODEL 4
REMARK VINA RESULT:      -7.0      3.023      7.482
REMARK  9 active torsions:
REMARK  status: ('A' for Active; 'I' for Inactive)
REMARK    1  A    between atoms: C_1  and  C_25 
REMARK    2  A    between atoms: C_1  and  C_2 
REMARK    3  A    between atoms: C_1  and  N_6 
REMARK    4  A    between atoms: C_2  and  C_3 
REMARK    5  A    between atoms: C_3  and  Se_4 
REMARK    6  A    between atoms: C_11  and  C_13 
REMARK    7  A    between atoms: C_13  and  C_14 
REMARK    8  A    between atoms: C_13  and  N_24 
REMARK    9  A    between atoms: C_14  and  C_15 
REMARK       I    between atoms: N_24  and  C_25 
ROOT
HETATM    1  C           1     -19.894  -7.888  -5.206  0.00  0.00     0.190 C 
ENDROOT
BRANCH   1   2
HETATM    2  C           1     -18.764  -8.887  -5.198  0.00  0.00     0.197 C 
HETATM    3  O           1     -18.199  -9.184  -4.124  0.00  0.00    -0.646 OA
HETATM    4  O           1     -18.393  -9.420  -6.267  0.00  0.00    -0.646 OA
ENDBRANCH   1   2
BRANCH   1   5
HETATM    5  C           1     -21.227  -8.628  -5.217  0.00  0.00     0.077 C 
BRANCH   5   6
HETATM    6  C           1     -21.508  -9.170  -3.851  0.00  0.00    -0.028 A 
HETATM    7  C           1     -21.554 -10.500  -3.499  0.00  0.00     0.096 A 
HETATM    8  N           1     -21.840 -10.569  -2.161  0.00  0.00    -0.365 N 
HETATM    9  H           1     -21.938 -11.459  -1.614  0.00  0.00     0.165 HD
HETATM   10  C           1     -21.980  -9.303  -1.638  0.00  0.00     0.042 A 
HETATM   11  C           1     -22.270  -8.891  -0.332  0.00  0.00     0.030 A 
HETATM   12  C           1     -21.776  -8.403  -2.683  0.00  0.00    -0.002 A 
HETATM   13  C           1     -22.352  -7.517  -0.091  0.00  0.00     0.002 A 
HETATM   14  C           1     -22.151  -6.593  -1.115  0.00  0.00     0.001 A 
HETATM   15  C           1     -21.863  -7.023  -2.417  0.00  0.00     0.014 A 
ENDBRANCH   5   6
ENDBRANCH   1   5
BRANCH   1  16
HETATM   16  N           1     -19.794  -7.055  -6.388  0.00  0.00    -0.344 N 
HETATM   17  H           1     -19.367  -7.420  -7.230  0.00  0.00     0.163 HD
HETATM   18  C           1     -20.279  -5.775  -6.367  0.00  0.00     0.249 C 
HETATM   19  O           1     -19.560  -4.863  -6.033  0.00  0.00    -0.271 OA
BRANCH  18  20
HETATM   20  C           1     -21.711  -5.503  -6.759  0.00  0.00     0.274 C 
BRANCH  20  21
HETATM   21  C           1     -21.816  -4.109  -7.362  0.00  0.00     0.042 C 
BRANCH  21  22
HETATM   22  C           1     -22.187  -4.218  -8.835  0.00  0.00     0.003 C 
BRANCH  22  23
HETATM   23 Se           1     -20.563  -4.297  -9.910  0.00  0.00     0.000 Se
HETATM   24  C           1     -21.483  -4.062 -11.612  0.00  0.00     0.000 C 
ENDBRANCH  22  23
ENDBRANCH  21  22
ENDBRANCH  20  21
BRANCH  20  25
HETATM   25  N           1     -22.586  -5.590  -5.544  0.00  0.00    -0.067 N 
HETATM   26  H           1     -23.476  -6.081  -5.790  0.00  0.00     0.275 HD
HETATM   27  H           1     -22.090  -6.125  -4.795  0.00  0.00     0.275 HD
HETATM   28  H           1     -22.802  -4.628  -5.201  0.00  0.00     0.275 HD
ENDBRANCH  20  25
ENDBRANCH  18  20
ENDBRANCH   1  16
TORSDOF 9
ENDMDL
MODEL 5
REMARK VINA RESULT:      -6.9      3.651      6.804
REMARK  9 active torsions:
REMARK  status: ('A' for Active; 'I' for Inactive)
REMARK    1  A    between atoms: C_1  and  C_25 
REMARK    2  A    between atoms: C_1  and  C_2 
REMARK    3  A    between atoms: C_1  and  N_6 
REMARK    4  A    between atoms: C_2  and  C_3 
REMARK    5  A    between atoms: C_3  and  Se_4 
REMARK    6  A    between atoms: C_11  and  C_13 
REMARK    7  A    between atoms: C_13  and  C_14 
REMARK    8  A    between atoms: C_13  and  N_24 
REMARK    9  A    between atoms: C_14  and  C_15 
REMARK       I    between atoms: N_24  and  C_25 
ROOT
HETATM    1  C           1     -21.259  -8.673  -1.877  0.00  0.00     0.190 C 
ENDROOT
BRANCH   1   2
HETATM    2  C           1     -21.811  -8.655  -0.473  0.00  0.00     0.197 C 
HETATM    3  O           1     -21.077  -8.327   0.484  0.00  0.00    -0.646 OA
HETATM    4  O           1     -23.005  -8.968  -0.266  0.00  0.00    -0.646 OA
ENDBRANCH   1   2
BRANCH   1   5
HETATM    5  C           1     -20.046  -9.594  -1.934  0.00  0.00     0.077 C 
BRANCH   5   6
HETATM    6  C           1     -19.595  -9.736  -3.354  0.00  0.00    -0.028 A 
HETATM    7  C           1     -20.408  -9.895  -4.453  0.00  0.00     0.096 A 
HETATM    8  N           1     -19.605  -9.987  -5.559  0.00  0.00    -0.365 N 
HETATM    9  H           1     -19.949 -10.113  -6.542  0.00  0.00     0.165 HD
HETATM   10  C           1     -18.281  -9.890  -5.195  0.00  0.00     0.042 A 
HETATM   11  C           1     -17.122  -9.930  -5.978  0.00  0.00     0.030 A 
HETATM   12  C           1     -18.247  -9.731  -3.809  0.00  0.00    -0.002 A 
HETATM   13  C           1     -15.893  -9.804  -5.324  0.00  0.00     0.002 A 
HETATM   14  C           1     -15.828  -9.643  -3.941  0.00  0.00     0.001 A 
HETATM   15  C           1     -16.998  -9.606  -3.171  0.00  0.00     0.014 A 
ENDBRANCH   5   6
ENDBRANCH   1   5
BRANCH   1  16
HETATM   16  N           1     -20.865  -7.331  -2.257  0.00  0.00    -0.344 N 
HETATM   17  H           1     -19.953  -6.978  -1.995  0.00  0.00     0.163 HD
HETATM   18  C           1     -21.725  -6.541  -2.971  0.00  0.00     0.249 C 
HETATM   19  O           1     -22.505  -5.822  -2.394  0.00  0.00    -0.271 OA
BRANCH  18  20
HETATM   20  C           1     -21.698  -6.569  -4.481  0.00  0.00     0.274 C 
BRANCH  20  21
HETATM   21  C           1     -20.663  -5.575  -4.989  0.00  0.00     0.042 C 
BRANCH  21  22
HETATM   22  C           1     -20.632  -5.606  -6.511  0.00  0.00     0.003 C 
BRANCH  22  23
HETATM   23 Se           1     -21.111  -3.851  -7.209  0.00  0.00     0.000 Se
HETATM   24  C           1     -22.163  -4.546  -8.695  0.00  0.00     0.000 C 
ENDBRANCH  22  23
ENDBRANCH  21  22
ENDBRANCH  20  21
BRANCH  20  25
HETATM   25  N           1     -23.052  -6.197  -5.009  0.00  0.00    -0.067 N 
HETATM   26  H           1     -23.010  -6.122  -6.052  0.00  0.00     0.275 HD
HETATM   27  H           1     -23.745  -6.932  -4.741  0.00  0.00     0.275 HD
HETATM   28  H           1     -23.343  -5.278  -4.605  0.00  0.00     0.275 HD
ENDBRANCH  20  25
ENDBRANCH  18  20
ENDBRANCH   1  16
TORSDOF 9
ENDMDL
MODEL 6
REMARK VINA RESULT:      -6.7      5.214      7.771
REMARK  9 active torsions:
REMARK  status: ('A' for Active; 'I' for Inactive)
REMARK    1  A    between atoms: C_1  and  C_25 
REMARK    2  A    between atoms: C_1  and  C_2 
REMARK    3  A    between atoms: C_1  and  N_6 
REMARK    4  A    between atoms: C_2  and  C_3 
REMARK    5  A    between atoms: C_3  and  Se_4 
REMARK    6  A    between atoms: C_11  and  C_13 
REMARK    7  A    between atoms: C_13  and  C_14 
REMARK    8  A    between atoms: C_13  and  N_24 
REMARK    9  A    between atoms: C_14  and  C_15 
REMARK       I    between atoms: N_24  and  C_25 
ROOT
HETATM    1  C           1     -19.401 -10.106  -4.868  0.00  0.00     0.190 C 
ENDROOT
BRANCH   1   2
HETATM    2  C           1     -20.829  -9.964  -5.333  0.00  0.00     0.197 C 
HETATM    3  O           1     -21.203  -8.910  -5.892  0.00  0.00    -0.646 OA
HETATM    4  O           1     -21.640 -10.900  -5.159  0.00  0.00    -0.646 OA
ENDBRANCH   1   2
BRANCH   1   5
HETATM    5  C           1     -19.072  -8.986  -3.889  0.00  0.00     0.077 C 
BRANCH   5   6
HETATM    6  C           1     -19.764  -9.243  -2.586  0.00  0.00    -0.028 A 
HETATM    7  C           1     -19.593 -10.345  -1.779  0.00  0.00     0.096 A 
HETATM    8  N           1     -20.406 -10.194  -0.687  0.00  0.00    -0.365 N 
HETATM    9  H           1     -20.486 -10.882   0.101  0.00  0.00     0.165 HD
HETATM   10  C           1     -21.103  -9.010  -0.772  0.00  0.00     0.042 A 
HETATM   11  C           1     -22.037  -8.445   0.103  0.00  0.00     0.030 A 
HETATM   12  C           1     -20.716  -8.391  -1.961  0.00  0.00    -0.002 A 
HETATM   13  C           1     -22.591  -7.211  -0.249  0.00  0.00     0.002 A 
HETATM   14  C           1     -22.223  -6.568  -1.430  0.00  0.00     0.001 A 
HETATM   15  C           1     -21.287  -7.147  -2.295  0.00  0.00     0.014 A 
ENDBRANCH   5   6
ENDBRANCH   1   5
BRANCH   1  16
HETATM   16  N           1     -18.511 -10.025  -6.010  0.00  0.00    -0.344 N 
HETATM   17  H           1     -18.153  -9.128  -6.311  0.00  0.00     0.163 HD
HETATM   18  C           1     -18.155 -11.163  -6.682  0.00  0.00     0.249 C 
HETATM   19  O           1     -18.823 -11.550  -7.612  0.00  0.00    -0.271 OA
BRANCH  18  20
HETATM   20  C           1     -16.929 -11.937  -6.261  0.00  0.00     0.274 C 
BRANCH  20  21
HETATM   21  C           1     -15.755 -10.980  -6.101  0.00  0.00     0.042 C 
BRANCH  21  22
HETATM   22  C           1     -14.874 -11.444  -4.949  0.00  0.00     0.003 C 
BRANCH  22  23
HETATM   23 Se           1     -15.991 -11.918  -3.424  0.00  0.00     0.000 Se
HETATM   24  C           1     -15.884 -10.159  -2.591  0.00  0.00     0.000 C 
ENDBRANCH  22  23
ENDBRANCH  21  22
ENDBRANCH  20  21
BRANCH  20  25
HETATM   25  N           1     -16.601 -12.960  -7.307  0.00  0.00    -0.067 N 
HETATM   26  H           1     -17.481 -13.425  -7.627  0.00  0.00     0.275 HD
HETATM   27  H           1     -16.140 -12.492  -8.120  0.00  0.00     0.275 HD
HETATM   28  H           1     -15.956 -13.676  -6.904  0.00  0.00     0.275 HD
ENDBRANCH  20  25
ENDBRANCH  18  20
ENDBRANCH   1  16
TORSDOF 9
ENDMDL
MODEL 7
REMARK VINA RESULT:      -6.6      4.460      7.618
REMARK  9 active torsions:
REMARK  status: ('A' for Active; 'I' for Inactive)
REMARK    1  A    between atoms: C_1  and  C_25 
REMARK    2  A    between atoms: C_1  and  C_2 
REMARK    3  A    between atoms: C_1  and  N_6 
REMARK    4  A    between atoms: C_2  and  C_3 
REMARK    5  A    between atoms: C_3  and  Se_4 
REMARK    6  A    between atoms: C_11  and  C_13 
REMARK    7  A    between atoms: C_13  and  C_14 
REMARK    8  A    between atoms: C_13  and  N_24 
REMARK    9  A    between atoms: C_14  and  C_15 
REMARK       I    between atoms: N_24  and  C_25 
ROOT
HETATM    1  C           1     -21.236  -7.712  -3.015  0.00  0.00     0.190 C 
ENDROOT
BRANCH   1   2
HETATM    2  C           1     -21.888  -6.368  -3.226  0.00  0.00     0.197 C 
HETATM    3  O           1     -21.979  -5.561  -2.275  0.00  0.00    -0.646 OA
HETATM    4  O           1     -22.337  -6.059  -4.352  0.00  0.00    -0.646 OA
ENDBRANCH   1   2
BRANCH   1   5
HETATM    5  C           1     -20.864  -7.871  -1.547  0.00  0.00     0.077 C 
BRANCH   5   6
HETATM    6  C           1     -21.999  -8.511  -0.811  0.00  0.00    -0.028 A 
HETATM    7  C           1     -22.770  -7.921   0.165  0.00  0.00     0.096 A 
HETATM    8  N           1     -23.696  -8.841   0.580  0.00  0.00    -0.365 N 
HETATM    9  H           1     -24.421  -8.671   1.320  0.00  0.00     0.165 HD
HETATM   10  C           1     -23.539 -10.021  -0.112  0.00  0.00     0.042 A 
HETATM   11  C           1     -24.251 -11.223  -0.024  0.00  0.00     0.030 A 
HETATM   12  C           1     -22.475  -9.839  -0.995  0.00  0.00    -0.002 A 
HETATM   13  C           1     -23.861 -12.269  -0.865  0.00  0.00     0.002 A 
HETATM   14  C           1     -22.802 -12.116  -1.759  0.00  0.00     0.001 A 
HETATM   15  C           1     -22.101 -10.907  -1.834  0.00  0.00     0.014 A 
ENDBRANCH   5   6
ENDBRANCH   1   5
BRANCH   1  16
HETATM   16  N           1     -20.039  -7.800  -3.829  0.00  0.00    -0.344 N 
HETATM   17  H           1     -19.209  -7.284  -3.567  0.00  0.00     0.163 HD
HETATM   18  C           1     -20.032  -8.583  -4.952  0.00  0.00     0.249 C 
HETATM   19  O           1     -20.355  -8.113  -6.018  0.00  0.00    -0.271 OA
BRANCH  18  20
HETATM   20  C           1     -19.619 -10.032  -4.860  0.00  0.00     0.274 C 
BRANCH  20  21
HETATM   21  C           1     -18.603 -10.201  -3.739  0.00  0.00     0.042 C 
BRANCH  21  22
HETATM   22  C           1     -17.847 -11.509  -3.930  0.00  0.00     0.003 C 
BRANCH  22  23
HETATM   23 Se           1     -15.933 -11.151  -3.991  0.00  0.00     0.000 Se
HETATM   24  C           1     -16.025  -9.576  -2.846  0.00  0.00     0.000 C 
ENDBRANCH  22  23
ENDBRANCH  21  22
ENDBRANCH  20  21
BRANCH  20  25
HETATM   25  N           1     -19.005 -10.459  -6.160  0.00  0.00    -0.067 N 
HETATM   26  H           1     -19.711 -10.366  -6.927  0.00  0.00     0.275 HD
HETATM   27  H           1     -18.180  -9.852  -6.372  0.00  0.00     0.275 HD
HETATM   28  H           1     -18.697 -11.454  -6.090  0.00  0.00     0.275 HD
ENDBRANCH  20  25
ENDBRANCH  18  20
ENDBRANCH   1  16
TORSDOF 9
ENDMDL
MODEL 8
REMARK VINA RESULT:      -6.6      4.666      8.268
REMARK  9 active torsions:
REMARK  status: ('A' for Active; 'I' for Inactive)
REMARK    1  A    between atoms: C_1  and  C_25 
REMARK    2  A    between atoms: C_1  and  C_2 
REMARK    3  A    between atoms: C_1  and  N_6 
REMARK    4  A    between atoms: C_2  and  C_3 
REMARK    5  A    between atoms: C_3  and  Se_4 
REMARK    6  A    between atoms: C_11  and  C_13 
REMARK    7  A    between atoms: C_13  and  C_14 
REMARK    8  A    between atoms: C_13  and  N_24 
REMARK    9  A    between atoms: C_14  and  C_15 
REMARK       I    between atoms: N_24  and  C_25 
ROOT
HETATM    1  C           1     -21.228  -7.980  -2.846  0.00  0.00     0.190 C 
ENDROOT
BRANCH   1   2
HETATM    2  C           1     -21.964  -6.673  -2.680  0.00  0.00     0.197 C 
HETATM    3  O           1     -22.249  -5.984  -3.683  0.00  0.00    -0.646 OA
HETATM    4  O           1     -22.289  -6.279  -1.538  0.00  0.00    -0.646 OA
ENDBRANCH   1   2
BRANCH   1   5
HETATM    5  C           1     -20.417  -8.270  -1.589  0.00  0.00     0.077 C 
BRANCH   5   6
HETATM    6  C           1     -20.574  -9.710  -1.215  0.00  0.00    -0.028 A 
HETATM    7  C           1     -19.599 -10.679  -1.288  0.00  0.00     0.096 A 
HETATM    8  N           1     -20.147 -11.858  -0.855  0.00  0.00    -0.365 N 
HETATM    9  H           1     -19.636 -12.773  -0.802  0.00  0.00     0.165 HD
HETATM   10  C           1     -21.464 -11.669  -0.502  0.00  0.00     0.042 A 
HETATM   11  C           1     -22.408 -12.579  -0.012  0.00  0.00     0.030 A 
HETATM   12  C           1     -21.758 -10.323  -0.720  0.00  0.00    -0.002 A 
HETATM   13  C           1     -23.690 -12.095   0.263  0.00  0.00     0.002 A 
HETATM   14  C           1     -24.013 -10.755   0.057  0.00  0.00     0.001 A 
HETATM   15  C           1     -23.057  -9.858  -0.434  0.00  0.00     0.014 A 
ENDBRANCH   5   6
ENDBRANCH   1   5
BRANCH   1  16
HETATM   16  N           1     -20.336  -7.890  -3.986  0.00  0.00    -0.344 N 
HETATM   17  H           1     -19.648  -7.149  -4.033  0.00  0.00     0.163 HD
HETATM   18  C           1     -20.424  -8.808  -4.997  0.00  0.00     0.249 C 
HETATM   19  O           1     -21.155  -8.603  -5.937  0.00  0.00    -0.271 OA
BRANCH  18  20
HETATM   20  C           1     -19.607 -10.076  -4.939  0.00  0.00     0.274 C 
BRANCH  20  21
HETATM   21  C           1     -18.150  -9.730  -4.666  0.00  0.00     0.042 C 
BRANCH  21  22
HETATM   22  C           1     -17.353  -9.828  -5.960  0.00  0.00     0.003 C 
BRANCH  22  23
HETATM   23 Se           1     -15.751 -10.897  -5.658  0.00  0.00     0.000 Se
HETATM   24  C           1     -16.321 -12.371  -6.799  0.00  0.00     0.000 C 
ENDBRANCH  22  23
ENDBRANCH  21  22
ENDBRANCH  20  21
BRANCH  20  25
HETATM   25  N           1     -19.713 -10.798  -6.249  0.00  0.00    -0.067 N 
HETATM   26  H           1     -19.275 -10.220  -7.002  0.00  0.00     0.275 HD
HETATM   27  H           1     -19.217 -11.716  -6.182  0.00  0.00     0.275 HD
HETATM   28  H           1     -20.720 -10.961  -6.477  0.00  0.00     0.275 HD
ENDBRANCH  20  25
ENDBRANCH  18  20
ENDBRANCH   1  16
TORSDOF 9
ENDMDL
MODEL 9
REMARK VINA RESULT:      -6.5      3.179      4.330
REMARK  9 active torsions:
REMARK  status: ('A' for Active; 'I' for Inactive)
REMARK    1  A    between atoms: C_1  and  C_25 
REMARK    2  A    between atoms: C_1  and  C_2 
REMARK    3  A    between atoms: C_1  and  N_6 
REMARK    4  A    between atoms: C_2  and  C_3 
REMARK    5  A    between atoms: C_3  and  Se_4 
REMARK    6  A    between atoms: C_11  and  C_13 
REMARK    7  A    between atoms: C_13  and  C_14 
REMARK    8  A    between atoms: C_13  and  N_24 
REMARK    9  A    between atoms: C_14  and  C_15 
REMARK       I    between atoms: N_24  and  C_25 
ROOT
HETATM    1  C           1     -21.428  -7.273  -3.876  0.00  0.00     0.190 C 
ENDROOT
BRANCH   1   2
HETATM    2  C           1     -21.618  -6.807  -2.453  0.00  0.00     0.197 C 
HETATM    3  O           1     -20.979  -7.351  -1.526  0.00  0.00    -0.646 OA
HETATM    4  O           1     -22.414  -5.877  -2.201  0.00  0.00    -0.646 OA
ENDBRANCH   1   2
BRANCH   1   5
HETATM    5  C           1     -22.175  -6.340  -4.820  0.00  0.00     0.077 C 
BRANCH   5   6
HETATM    6  C           1     -21.318  -6.046  -6.012  0.00  0.00    -0.028 A 
HETATM    7  C           1     -20.035  -6.498  -6.221  0.00  0.00     0.096 A 
HETATM    8  N           1     -19.608  -6.005  -7.426  0.00  0.00    -0.365 N 
HETATM    9  H           1     -18.664  -6.186  -7.847  0.00  0.00     0.165 HD
HETATM   10  C           1     -20.595  -5.238  -8.003  0.00  0.00     0.042 A 
HETATM   11  C           1     -20.607  -4.544  -9.218  0.00  0.00     0.030 A 
HETATM   12  C           1     -21.684  -5.248  -7.131  0.00  0.00    -0.002 A 
HETATM   13  C           1     -21.768  -3.839  -9.549  0.00  0.00     0.002 A 
HETATM   14  C           1     -22.872  -3.831  -8.699  0.00  0.00     0.001 A 
HETATM   15  C           1     -22.843  -4.531  -7.486  0.00  0.00     0.014 A 
ENDBRANCH   5   6
ENDBRANCH   1   5
BRANCH   1  16
HETATM   16  N           1     -21.947  -8.619  -4.016  0.00  0.00    -0.344 N 
HETATM   17  H           1     -22.945  -8.784  -3.976  0.00  0.00     0.163 HD
HETATM   18  C           1     -21.089  -9.668  -4.204  0.00  0.00     0.249 C 
HETATM   19  O           1     -20.645 -10.265  -3.251  0.00  0.00    -0.271 OA
BRANCH  18  20
HETATM   20  C           1     -20.695 -10.081  -5.602  0.00  0.00     0.274 C 
BRANCH  20  21
HETATM   21  C           1     -21.113 -11.525  -5.842  0.00  0.00     0.042 C 
BRANCH  21  22
HETATM   22  C           1     -19.882 -12.365  -6.159  0.00  0.00     0.003 C 
BRANCH  22  23
HETATM   23 Se           1     -20.260 -13.527  -7.676  0.00  0.00     0.000 Se
HETATM   24  C           1     -21.710 -14.484  -6.792  0.00  0.00     0.000 C 
ENDBRANCH  22  23
ENDBRANCH  21  22
ENDBRANCH  20  21
BRANCH  20  25
HETATM   25  N           1     -19.209  -9.958  -5.758  0.00  0.00    -0.067 N 
HETATM   26  H           1     -18.854  -9.198  -5.133  0.00  0.00     0.275 HD
HETATM   27  H           1     -18.755 -10.863  -5.498  0.00  0.00     0.275 HD
HETATM   28  H           1     -18.981  -9.726  -6.751  0.00  0.00     0.275 HD
ENDBRANCH  20  25
ENDBRANCH  18  20
ENDBRANCH   1  16
TORSDOF 9
ENDMDL
