MODEL 1
REMARK VINA RESULT:      -8.3      0.000      0.000
REMARK  12 active torsions:
REMARK  status: ('A' for Active; 'I' for Inactive)
REMARK    1  A    between atoms: C_1  and  C_24 
REMARK    2  A    between atoms: C_1  and  C_2 
REMARK    3  A    between atoms: C_1  and  N_7 
REMARK    4  A    between atoms: C_2  and  C_3 
REMARK    5  A    between atoms: C_3  and  C_4 
REMARK       I    between atoms: C_4  and  N_5 
REMARK    6  A    between atoms: C_10  and  C_11 
REMARK    7  A    between atoms: C_11  and  C_12 
REMARK    8  A    between atoms: C_11  and  N_19 
REMARK    9  A    between atoms: C_12  and  C_18 
REMARK       I    between atoms: N_19  and  C_24 
REMARK   10  A    between atoms: C_22  and  O_23 
REMARK   11  A    between atoms: O_23  and  P_29 
REMARK   12  A    between atoms: P_29  and  O_33 
ROOT
HETATM    1  C           1     -32.479  -4.338 -16.233  0.00  0.00     0.189 C 
ENDROOT
BRANCH   1   2
HETATM    2  C           1     -32.562  -3.293 -17.320  0.00  0.00     0.197 C 
HETATM    3  O           1     -33.653  -2.736 -17.568  0.00  0.00    -0.646 OA
HETATM    4  O           1     -31.540  -2.986 -17.971  0.00  0.00    -0.646 OA
ENDBRANCH   1   2
BRANCH   1   5
HETATM    5  C           1     -31.960  -5.643 -16.821  0.00  0.00     0.074 C 
BRANCH   5   6
HETATM    6  C           1     -30.463  -5.632 -16.823  0.00  0.00    -0.056 A 
HETATM    7  C           1     -29.769  -5.185 -15.698  0.00  0.00     0.010 A 
HETATM    8  C           1     -28.374  -5.175 -15.699  0.00  0.00     0.038 A 
HETATM    9  C           1     -27.675  -5.610 -16.824  0.00  0.00     0.081 A 
HETATM   10  C           1     -28.368  -6.057 -17.948  0.00  0.00     0.038 A 
HETATM   11  C           1     -29.763  -6.067 -17.948  0.00  0.00     0.010 A 
BRANCH   9  12
HETATM   12  O           1     -26.319  -5.600 -16.825  0.00  0.00    -0.247 OA
BRANCH  12  13
HETATM   13  P           1     -25.551  -6.695 -15.919  0.00  0.00     0.411 P 
HETATM   14  O           1     -24.556  -7.411 -16.748  0.00  0.00    -0.624 OA
HETATM   15  O           1     -26.532  -7.663 -15.381  0.00  0.00    -0.624 OA
BRANCH  13  16
HETATM   16  O           1     -24.800  -5.952 -14.699  0.00  0.00    -0.300 OA
HETATM   17  H           1     -24.029  -5.572 -15.083  0.00  0.00     0.223 HD
ENDBRANCH  13  16
ENDBRANCH  12  13
ENDBRANCH   9  12
ENDBRANCH   5   6
ENDBRANCH   1   5
BRANCH   1  18
HETATM   18  N           1     -33.797  -4.553 -15.668  0.00  0.00    -0.344 N 
HETATM   19  H           1     -34.464  -5.141 -16.151  0.00  0.00     0.163 HD
HETATM   20  C           1     -34.139  -3.962 -14.482  0.00  0.00     0.249 C 
HETATM   21  O           1     -34.649  -2.867 -14.479  0.00  0.00    -0.271 OA
BRANCH  20  22
HETATM   22  C           1     -33.878  -4.678 -13.179  0.00  0.00     0.275 C 
BRANCH  22  23
HETATM   23  C           1     -34.734  -4.061 -12.081  0.00  0.00     0.052 C 
BRANCH  23  24
HETATM   24  C           1     -33.841  -3.619 -10.929  0.00  0.00     0.105 C 
BRANCH  24  25
HETATM   25  C           1     -33.963  -2.126 -10.742  0.00  0.00     0.215 C 
HETATM   26  N           1     -34.409  -1.341 -11.771  0.00  0.00    -0.370 N 
HETATM   27  H           1     -34.491  -0.340 -11.645  0.00  0.00     0.159 HD
HETATM   28  H           1     -34.656  -1.762 -12.658  0.00  0.00     0.159 HD
HETATM   29  O           1     -33.668  -1.624  -9.683  0.00  0.00    -0.274 OA
ENDBRANCH  24  25
ENDBRANCH  23  24
ENDBRANCH  22  23
BRANCH  22  30
HETATM   30  N           1     -32.429  -4.545 -12.818  0.00  0.00    -0.066 N 
HETATM   31  H           1     -32.051  -3.654 -13.212  0.00  0.00     0.275 HD
HETATM   32  H           1     -32.330  -4.534 -11.777  0.00  0.00     0.275 HD
HETATM   33  H           1     -31.897  -5.354 -13.211  0.00  0.00     0.275 HD
ENDBRANCH  22  30
ENDBRANCH  20  22
ENDBRANCH   1  18
TORSDOF 12
ENDMDL
MODEL 2
REMARK VINA RESULT:      -7.9      1.648      2.100
REMARK  12 active torsions:
REMARK  status: ('A' for Active; 'I' for Inactive)
REMARK    1  A    between atoms: C_1  and  C_24 
REMARK    2  A    between atoms: C_1  and  C_2 
REMARK    3  A    between atoms: C_1  and  N_7 
REMARK    4  A    between atoms: C_2  and  C_3 
REMARK    5  A    between atoms: C_3  and  C_4 
REMARK       I    between atoms: C_4  and  N_5 
REMARK    6  A    between atoms: C_10  and  C_11 
REMARK    7  A    between atoms: C_11  and  C_12 
REMARK    8  A    between atoms: C_11  and  N_19 
REMARK    9  A    between atoms: C_12  and  C_18 
REMARK       I    between atoms: N_19  and  C_24 
REMARK   10  A    between atoms: C_22  and  O_23 
REMARK   11  A    between atoms: O_23  and  P_29 
REMARK   12  A    between atoms: P_29  and  O_33 
ROOT
HETATM    1  C           1     -32.521  -4.326 -16.109  0.00  0.00     0.189 C 
ENDROOT
BRANCH   1   2
HETATM    2  C           1     -32.798  -3.320 -17.199  0.00  0.00     0.197 C 
HETATM    3  O           1     -31.884  -2.978 -17.980  0.00  0.00    -0.646 OA
HETATM    4  O           1     -33.942  -2.829 -17.321  0.00  0.00    -0.646 OA
ENDBRANCH   1   2
BRANCH   1   5
HETATM    5  C           1     -32.010  -5.620 -16.729  0.00  0.00     0.074 C 
BRANCH   5   6
HETATM    6  C           1     -30.514  -5.606 -16.754  0.00  0.00    -0.056 A 
HETATM    7  C           1     -29.801  -5.239 -15.612  0.00  0.00     0.010 A 
HETATM    8  C           1     -28.407  -5.227 -15.634  0.00  0.00     0.038 A 
HETATM    9  C           1     -27.725  -5.582 -16.798  0.00  0.00     0.081 A 
HETATM   10  C           1     -28.437  -5.949 -17.939  0.00  0.00     0.038 A 
HETATM   11  C           1     -29.831  -5.962 -17.917  0.00  0.00     0.010 A 
BRANCH   9  12
HETATM   12  O           1     -26.369  -5.570 -16.820  0.00  0.00    -0.247 OA
BRANCH  12  13
HETATM   13  P           1     -25.587  -6.671 -15.935  0.00  0.00     0.411 P 
HETATM   14  O           1     -24.625  -7.399 -16.792  0.00  0.00    -0.624 OA
HETATM   15  O           1     -26.562  -7.628 -15.366  0.00  0.00    -0.624 OA
BRANCH  13  16
HETATM   16  O           1     -24.792  -5.934 -14.738  0.00  0.00    -0.300 OA
HETATM   17  H           1     -23.962  -6.377 -14.689  0.00  0.00     0.223 HD
ENDBRANCH  13  16
ENDBRANCH  12  13
ENDBRANCH   9  12
ENDBRANCH   5   6
ENDBRANCH   1   5
BRANCH   1  18
HETATM   18  N           1     -33.743  -4.593 -15.376  0.00  0.00    -0.344 N 
HETATM   19  H           1     -34.402  -5.278 -15.723  0.00  0.00     0.163 HD
HETATM   20  C           1     -34.006  -3.918 -14.214  0.00  0.00     0.249 C 
HETATM   21  O           1     -34.612  -2.873 -14.248  0.00  0.00    -0.271 OA
BRANCH  20  22
HETATM   22  C           1     -33.539  -4.478 -12.893  0.00  0.00     0.275 C 
BRANCH  22  23
HETATM   23  C           1     -34.670  -5.265 -12.246  0.00  0.00     0.052 C 
BRANCH  23  24
HETATM   24  C           1     -34.391  -5.425 -10.757  0.00  0.00     0.105 C 
BRANCH  24  25
HETATM   25  C           1     -34.704  -6.839 -10.335  0.00  0.00     0.215 C 
HETATM   26  N           1     -35.005  -7.784 -11.279  0.00  0.00    -0.370 N 
HETATM   27  H           1     -35.215  -8.734 -10.995  0.00  0.00     0.159 HD
HETATM   28  H           1     -35.018  -7.535 -12.259  0.00  0.00     0.159 HD
HETATM   29  O           1     -34.689  -7.138  -9.165  0.00  0.00    -0.274 OA
ENDBRANCH  24  25
ENDBRANCH  23  24
ENDBRANCH  22  23
BRANCH  22  30
HETATM   30  N           1     -33.133  -3.352 -11.990  0.00  0.00    -0.066 N 
HETATM   31  H           1     -32.160  -3.516 -11.643  0.00  0.00     0.275 HD
HETATM   32  H           1     -33.166  -2.451 -12.519  0.00  0.00     0.275 HD
HETATM   33  H           1     -33.788  -3.304 -11.177  0.00  0.00     0.275 HD
ENDBRANCH  22  30
ENDBRANCH  20  22
ENDBRANCH   1  18
TORSDOF 12
ENDMDL
MODEL 3
REMARK VINA RESULT:      -7.3     12.372     14.698
REMARK  12 active torsions:
REMARK  status: ('A' for Active; 'I' for Inactive)
REMARK    1  A    between atoms: C_1  and  C_24 
REMARK    2  A    between atoms: C_1  and  C_2 
REMARK    3  A    between atoms: C_1  and  N_7 
REMARK    4  A    between atoms: C_2  and  C_3 
REMARK    5  A    between atoms: C_3  and  C_4 
REMARK       I    between atoms: C_4  and  N_5 
REMARK    6  A    between atoms: C_10  and  C_11 
REMARK    7  A    between atoms: C_11  and  C_12 
REMARK    8  A    between atoms: C_11  and  N_19 
REMARK    9  A    between atoms: C_12  and  C_18 
REMARK       I    between atoms: N_19  and  C_24 
REMARK   10  A    between atoms: C_22  and  O_23 
REMARK   11  A    between atoms: O_23  and  P_29 
REMARK   12  A    between atoms: P_29  and  O_33 
ROOT
HETATM    1  C           1     -20.622  -7.553  -5.617  0.00  0.00     0.189 C 
ENDROOT
BRANCH   1   2
HETATM    2  C           1     -19.368  -8.355  -5.369  0.00  0.00     0.197 C 
HETATM    3  O           1     -18.602  -8.626  -6.318  0.00  0.00    -0.646 OA
HETATM    4  O           1     -19.096  -8.750  -4.214  0.00  0.00    -0.646 OA
ENDBRANCH   1   2
BRANCH   1   5
HETATM    5  C           1     -20.293  -6.067  -5.566  0.00  0.00     0.074 C 
BRANCH   5   6
HETATM    6  C           1     -20.847  -5.389  -6.780  0.00  0.00    -0.056 A 
HETATM    7  C           1     -22.066  -4.714  -6.706  0.00  0.00     0.010 A 
HETATM    8  C           1     -22.583  -4.082  -7.837  0.00  0.00     0.038 A 
HETATM    9  C           1     -21.880  -4.125  -9.041  0.00  0.00     0.081 A 
HETATM   10  C           1     -20.661  -4.799  -9.115  0.00  0.00     0.038 A 
HETATM   11  C           1     -20.145  -5.431  -7.985  0.00  0.00     0.010 A 
BRANCH   9  12
HETATM   12  O           1     -22.382  -3.511 -10.141  0.00  0.00    -0.247 OA
BRANCH  12  13
HETATM   13  P           1     -23.622  -4.212 -10.902  0.00  0.00     0.411 P 
HETATM   14  O           1     -23.956  -5.487 -10.230  0.00  0.00    -0.624 OA
HETATM   15  O           1     -23.249  -4.479 -12.309  0.00  0.00    -0.624 OA
BRANCH  13  16
HETATM   16  O           1     -24.903  -3.230 -10.860  0.00  0.00    -0.300 OA
HETATM   17  H           1     -24.680  -2.515 -11.432  0.00  0.00     0.223 HD
ENDBRANCH  13  16
ENDBRANCH  12  13
ENDBRANCH   9  12
ENDBRANCH   5   6
ENDBRANCH   1   5
BRANCH   1  18
HETATM   18  N           1     -21.605  -7.864  -4.597  0.00  0.00    -0.344 N 
HETATM   19  H           1     -21.940  -8.813  -4.490  0.00  0.00     0.163 HD
HETATM   20  C           1     -22.078  -6.875  -3.778  0.00  0.00     0.249 C 
HETATM   21  O           1     -23.057  -6.244  -4.099  0.00  0.00    -0.271 OA
BRANCH  20  22
HETATM   22  C           1     -21.379  -6.573  -2.476  0.00  0.00     0.275 C 
BRANCH  22  23
HETATM   23  C           1     -21.215  -7.859  -1.676  0.00  0.00     0.052 C 
BRANCH  23  24
HETATM   24  C           1     -22.003  -7.755  -0.378  0.00  0.00     0.105 C 
BRANCH  24  25
HETATM   25  C           1     -21.571  -8.853   0.563  0.00  0.00     0.215 C 
HETATM   26  N           1     -21.803 -10.162   0.239  0.00  0.00    -0.370 N 
HETATM   27  H           1     -21.513 -10.899   0.870  0.00  0.00     0.159 HD
HETATM   28  H           1     -22.264 -10.394  -0.631  0.00  0.00     0.159 HD
HETATM   29  O           1     -21.020  -8.576   1.602  0.00  0.00    -0.274 OA
ENDBRANCH  24  25
ENDBRANCH  23  24
ENDBRANCH  22  23
BRANCH  22  30
HETATM   30  N           1     -22.195  -5.595  -1.685  0.00  0.00    -0.066 N 
HETATM   31  H           1     -23.025  -5.298  -2.247  0.00  0.00     0.275 HD
HETATM   32  H           1     -22.519  -6.047  -0.800  0.00  0.00     0.275 HD
HETATM   33  H           1     -21.612  -4.759  -1.458  0.00  0.00     0.275 HD
ENDBRANCH  22  30
ENDBRANCH  20  22
ENDBRANCH   1  18
TORSDOF 12
ENDMDL
MODEL 4
REMARK VINA RESULT:      -7.2     12.335     14.945
REMARK  12 active torsions:
REMARK  status: ('A' for Active; 'I' for Inactive)
REMARK    1  A    between atoms: C_1  and  C_24 
REMARK    2  A    between atoms: C_1  and  C_2 
REMARK    3  A    between atoms: C_1  and  N_7 
REMARK    4  A    between atoms: C_2  and  C_3 
REMARK    5  A    between atoms: C_3  and  C_4 
REMARK       I    between atoms: C_4  and  N_5 
REMARK    6  A    between atoms: C_10  and  C_11 
REMARK    7  A    between atoms: C_11  and  C_12 
REMARK    8  A    between atoms: C_11  and  N_19 
REMARK    9  A    between atoms: C_12  and  C_18 
REMARK       I    between atoms: N_19  and  C_24 
REMARK   10  A    between atoms: C_22  and  O_23 
REMARK   11  A    between atoms: O_23  and  P_29 
REMARK   12  A    between atoms: P_29  and  O_33 
ROOT
HETATM    1  C           1     -20.713  -5.096  -6.164  0.00  0.00     0.189 C 
ENDROOT
BRANCH   1   2
HETATM    2  C           1     -19.655  -5.266  -7.226  0.00  0.00     0.197 C 
HETATM    3  O           1     -19.597  -6.326  -7.887  0.00  0.00    -0.646 OA
HETATM    4  O           1     -18.836  -4.347  -7.445  0.00  0.00    -0.646 OA
ENDBRANCH   1   2
BRANCH   1   5
HETATM    5  C           1     -21.450  -6.414  -5.966  0.00  0.00     0.074 C 
BRANCH   5   6
HETATM    6  C           1     -21.258  -6.888  -4.559  0.00  0.00    -0.056 A 
HETATM    7  C           1     -21.912  -6.240  -3.510  0.00  0.00     0.010 A 
HETATM    8  C           1     -21.734  -6.682  -2.199  0.00  0.00     0.038 A 
HETATM    9  C           1     -20.903  -7.771  -1.937  0.00  0.00     0.081 A 
HETATM   10  C           1     -20.250  -8.419  -2.985  0.00  0.00     0.038 A 
HETATM   11  C           1     -20.428  -7.978  -4.296  0.00  0.00     0.010 A 
BRANCH   9  12
HETATM   12  O           1     -20.729  -8.200  -0.663  0.00  0.00    -0.247 OA
BRANCH  12  13
HETATM   13  P           1     -21.889  -9.111  -0.005  0.00  0.00     0.411 P 
HETATM   14  O           1     -22.643  -9.799  -1.077  0.00  0.00    -0.624 OA
HETATM   15  O           1     -22.810  -8.251   0.771  0.00  0.00    -0.624 OA
BRANCH  13  16
HETATM   16  O           1     -21.221 -10.209   0.973  0.00  0.00    -0.300 OA
HETATM   17  H           1     -21.946 -10.710   1.306  0.00  0.00     0.223 HD
ENDBRANCH  13  16
ENDBRANCH  12  13
ENDBRANCH   9  12
ENDBRANCH   5   6
ENDBRANCH   1   5
BRANCH   1  18
HETATM   18  N           1     -21.655  -4.075  -6.580  0.00  0.00    -0.344 N 
HETATM   19  H           1     -21.420  -3.096  -6.472  0.00  0.00     0.163 HD
HETATM   20  C           1     -22.861  -4.434  -7.118  0.00  0.00     0.249 C 
HETATM   21  O           1     -23.818  -4.595  -6.399  0.00  0.00    -0.271 OA
BRANCH  20  22
HETATM   22  C           1     -22.995  -4.629  -8.608  0.00  0.00     0.275 C 
BRANCH  22  23
HETATM   23  C           1     -22.044  -3.685  -9.332  0.00  0.00     0.052 C 
BRANCH  23  24
HETATM   24  C           1     -21.309  -4.446 -10.428  0.00  0.00     0.105 C 
BRANCH  24  25
HETATM   25  C           1     -22.069  -4.319 -11.725  0.00  0.00     0.215 C 
HETATM   26  N           1     -21.485  -3.710 -12.804  0.00  0.00    -0.370 N 
HETATM   27  H           1     -21.994  -3.625 -13.674  0.00  0.00     0.159 HD
HETATM   28  H           1     -20.543  -3.346 -12.731  0.00  0.00     0.159 HD
HETATM   29  O           1     -23.193  -4.753 -11.813  0.00  0.00    -0.274 OA
ENDBRANCH  24  25
ENDBRANCH  23  24
ENDBRANCH  22  23
BRANCH  22  30
HETATM   30  N           1     -24.405  -4.334  -9.026  0.00  0.00    -0.066 N 
HETATM   31  H           1     -24.440  -3.406  -9.506  0.00  0.00     0.275 HD
HETATM   32  H           1     -24.737  -5.077  -9.682  0.00  0.00     0.275 HD
HETATM   33  H           1     -25.020  -4.313  -8.182  0.00  0.00     0.275 HD
ENDBRANCH  22  30
ENDBRANCH  20  22
ENDBRANCH   1  18
TORSDOF 12
ENDMDL
MODEL 5
REMARK VINA RESULT:      -7.0     12.485     14.850
REMARK  12 active torsions:
REMARK  status: ('A' for Active; 'I' for Inactive)
REMARK    1  A    between atoms: C_1  and  C_24 
REMARK    2  A    between atoms: C_1  and  C_2 
REMARK    3  A    between atoms: C_1  and  N_7 
REMARK    4  A    between atoms: C_2  and  C_3 
REMARK    5  A    between atoms: C_3  and  C_4 
REMARK       I    between atoms: C_4  and  N_5 
REMARK    6  A    between atoms: C_10  and  C_11 
REMARK    7  A    between atoms: C_11  and  C_12 
REMARK    8  A    between atoms: C_11  and  N_19 
REMARK    9  A    between atoms: C_12  and  C_18 
REMARK       I    between atoms: N_19  and  C_24 
REMARK   10  A    between atoms: C_22  and  O_23 
REMARK   11  A    between atoms: O_23  and  P_29 
REMARK   12  A    between atoms: P_29  and  O_33 
ROOT
HETATM    1  C           1     -20.798  -7.688  -5.127  0.00  0.00     0.189 C 
ENDROOT
BRANCH   1   2
HETATM    2  C           1     -20.426  -9.072  -5.602  0.00  0.00     0.197 C 
HETATM    3  O           1     -21.308  -9.950  -5.716  0.00  0.00    -0.646 OA
HETATM    4  O           1     -19.237  -9.338  -5.880  0.00  0.00    -0.646 OA
ENDBRANCH   1   2
BRANCH   1   5
HETATM    5  C           1     -19.928  -6.657  -5.833  0.00  0.00     0.074 C 
BRANCH   5   6
HETATM    6  C           1     -20.787  -5.775  -6.685  0.00  0.00    -0.056 A 
HETATM    7  C           1     -20.301  -5.293  -7.901  0.00  0.00     0.010 A 
HETATM    8  C           1     -21.100  -4.472  -8.695  0.00  0.00     0.038 A 
HETATM    9  C           1     -22.386  -4.133  -8.273  0.00  0.00     0.081 A 
HETATM   10  C           1     -22.872  -4.615  -7.059  0.00  0.00     0.038 A 
HETATM   11  C           1     -22.072  -5.436  -6.264  0.00  0.00     0.010 A 
BRANCH   9  12
HETATM   12  O           1     -23.164  -3.334  -9.045  0.00  0.00    -0.247 OA
BRANCH  12  13
HETATM   13  P           1     -23.721  -3.935 -10.437  0.00  0.00     0.411 P 
HETATM   14  O           1     -22.715  -3.728 -11.501  0.00  0.00    -0.624 OA
HETATM   15  O           1     -24.976  -3.242 -10.804  0.00  0.00    -0.624 OA
BRANCH  13  16
HETATM   16  O           1     -24.007  -5.515 -10.265  0.00  0.00    -0.300 OA
HETATM   17  H           1     -24.807  -5.670 -10.737  0.00  0.00     0.223 HD
ENDBRANCH  13  16
ENDBRANCH  12  13
ENDBRANCH   9  12
ENDBRANCH   5   6
ENDBRANCH   1   5
BRANCH   1  18
HETATM   18  N           1     -20.590  -7.596  -3.695  0.00  0.00    -0.344 N 
HETATM   19  H           1     -20.627  -6.695  -3.236  0.00  0.00     0.163 HD
HETATM   20  C           1     -20.343  -8.727  -2.965  0.00  0.00     0.249 C 
HETATM   21  O           1     -19.207  -9.103  -2.801  0.00  0.00    -0.271 OA
BRANCH  20  22
HETATM   22  C           1     -21.489  -9.504  -2.366  0.00  0.00     0.275 C 
BRANCH  22  23
HETATM   23  C           1     -21.311  -9.590  -0.856  0.00  0.00     0.052 C 
BRANCH  23  24
HETATM   24  C           1     -21.182  -8.187  -0.279  0.00  0.00     0.105 C 
BRANCH  24  25
HETATM   25  C           1     -22.535  -7.518  -0.277  0.00  0.00     0.215 C 
HETATM   26  N           1     -23.530  -7.987   0.537  0.00  0.00    -0.370 N 
HETATM   27  H           1     -24.437  -7.537   0.539  0.00  0.00     0.159 HD
HETATM   28  H           1     -23.359  -8.784   1.137  0.00  0.00     0.159 HD
HETATM   29  O           1     -22.739  -6.566  -0.993  0.00  0.00    -0.274 OA
ENDBRANCH  24  25
ENDBRANCH  23  24
ENDBRANCH  22  23
BRANCH  22  30
HETATM   30  N           1     -21.512 -10.887  -2.946  0.00  0.00    -0.066 N 
HETATM   31  H           1     -20.695 -11.430  -2.586  0.00  0.00     0.275 HD
HETATM   32  H           1     -22.398 -11.367  -2.668  0.00  0.00     0.275 HD
HETATM   33  H           1     -21.459 -10.828  -3.988  0.00  0.00     0.275 HD
ENDBRANCH  22  30
ENDBRANCH  20  22
ENDBRANCH   1  18
TORSDOF 12
ENDMDL
MODEL 6
REMARK VINA RESULT:      -6.7     12.252     14.939
REMARK  12 active torsions:
REMARK  status: ('A' for Active; 'I' for Inactive)
REMARK    1  A    between atoms: C_1  and  C_24 
REMARK    2  A    between atoms: C_1  and  C_2 
REMARK    3  A    between atoms: C_1  and  N_7 
REMARK    4  A    between atoms: C_2  and  C_3 
REMARK    5  A    between atoms: C_3  and  C_4 
REMARK       I    between atoms: C_4  and  N_5 
REMARK    6  A    between atoms: C_10  and  C_11 
REMARK    7  A    between atoms: C_11  and  C_12 
REMARK    8  A    between atoms: C_11  and  N_19 
REMARK    9  A    between atoms: C_12  and  C_18 
REMARK       I    between atoms: N_19  and  C_24 
REMARK   10  A    between atoms: C_22  and  O_23 
REMARK   11  A    between atoms: O_23  and  P_29 
REMARK   12  A    between atoms: P_29  and  O_33 
ROOT
HETATM    1  C           1     -20.676  -4.900  -6.046  0.00  0.00     0.189 C 
ENDROOT
BRANCH   1   2
HETATM    2  C           1     -19.481  -5.362  -6.844  0.00  0.00     0.197 C 
HETATM    3  O           1     -19.427  -6.538  -7.263  0.00  0.00    -0.646 OA
HETATM    4  O           1     -18.545  -4.568  -7.085  0.00  0.00    -0.646 OA
ENDBRANCH   1   2
BRANCH   1   5
HETATM    5  C           1     -21.660  -6.052  -5.892  0.00  0.00     0.074 C 
BRANCH   5   6
HETATM    6  C           1     -21.435  -6.731  -4.577  0.00  0.00    -0.056 A 
HETATM    7  C           1     -21.786  -6.085  -3.391  0.00  0.00     0.010 A 
HETATM    8  C           1     -21.578  -6.717  -2.165  0.00  0.00     0.038 A 
HETATM    9  C           1     -21.018  -7.994  -2.126  0.00  0.00     0.081 A 
HETATM   10  C           1     -20.668  -8.640  -3.311  0.00  0.00     0.038 A 
HETATM   11  C           1     -20.877  -8.008  -4.537  0.00  0.00     0.010 A 
BRANCH   9  12
HETATM   12  O           1     -20.815  -8.609  -0.935  0.00  0.00    -0.247 OA
BRANCH  12  13
HETATM   13  P           1     -22.046  -9.428  -0.284  0.00  0.00     0.411 P 
HETATM   14  O           1     -21.524 -10.410   0.692  0.00  0.00    -0.624 OA
HETATM   15  O           1     -22.783 -10.139  -1.352  0.00  0.00    -0.624 OA
BRANCH  13  16
HETATM   16  O           1     -23.040  -8.399   0.466  0.00  0.00    -0.300 OA
HETATM   17  H           1     -23.744  -8.255  -0.142  0.00  0.00     0.223 HD
ENDBRANCH  13  16
ENDBRANCH  12  13
ENDBRANCH   9  12
ENDBRANCH   5   6
ENDBRANCH   1   5
BRANCH   1  18
HETATM   18  N           1     -21.322  -3.801  -6.736  0.00  0.00    -0.344 N 
HETATM   19  H           1     -21.361  -2.886  -6.306  0.00  0.00     0.163 HD
HETATM   20  C           1     -21.880  -4.002  -7.970  0.00  0.00     0.249 C 
HETATM   21  O           1     -23.035  -4.342  -8.062  0.00  0.00    -0.271 OA
BRANCH  20  22
HETATM   22  C           1     -21.051  -3.799  -9.215  0.00  0.00     0.275 C 
BRANCH  22  23
HETATM   23  C           1     -21.945  -3.308 -10.346  0.00  0.00     0.052 C 
BRANCH  23  24
HETATM   24  C           1     -21.975  -4.349 -11.458  0.00  0.00     0.105 C 
BRANCH  24  25
HETATM   25  C           1     -23.382  -4.871 -11.620  0.00  0.00     0.215 C 
HETATM   26  N           1     -24.074  -5.323 -10.528  0.00  0.00    -0.370 N 
HETATM   27  H           1     -25.018  -5.674 -10.637  0.00  0.00     0.159 HD
HETATM   28  H           1     -23.642  -5.307  -9.613  0.00  0.00     0.159 HD
HETATM   29  O           1     -23.898  -4.890 -12.712  0.00  0.00    -0.274 OA
ENDBRANCH  24  25
ENDBRANCH  23  24
ENDBRANCH  22  23
BRANCH  22  30
HETATM   30  N           1     -20.415  -5.099  -9.609  0.00  0.00    -0.066 N 
HETATM   31  H           1     -19.926  -4.984 -10.526  0.00  0.00     0.275 HD
HETATM   32  H           1     -19.723  -5.383  -8.879  0.00  0.00     0.275 HD
HETATM   33  H           1     -21.152  -5.834  -9.697  0.00  0.00     0.275 HD
ENDBRANCH  22  30
ENDBRANCH  20  22
ENDBRANCH   1  18
TORSDOF 12
ENDMDL
MODEL 7
REMARK VINA RESULT:      -6.6     14.172     16.491
REMARK  12 active torsions:
REMARK  status: ('A' for Active; 'I' for Inactive)
REMARK    1  A    between atoms: C_1  and  C_24 
REMARK    2  A    between atoms: C_1  and  C_2 
REMARK    3  A    between atoms: C_1  and  N_7 
REMARK    4  A    between atoms: C_2  and  C_3 
REMARK    5  A    between atoms: C_3  and  C_4 
REMARK       I    between atoms: C_4  and  N_5 
REMARK    6  A    between atoms: C_10  and  C_11 
REMARK    7  A    between atoms: C_11  and  C_12 
REMARK    8  A    between atoms: C_11  and  N_19 
REMARK    9  A    between atoms: C_12  and  C_18 
REMARK       I    between atoms: N_19  and  C_24 
REMARK   10  A    between atoms: C_22  and  O_23 
REMARK   11  A    between atoms: O_23  and  P_29 
REMARK   12  A    between atoms: P_29  and  O_33 
ROOT
HETATM    1  C           1     -20.728  -8.529  -2.841  0.00  0.00     0.189 C 
ENDROOT
BRANCH   1   2
HETATM    2  C           1     -21.877  -8.978  -1.970  0.00  0.00     0.197 C 
HETATM    3  O           1     -22.329  -8.214  -1.091  0.00  0.00    -0.646 OA
HETATM    4  O           1     -22.375 -10.113  -2.128  0.00  0.00    -0.646 OA
ENDBRANCH   1   2
BRANCH   1   5
HETATM    5  C           1     -19.410  -8.893  -2.171  0.00  0.00     0.074 C 
BRANCH   5   6
HETATM    6  C           1     -18.422  -9.322  -3.210  0.00  0.00    -0.056 A 
HETATM    7  C           1     -17.063  -9.381  -2.898  0.00  0.00     0.010 A 
HETATM    8  C           1     -16.142  -9.781  -3.865  0.00  0.00     0.038 A 
HETATM    9  C           1     -16.579 -10.122  -5.145  0.00  0.00     0.081 A 
HETATM   10  C           1     -17.937 -10.063  -5.458  0.00  0.00     0.038 A 
HETATM   11  C           1     -18.858  -9.663  -4.490  0.00  0.00     0.010 A 
BRANCH   9  12
HETATM   12  O           1     -15.684 -10.510  -6.086  0.00  0.00    -0.247 OA
BRANCH  12  13
HETATM   13  P           1     -15.467 -12.094  -6.319  0.00  0.00     0.411 P 
HETATM   14  O           1     -15.711 -12.817  -5.051  0.00  0.00    -0.624 OA
HETATM   15  O           1     -14.079 -12.340  -6.768  0.00  0.00    -0.624 OA
BRANCH  13  16
HETATM   16  O           1     -16.500 -12.618  -7.444  0.00  0.00    -0.300 OA
HETATM   17  H           1     -17.181 -13.056  -6.964  0.00  0.00     0.223 HD
ENDBRANCH  13  16
ENDBRANCH  12  13
ENDBRANCH   9  12
ENDBRANCH   5   6
ENDBRANCH   1   5
BRANCH   1  18
HETATM   18  N           1     -20.795  -7.093  -3.026  0.00  0.00    -0.344 N 
HETATM   19  H           1     -20.436  -6.474  -2.311  0.00  0.00     0.163 HD
HETATM   20  C           1     -21.343  -6.575  -4.169  0.00  0.00     0.249 C 
HETATM   21  O           1     -22.525  -6.331  -4.214  0.00  0.00    -0.271 OA
BRANCH  20  22
HETATM   22  C           1     -20.471  -6.309  -5.371  0.00  0.00     0.275 C 
BRANCH  22  23
HETATM   23  C           1     -20.731  -4.899  -5.886  0.00  0.00     0.052 C 
BRANCH  23  24
HETATM   24  C           1     -21.077  -4.955  -7.368  0.00  0.00     0.105 C 
BRANCH  24  25
HETATM   25  C           1     -22.426  -4.318  -7.594  0.00  0.00     0.215 C 
HETATM   26  N           1     -23.460  -4.581  -6.736  0.00  0.00    -0.370 N 
HETATM   27  H           1     -24.365  -4.153  -6.888  0.00  0.00     0.159 HD
HETATM   28  H           1     -23.320  -5.203  -5.950  0.00  0.00     0.159 HD
HETATM   29  O           1     -22.594  -3.575  -8.532  0.00  0.00    -0.274 OA
ENDBRANCH  24  25
ENDBRANCH  23  24
ENDBRANCH  22  23
BRANCH  22  30
HETATM   30  N           1     -20.791  -7.301  -6.449  0.00  0.00    -0.066 N 
HETATM   31  H           1     -21.313  -8.107  -6.038  0.00  0.00     0.275 HD
HETATM   32  H           1     -21.380  -6.842  -7.181  0.00  0.00     0.275 HD
HETATM   33  H           1     -19.903  -7.645  -6.880  0.00  0.00     0.275 HD
ENDBRANCH  22  30
ENDBRANCH  20  22
ENDBRANCH   1  18
TORSDOF 12
ENDMDL
MODEL 8
REMARK VINA RESULT:      -6.6     12.902     15.314
REMARK  12 active torsions:
REMARK  status: ('A' for Active; 'I' for Inactive)
REMARK    1  A    between atoms: C_1  and  C_24 
REMARK    2  A    between atoms: C_1  and  C_2 
REMARK    3  A    between atoms: C_1  and  N_7 
REMARK    4  A    between atoms: C_2  and  C_3 
REMARK    5  A    between atoms: C_3  and  C_4 
REMARK       I    between atoms: C_4  and  N_5 
REMARK    6  A    between atoms: C_10  and  C_11 
REMARK    7  A    between atoms: C_11  and  C_12 
REMARK    8  A    between atoms: C_11  and  N_19 
REMARK    9  A    between atoms: C_12  and  C_18 
REMARK       I    between atoms: N_19  and  C_24 
REMARK   10  A    between atoms: C_22  and  O_23 
REMARK   11  A    between atoms: O_23  and  P_29 
REMARK   12  A    between atoms: P_29  and  O_33 
ROOT
HETATM    1  C           1     -21.312  -7.319  -5.722  0.00  0.00     0.189 C 
ENDROOT
BRANCH   1   2
HETATM    2  C           1     -22.064  -6.316  -4.881  0.00  0.00     0.197 C 
HETATM    3  O           1     -23.289  -6.143  -5.062  0.00  0.00    -0.646 OA
HETATM    4  O           1     -21.462  -5.659  -4.005  0.00  0.00    -0.646 OA
ENDBRANCH   1   2
BRANCH   1   5
HETATM    5  C           1     -20.116  -7.843  -4.939  0.00  0.00     0.074 C 
BRANCH   5   6
HETATM    6  C           1     -20.580  -8.838  -3.921  0.00  0.00    -0.056 A 
HETATM    7  C           1     -21.521  -9.807  -4.273  0.00  0.00     0.010 A 
HETATM    8  C           1     -21.953 -10.735  -3.326  0.00  0.00     0.038 A 
HETATM    9  C           1     -21.445 -10.694  -2.028  0.00  0.00     0.081 A 
HETATM   10  C           1     -20.504  -9.726  -1.676  0.00  0.00     0.038 A 
HETATM   11  C           1     -20.072  -8.799  -2.623  0.00  0.00     0.010 A 
BRANCH   9  12
HETATM   12  O           1     -21.865 -11.596  -1.106  0.00  0.00    -0.247 OA
BRANCH  12  13
HETATM   13  P           1     -23.297 -11.349  -0.402  0.00  0.00     0.411 P 
HETATM   14  O           1     -23.395 -12.178   0.820  0.00  0.00    -0.624 OA
HETATM   15  O           1     -24.378 -11.724  -1.340  0.00  0.00    -0.624 OA
BRANCH  13  16
HETATM   16  O           1     -23.441  -9.789  -0.007  0.00  0.00    -0.300 OA
HETATM   17  H           1     -23.093  -9.726   0.865  0.00  0.00     0.223 HD
ENDBRANCH  13  16
ENDBRANCH  12  13
ENDBRANCH   9  12
ENDBRANCH   5   6
ENDBRANCH   1   5
BRANCH   1  18
HETATM   18  N           1     -20.850  -6.680  -6.939  0.00  0.00    -0.344 N 
HETATM   19  H           1     -20.579  -7.244  -7.734  0.00  0.00     0.163 HD
HETATM   20  C           1     -20.782  -5.315  -7.012  0.00  0.00     0.249 C 
HETATM   21  O           1     -19.769  -4.744  -6.686  0.00  0.00    -0.271 OA
BRANCH  20  22
HETATM   22  C           1     -21.972  -4.525  -7.498  0.00  0.00     0.275 C 
BRANCH  22  23
HETATM   23  C           1     -22.246  -4.863  -8.957  0.00  0.00     0.052 C 
BRANCH  23  24
HETATM   24  C           1     -22.566  -3.586  -9.723  0.00  0.00     0.105 C 
BRANCH  24  25
HETATM   25  C           1     -24.037  -3.555 -10.057  0.00  0.00     0.215 C 
HETATM   26  N           1     -24.943  -3.138  -9.118  0.00  0.00    -0.370 N 
HETATM   27  H           1     -25.930  -3.117  -9.343  0.00  0.00     0.159 HD
HETATM   28  H           1     -24.626  -2.851  -8.201  0.00  0.00     0.159 HD
HETATM   29  O           1     -24.416  -3.897 -11.152  0.00  0.00    -0.274 OA
ENDBRANCH  24  25
ENDBRANCH  23  24
ENDBRANCH  22  23
BRANCH  22  30
HETATM   30  N           1     -21.683  -3.059  -7.370  0.00  0.00    -0.066 N 
HETATM   31  H           1     -20.653  -2.913  -7.273  0.00  0.00     0.275 HD
HETATM   32  H           1     -22.025  -2.561  -8.224  0.00  0.00     0.275 HD
HETATM   33  H           1     -22.170  -2.680  -6.527  0.00  0.00     0.275 HD
ENDBRANCH  22  30
ENDBRANCH  20  22
ENDBRANCH   1  18
TORSDOF 12
ENDMDL
MODEL 9
REMARK VINA RESULT:      -6.6     13.779     16.099
REMARK  12 active torsions:
REMARK  status: ('A' for Active; 'I' for Inactive)
REMARK    1  A    between atoms: C_1  and  C_24 
REMARK    2  A    between atoms: C_1  and  C_2 
REMARK    3  A    between atoms: C_1  and  N_7 
REMARK    4  A    between atoms: C_2  and  C_3 
REMARK    5  A    between atoms: C_3  and  C_4 
REMARK       I    between atoms: C_4  and  N_5 
REMARK    6  A    between atoms: C_10  and  C_11 
REMARK    7  A    between atoms: C_11  and  C_12 
REMARK    8  A    between atoms: C_11  and  N_19 
REMARK    9  A    between atoms: C_12  and  C_18 
REMARK       I    between atoms: N_19  and  C_24 
REMARK   10  A    between atoms: C_22  and  O_23 
REMARK   11  A    between atoms: O_23  and  P_29 
REMARK   12  A    between atoms: P_29  and  O_33 
ROOT
HETATM    1  C           1     -21.447  -7.774  -2.306  0.00  0.00     0.189 C 
ENDROOT
BRANCH   1   2
HETATM    2  C           1     -22.272  -7.801  -1.043  0.00  0.00     0.197 C 
HETATM    3  O           1     -22.707  -6.735  -0.557  0.00  0.00    -0.646 OA
HETATM    4  O           1     -22.521  -8.891  -0.483  0.00  0.00    -0.646 OA
ENDBRANCH   1   2
BRANCH   1   5
HETATM    5  C           1     -20.000  -8.118  -1.975  0.00  0.00     0.074 C 
BRANCH   5   6
HETATM    6  C           1     -19.559  -9.280  -2.809  0.00  0.00    -0.056 A 
HETATM    7  C           1     -20.507 -10.155  -3.342  0.00  0.00     0.010 A 
HETATM    8  C           1     -20.097 -11.238  -4.119  0.00  0.00     0.038 A 
HETATM    9  C           1     -18.739 -11.446  -4.364  0.00  0.00     0.081 A 
HETATM   10  C           1     -17.792 -10.571  -3.832  0.00  0.00     0.038 A 
HETATM   11  C           1     -18.202  -9.489  -3.055  0.00  0.00     0.010 A 
BRANCH   9  12
HETATM   12  O           1     -18.340 -12.498  -5.119  0.00  0.00    -0.247 OA
BRANCH  12  13
HETATM   13  P           1     -17.860 -12.206  -6.634  0.00  0.00     0.411 P 
HETATM   14  O           1     -18.619 -11.059  -7.179  0.00  0.00    -0.624 OA
HETATM   15  O           1     -18.109 -13.403  -7.468  0.00  0.00    -0.624 OA
BRANCH  13  16
HETATM   16  O           1     -16.283 -11.861  -6.641  0.00  0.00    -0.300 OA
HETATM   17  H           1     -16.183 -11.195  -7.299  0.00  0.00     0.223 HD
ENDBRANCH  13  16
ENDBRANCH  12  13
ENDBRANCH   9  12
ENDBRANCH   5   6
ENDBRANCH   1   5
BRANCH   1  18
HETATM   18  N           1     -21.505  -6.449  -2.892  0.00  0.00    -0.344 N 
HETATM   19  H           1     -21.359  -5.632  -2.312  0.00  0.00     0.163 HD
HETATM   20  C           1     -21.757  -6.302  -4.229  0.00  0.00     0.249 C 
HETATM   21  O           1     -22.895  -6.195  -4.620  0.00  0.00    -0.271 OA
BRANCH  20  22
HETATM   22  C           1     -20.615  -6.275  -5.215  0.00  0.00     0.275 C 
BRANCH  22  23
HETATM   23  C           1     -20.661  -4.978  -6.011  0.00  0.00     0.052 C 
BRANCH  23  24
HETATM   24  C           1     -21.240  -5.250  -7.393  0.00  0.00     0.105 C 
BRANCH  24  25
HETATM   25  C           1     -22.430  -4.353  -7.626  0.00  0.00     0.215 C 
HETATM   26  N           1     -23.576  -4.532  -6.898  0.00  0.00    -0.370 N 
HETATM   27  H           1     -24.374  -3.929  -7.055  0.00  0.00     0.159 HD
HETATM   28  H           1     -23.625  -5.266  -6.204  0.00  0.00     0.159 HD
HETATM   29  O           1     -22.372  -3.475  -8.454  0.00  0.00    -0.274 OA
ENDBRANCH  24  25
ENDBRANCH  23  24
ENDBRANCH  22  23
BRANCH  22  30
HETATM   30  N           1     -20.735  -7.440  -6.151  0.00  0.00    -0.066 N 
HETATM   31  H           1     -19.849  -7.544  -6.695  0.00  0.00     0.275 HD
HETATM   32  H           1     -20.908  -8.313  -5.600  0.00  0.00     0.275 HD
HETATM   33  H           1     -21.531  -7.278  -6.808  0.00  0.00     0.275 HD
ENDBRANCH  22  30
ENDBRANCH  20  22
ENDBRANCH   1  18
TORSDOF 12
ENDMDL
