MODEL 1
REMARK VINA RESULT:      -6.9      0.000      0.000
REMARK  11 active torsions:
REMARK  status: ('A' for Active; 'I' for Inactive)
REMARK    1  A    between atoms: C_2  and  C_3 
REMARK    2  A    between atoms: C_2  and  O_15 
REMARK    3  A    between atoms: C_3  and  C_10 
REMARK    4  A    between atoms: C_3  and  N_19 
REMARK    5  A    between atoms: O_7  and  P_14 
REMARK    6  A    between atoms: P_14  and  O_15 
REMARK    7  A    between atoms: N_16  and  C_21 
REMARK       I    between atoms: N_19  and  C_20 
REMARK    8  A    between atoms: C_20  and  C_21 
REMARK    9  A    between atoms: C_21  and  C_22 
REMARK   10  A    between atoms: C_22  and  C_23 
REMARK   11  A    between atoms: C_23  and  C_24 
ROOT
HETATM    1  O           1     -28.285  -5.176 -19.081  0.00  0.00    -0.271 OA
HETATM    2  H           1     -27.886  -8.285 -18.975  0.00  0.00     0.163 HD
HETATM    3  N           1     -27.678  -7.321 -19.201  0.00  0.00    -0.343 N 
HETATM    4  C           1     -28.533  -6.326 -18.810  0.00  0.00     0.249 C 
ENDROOT
BRANCH   3   5
HETATM    5  C           1     -26.476  -6.993 -19.944  0.00  0.00     0.210 C 
BRANCH   5   6
HETATM    6  C           1     -25.272  -7.059 -19.012  0.00  0.00     0.217 C 
BRANCH   6   7
HETATM    7  O           1     -25.461  -6.175 -17.940  0.00  0.00    -0.287 OA
BRANCH   7   8
HETATM    8  P           1     -25.399  -6.830 -16.464  0.00  0.00     0.406 P 
HETATM    9  O           1     -24.375  -7.898 -16.441  0.00  0.00    -0.624 OA
HETATM   10  O           1     -25.047  -5.786 -15.475  0.00  0.00    -0.624 OA
BRANCH   8  11
HETATM   11  O           1     -26.841  -7.455 -16.093  0.00  0.00    -0.300 OA
HETATM   12  H           1     -27.054  -8.023 -16.814  0.00  0.00     0.223 HD
ENDBRANCH   8  11
ENDBRANCH   7   8
ENDBRANCH   6   7
ENDBRANCH   5   6
BRANCH   5  13
HETATM   13  C           1     -26.296  -7.981 -21.069  0.00  0.00     0.198 C 
HETATM   14  O           1     -25.191  -8.078 -21.646  0.00  0.00    -0.646 OA
HETATM   15  O           1     -27.252  -8.703 -21.426  0.00  0.00    -0.646 OA
ENDBRANCH   5  13
ENDBRANCH   3   5
BRANCH   4  16
HETATM   16  C           1     -29.784  -6.667 -18.038  0.00  0.00     0.275 C 
BRANCH  16  17
HETATM   17  N           1     -29.652  -8.043 -17.454  0.00  0.00    -0.066 N 
HETATM   18  H           1     -30.137  -8.731 -18.074  0.00  0.00     0.275 HD
HETATM   19  H           1     -30.087  -8.061 -16.504  0.00  0.00     0.275 HD
HETATM   20  H           1     -28.640  -8.294 -17.378  0.00  0.00     0.275 HD
ENDBRANCH  16  17
BRANCH  16  21
HETATM   21  C           1     -29.980  -5.657 -16.916  0.00  0.00     0.053 C 
BRANCH  21  22
HETATM   22  C           1     -31.400  -5.107 -16.968  0.00  0.00     0.115 C 
BRANCH  22  23
HETATM   23  C           1     -31.366  -3.669 -17.422  0.00  0.00     0.172 C 
HETATM   24  O           1     -32.431  -3.077 -17.704  0.00  0.00    -0.648 OA
HETATM   25  O           1     -30.274  -3.068 -17.515  0.00  0.00    -0.648 OA
ENDBRANCH  22  23
ENDBRANCH  21  22
ENDBRANCH  16  21
ENDBRANCH   4  16
TORSDOF 11
ENDMDL
MODEL 2
REMARK VINA RESULT:      -6.4      2.405      6.093
REMARK  11 active torsions:
REMARK  status: ('A' for Active; 'I' for Inactive)
REMARK    1  A    between atoms: C_2  and  C_3 
REMARK    2  A    between atoms: C_2  and  O_15 
REMARK    3  A    between atoms: C_3  and  C_10 
REMARK    4  A    between atoms: C_3  and  N_19 
REMARK    5  A    between atoms: O_7  and  P_14 
REMARK    6  A    between atoms: P_14  and  O_15 
REMARK    7  A    between atoms: N_16  and  C_21 
REMARK       I    between atoms: N_19  and  C_20 
REMARK    8  A    between atoms: C_20  and  C_21 
REMARK    9  A    between atoms: C_21  and  C_22 
REMARK   10  A    between atoms: C_22  and  C_23 
REMARK   11  A    between atoms: C_23  and  C_24 
ROOT
HETATM    1  O           1     -26.450  -7.418 -15.373  0.00  0.00    -0.271 OA
HETATM    2  H           1     -27.689  -6.220 -17.994  0.00  0.00     0.163 HD
HETATM    3  N           1     -27.670  -6.629 -17.068  0.00  0.00    -0.343 N 
HETATM    4  C           1     -26.472  -6.930 -16.477  0.00  0.00     0.249 C 
ENDROOT
BRANCH   3   5
HETATM    5  C           1     -28.911  -6.898 -16.369  0.00  0.00     0.210 C 
BRANCH   5   6
HETATM    6  C           1     -29.434  -5.607 -15.750  0.00  0.00     0.217 C 
BRANCH   6   7
HETATM    7  O           1     -28.814  -4.510 -16.365  0.00  0.00    -0.287 OA
BRANCH   7   8
HETATM    8  P           1     -29.704  -3.715 -17.455  0.00  0.00     0.406 P 
HETATM    9  O           1     -29.513  -4.328 -18.789  0.00  0.00    -0.624 OA
HETATM   10  O           1     -31.133  -3.791 -17.076  0.00  0.00    -0.624 OA
BRANCH   8  11
HETATM   11  O           1     -29.242  -2.168 -17.501  0.00  0.00    -0.300 OA
HETATM   12  H           1     -28.375  -2.183 -17.868  0.00  0.00     0.223 HD
ENDBRANCH   8  11
ENDBRANCH   7   8
ENDBRANCH   6   7
ENDBRANCH   5   6
BRANCH   5  13
HETATM   13  C           1     -29.930  -7.438 -17.342  0.00  0.00     0.198 C 
HETATM   14  O           1     -31.118  -7.056 -17.279  0.00  0.00    -0.646 OA
HETATM   15  O           1     -29.585  -8.267 -18.212  0.00  0.00    -0.646 OA
ENDBRANCH   5  13
ENDBRANCH   3   5
BRANCH   4  16
HETATM   16  C           1     -25.180  -6.651 -17.205  0.00  0.00     0.275 C 
BRANCH  16  17
HETATM   17  N           1     -24.162  -7.689 -16.835  0.00  0.00    -0.066 N 
HETATM   18  H           1     -23.947  -7.615 -15.815  0.00  0.00     0.275 HD
HETATM   19  H           1     -23.290  -7.534 -17.389  0.00  0.00     0.275 HD
HETATM   20  H           1     -24.543  -8.640 -17.043  0.00  0.00     0.275 HD
ENDBRANCH  16  17
BRANCH  16  21
HETATM   21  C           1     -25.424  -6.692 -18.707  0.00  0.00     0.053 C 
BRANCH  21  22
HETATM   22  C           1     -24.190  -7.244 -19.408  0.00  0.00     0.115 C 
BRANCH  22  23
HETATM   23  C           1     -24.592  -7.863 -20.724  0.00  0.00     0.172 C 
HETATM   24  O           1     -23.717  -8.172 -21.563  0.00  0.00    -0.648 OA
HETATM   25  O           1     -25.799  -8.066 -20.976  0.00  0.00    -0.648 OA
ENDBRANCH  22  23
ENDBRANCH  21  22
ENDBRANCH  16  21
ENDBRANCH   4  16
TORSDOF 11
ENDMDL
MODEL 3
REMARK VINA RESULT:      -6.4      2.799      6.897
REMARK  11 active torsions:
REMARK  status: ('A' for Active; 'I' for Inactive)
REMARK    1  A    between atoms: C_2  and  C_3 
REMARK    2  A    between atoms: C_2  and  O_15 
REMARK    3  A    between atoms: C_3  and  C_10 
REMARK    4  A    between atoms: C_3  and  N_19 
REMARK    5  A    between atoms: O_7  and  P_14 
REMARK    6  A    between atoms: P_14  and  O_15 
REMARK    7  A    between atoms: N_16  and  C_21 
REMARK       I    between atoms: N_19  and  C_20 
REMARK    8  A    between atoms: C_20  and  C_21 
REMARK    9  A    between atoms: C_21  and  C_22 
REMARK   10  A    between atoms: C_22  and  C_23 
REMARK   11  A    between atoms: C_23  and  C_24 
ROOT
HETATM    1  O           1     -24.207  -6.289 -18.887  0.00  0.00    -0.271 OA
HETATM    2  H           1     -27.120  -7.444 -19.020  0.00  0.00     0.163 HD
HETATM    3  N           1     -26.355  -6.866 -18.696  0.00  0.00    -0.343 N 
HETATM    4  C           1     -25.119  -6.979 -19.275  0.00  0.00     0.249 C 
ENDROOT
BRANCH   3   5
HETATM    5  C           1     -26.568  -5.920 -17.618  0.00  0.00     0.210 C 
BRANCH   5   6
HETATM    6  C           1     -28.060  -5.651 -17.468  0.00  0.00     0.217 C 
BRANCH   6   7
HETATM    7  O           1     -28.768  -6.391 -18.426  0.00  0.00    -0.287 OA
BRANCH   7   8
HETATM    8  P           1     -29.886  -7.406 -17.851  0.00  0.00     0.406 P 
HETATM    9  O           1     -30.926  -6.638 -17.131  0.00  0.00    -0.624 OA
HETATM   10  O           1     -30.506  -8.145 -18.973  0.00  0.00    -0.624 OA
BRANCH   8  11
HETATM   11  O           1     -29.190  -8.453 -16.837  0.00  0.00    -0.300 OA
HETATM   12  H           1     -29.741  -9.217 -16.860  0.00  0.00     0.223 HD
ENDBRANCH   8  11
ENDBRANCH   7   8
ENDBRANCH   6   7
ENDBRANCH   5   6
BRANCH   5  13
HETATM   13  C           1     -26.029  -6.495 -16.332  0.00  0.00     0.198 C 
HETATM   14  O           1     -26.603  -7.464 -15.790  0.00  0.00    -0.646 OA
HETATM   15  O           1     -25.007  -6.002 -15.807  0.00  0.00    -0.646 OA
ENDBRANCH   5  13
ENDBRANCH   3   5
BRANCH   4  16
HETATM   16  C           1     -24.897  -7.963 -20.396  0.00  0.00     0.275 C 
BRANCH  16  17
HETATM   17  N           1     -26.205  -8.253 -21.073  0.00  0.00    -0.066 N 
HETATM   18  H           1     -26.625  -9.117 -20.660  0.00  0.00     0.275 HD
HETATM   19  H           1     -26.043  -8.396 -22.095  0.00  0.00     0.275 HD
HETATM   20  H           1     -26.856  -7.447 -20.932  0.00  0.00     0.275 HD
ENDBRANCH  16  17
BRANCH  16  21
HETATM   21  C           1     -23.924  -7.372 -21.406  0.00  0.00     0.053 C 
BRANCH  21  22
HETATM   22  C           1     -23.410  -8.474 -22.323  0.00  0.00     0.115 C 
BRANCH  22  23
HETATM   23  C           1     -21.989  -8.818 -21.950  0.00  0.00     0.172 C 
HETATM   24  O           1     -21.543  -8.498 -20.826  0.00  0.00    -0.648 OA
HETATM   25  O           1     -21.258  -9.422 -22.765  0.00  0.00    -0.648 OA
ENDBRANCH  22  23
ENDBRANCH  21  22
ENDBRANCH  16  21
ENDBRANCH   4  16
TORSDOF 11
ENDMDL
MODEL 4
REMARK VINA RESULT:      -6.2      2.088      3.844
REMARK  11 active torsions:
REMARK  status: ('A' for Active; 'I' for Inactive)
REMARK    1  A    between atoms: C_2  and  C_3 
REMARK    2  A    between atoms: C_2  and  O_15 
REMARK    3  A    between atoms: C_3  and  C_10 
REMARK    4  A    between atoms: C_3  and  N_19 
REMARK    5  A    between atoms: O_7  and  P_14 
REMARK    6  A    between atoms: P_14  and  O_15 
REMARK    7  A    between atoms: N_16  and  C_21 
REMARK       I    between atoms: N_19  and  C_20 
REMARK    8  A    between atoms: C_20  and  C_21 
REMARK    9  A    between atoms: C_21  and  C_22 
REMARK   10  A    between atoms: C_22  and  C_23 
REMARK   11  A    between atoms: C_23  and  C_24 
ROOT
HETATM    1  O           1     -28.443  -7.032 -16.823  0.00  0.00    -0.271 OA
HETATM    2  H           1     -26.468  -4.843 -17.892  0.00  0.00     0.163 HD
HETATM    3  N           1     -26.779  -5.758 -17.592  0.00  0.00    -0.343 N 
HETATM    4  C           1     -28.072  -5.940 -17.180  0.00  0.00     0.249 C 
ENDROOT
BRANCH   3   5
HETATM    5  C           1     -25.856  -6.875 -17.598  0.00  0.00     0.210 C 
BRANCH   5   6
HETATM    6  C           1     -24.870  -6.713 -18.749  0.00  0.00     0.217 C 
BRANCH   6   7
HETATM    7  O           1     -25.570  -6.700 -19.964  0.00  0.00    -0.287 OA
BRANCH   7   8
HETATM    8  P           1     -25.030  -7.713 -21.102  0.00  0.00     0.406 P 
HETATM    9  O           1     -26.130  -8.604 -21.531  0.00  0.00    -0.624 OA
HETATM   10  O           1     -24.542  -6.936 -22.263  0.00  0.00    -0.624 OA
BRANCH   8  11
HETATM   11  O           1     -23.820  -8.598 -20.502  0.00  0.00    -0.300 OA
HETATM   12  H           1     -24.217  -9.414 -20.248  0.00  0.00     0.223 HD
ENDBRANCH   8  11
ENDBRANCH   7   8
ENDBRANCH   6   7
ENDBRANCH   5   6
BRANCH   5  13
HETATM   13  C           1     -25.101  -6.910 -16.292  0.00  0.00     0.198 C 
HETATM   14  O           1     -25.059  -5.893 -15.567  0.00  0.00    -0.646 OA
HETATM   15  O           1     -24.518  -7.957 -15.935  0.00  0.00    -0.646 OA
ENDBRANCH   5  13
ENDBRANCH   3   5
BRANCH   4  16
HETATM   16  C           1     -29.033  -4.777 -17.175  0.00  0.00     0.275 C 
BRANCH  16  17
HETATM   17  N           1     -29.485  -4.494 -18.577  0.00  0.00    -0.066 N 
HETATM   18  H           1     -28.667  -4.182 -19.148  0.00  0.00     0.275 HD
HETATM   19  H           1     -30.210  -3.742 -18.564  0.00  0.00     0.275 HD
HETATM   20  H           1     -29.890  -5.362 -18.995  0.00  0.00     0.275 HD
ENDBRANCH  16  17
BRANCH  16  21
HETATM   21  C           1     -30.241  -5.120 -16.313  0.00  0.00     0.053 C 
BRANCH  21  22
HETATM   22  C           1     -31.474  -5.259 -17.196  0.00  0.00     0.115 C 
BRANCH  22  23
HETATM   23  C           1     -32.355  -4.046 -17.025  0.00  0.00     0.172 C 
HETATM   24  O           1     -32.164  -3.030 -17.728  0.00  0.00    -0.648 OA
HETATM   25  O           1     -33.276  -4.058 -16.180  0.00  0.00    -0.648 OA
ENDBRANCH  22  23
ENDBRANCH  21  22
ENDBRANCH  16  21
ENDBRANCH   4  16
TORSDOF 11
ENDMDL
MODEL 5
REMARK VINA RESULT:      -6.0     12.807     14.846
REMARK  11 active torsions:
REMARK  status: ('A' for Active; 'I' for Inactive)
REMARK    1  A    between atoms: C_2  and  C_3 
REMARK    2  A    between atoms: C_2  and  O_15 
REMARK    3  A    between atoms: C_3  and  C_10 
REMARK    4  A    between atoms: C_3  and  N_19 
REMARK    5  A    between atoms: O_7  and  P_14 
REMARK    6  A    between atoms: P_14  and  O_15 
REMARK    7  A    between atoms: N_16  and  C_21 
REMARK       I    between atoms: N_19  and  C_20 
REMARK    8  A    between atoms: C_20  and  C_21 
REMARK    9  A    between atoms: C_21  and  C_22 
REMARK   10  A    between atoms: C_22  and  C_23 
REMARK   11  A    between atoms: C_23  and  C_24 
ROOT
HETATM    1  O           1     -21.070  -8.022  -6.133  0.00  0.00    -0.271 OA
HETATM    2  H           1     -21.924  -5.170  -5.144  0.00  0.00     0.163 HD
HETATM    3  N           1     -21.575  -5.876  -5.780  0.00  0.00    -0.343 N 
HETATM    4  C           1     -21.486  -7.181  -5.374  0.00  0.00     0.249 C 
ENDROOT
BRANCH   3   5
HETATM    5  C           1     -21.166  -5.505  -7.121  0.00  0.00     0.210 C 
BRANCH   5   6
HETATM    6  C           1     -22.213  -4.582  -7.733  0.00  0.00     0.217 C 
BRANCH   6   7
HETATM    7  O           1     -22.326  -4.848  -9.105  0.00  0.00    -0.287 OA
BRANCH   7   8
HETATM    8  P           1     -23.512  -4.072  -9.880  0.00  0.00     0.406 P 
HETATM    9  O           1     -22.927  -3.130 -10.860  0.00  0.00    -0.624 OA
HETATM   10  O           1     -24.365  -5.054 -10.587  0.00  0.00    -0.624 OA
BRANCH   8  11
HETATM   11  O           1     -24.407  -3.255  -8.813  0.00  0.00    -0.300 OA
HETATM   12  H           1     -23.803  -2.679  -8.377  0.00  0.00     0.223 HD
ENDBRANCH   8  11
ENDBRANCH   7   8
ENDBRANCH   6   7
ENDBRANCH   5   6
BRANCH   5  13
HETATM   13  C           1     -19.839  -4.790  -7.062  0.00  0.00     0.198 C 
HETATM   14  O           1     -19.323  -4.519  -5.956  0.00  0.00    -0.646 OA
HETATM   15  O           1     -19.255  -4.468  -8.120  0.00  0.00    -0.646 OA
ENDBRANCH   5  13
ENDBRANCH   3   5
BRANCH   4  16
HETATM   16  C           1     -21.912  -7.567  -3.978  0.00  0.00     0.275 C 
BRANCH  16  17
HETATM   17  N           1     -21.500  -8.983  -3.704  0.00  0.00    -0.066 N 
HETATM   18  H           1     -21.361  -9.111  -2.676  0.00  0.00     0.275 HD
HETATM   19  H           1     -20.608  -9.189  -4.206  0.00  0.00     0.275 HD
HETATM   20  H           1     -22.246  -9.634  -4.039  0.00  0.00     0.275 HD
ENDBRANCH  16  17
BRANCH  16  21
HETATM   21  C           1     -21.246  -6.640  -2.970  0.00  0.00     0.053 C 
BRANCH  21  22
HETATM   22  C           1     -22.253  -6.248  -1.897  0.00  0.00     0.115 C 
BRANCH  22  23
HETATM   23  C           1     -22.223  -7.263  -0.782  0.00  0.00     0.172 C 
HETATM   24  O           1     -21.210  -7.978  -0.615  0.00  0.00    -0.648 OA
HETATM   25  O           1     -23.209  -7.391  -0.025  0.00  0.00    -0.648 OA
ENDBRANCH  22  23
ENDBRANCH  21  22
ENDBRANCH  16  21
ENDBRANCH   4  16
TORSDOF 11
ENDMDL
MODEL 6
REMARK VINA RESULT:      -5.9      2.506      5.594
REMARK  11 active torsions:
REMARK  status: ('A' for Active; 'I' for Inactive)
REMARK    1  A    between atoms: C_2  and  C_3 
REMARK    2  A    between atoms: C_2  and  O_15 
REMARK    3  A    between atoms: C_3  and  C_10 
REMARK    4  A    between atoms: C_3  and  N_19 
REMARK    5  A    between atoms: O_7  and  P_14 
REMARK    6  A    between atoms: P_14  and  O_15 
REMARK    7  A    between atoms: N_16  and  C_21 
REMARK       I    between atoms: N_19  and  C_20 
REMARK    8  A    between atoms: C_20  and  C_21 
REMARK    9  A    between atoms: C_21  and  C_22 
REMARK   10  A    between atoms: C_22  and  C_23 
REMARK   11  A    between atoms: C_23  and  C_24 
ROOT
HETATM    1  O           1     -24.731  -6.877 -17.221  0.00  0.00    -0.271 OA
HETATM    2  H           1     -27.513  -5.934 -18.323  0.00  0.00     0.163 HD
HETATM    3  N           1     -26.813  -6.182 -17.636  0.00  0.00    -0.343 N 
HETATM    4  C           1     -25.567  -6.581 -18.041  0.00  0.00     0.249 C 
ENDROOT
BRANCH   3   5
HETATM    5  C           1     -27.128  -6.116 -16.222  0.00  0.00     0.210 C 
BRANCH   5   6
HETATM    6  C           1     -27.926  -4.848 -15.940  0.00  0.00     0.217 C 
BRANCH   6   7
HETATM    7  O           1     -28.408  -4.322 -17.147  0.00  0.00    -0.287 OA
BRANCH   7   8
HETATM    8  P           1     -29.947  -4.662 -17.503  0.00  0.00     0.406 P 
HETATM    9  O           1     -30.687  -4.963 -16.257  0.00  0.00    -0.624 OA
HETATM   10  O           1     -30.567  -3.499 -18.177  0.00  0.00    -0.624 OA
BRANCH   8  11
HETATM   11  O           1     -30.000  -5.943 -18.485  0.00  0.00    -0.300 OA
HETATM   12  H           1     -29.883  -6.688 -17.921  0.00  0.00     0.223 HD
ENDBRANCH   8  11
ENDBRANCH   7   8
ENDBRANCH   6   7
ENDBRANCH   5   6
BRANCH   5  13
HETATM   13  C           1     -27.945  -7.322 -15.832  0.00  0.00     0.198 C 
HETATM   14  O           1     -27.766  -7.868 -14.722  0.00  0.00    -0.646 OA
HETATM   15  O           1     -28.803  -7.777 -16.621  0.00  0.00    -0.646 OA
ENDBRANCH   5  13
ENDBRANCH   3   5
BRANCH   4  16
HETATM   16  C           1     -25.239  -6.651 -19.513  0.00  0.00     0.275 C 
BRANCH  16  17
HETATM   17  N           1     -24.342  -7.825 -19.770  0.00  0.00    -0.066 N 
HETATM   18  H           1     -23.970  -7.770 -20.745  0.00  0.00     0.275 HD
HETATM   19  H           1     -24.884  -8.710 -19.652  0.00  0.00     0.275 HD
HETATM   20  H           1     -23.546  -7.811 -19.092  0.00  0.00     0.275 HD
ENDBRANCH  16  17
BRANCH  16  21
HETATM   21  C           1     -26.524  -6.809 -20.313  0.00  0.00     0.053 C 
BRANCH  21  22
HETATM   22  C           1     -26.510  -8.148 -21.038  0.00  0.00     0.115 C 
BRANCH  22  23
HETATM   23  C           1     -27.854  -8.817 -20.887  0.00  0.00     0.172 C 
HETATM   24  O           1     -28.656  -8.418 -20.014  0.00  0.00    -0.648 OA
HETATM   25  O           1     -28.166  -9.770 -21.634  0.00  0.00    -0.648 OA
ENDBRANCH  22  23
ENDBRANCH  21  22
ENDBRANCH  16  21
ENDBRANCH   4  16
TORSDOF 11
ENDMDL
MODEL 7
REMARK VINA RESULT:      -5.8     12.178     14.331
REMARK  11 active torsions:
REMARK  status: ('A' for Active; 'I' for Inactive)
REMARK    1  A    between atoms: C_2  and  C_3 
REMARK    2  A    between atoms: C_2  and  O_15 
REMARK    3  A    between atoms: C_3  and  C_10 
REMARK    4  A    between atoms: C_3  and  N_19 
REMARK    5  A    between atoms: O_7  and  P_14 
REMARK    6  A    between atoms: P_14  and  O_15 
REMARK    7  A    between atoms: N_16  and  C_21 
REMARK       I    between atoms: N_19  and  C_20 
REMARK    8  A    between atoms: C_20  and  C_21 
REMARK    9  A    between atoms: C_21  and  C_22 
REMARK   10  A    between atoms: C_22  and  C_23 
REMARK   11  A    between atoms: C_23  and  C_24 
ROOT
HETATM    1  O           1     -21.165  -7.183  -6.764  0.00  0.00    -0.271 OA
HETATM    2  H           1     -21.255  -4.152  -5.964  0.00  0.00     0.163 HD
HETATM    3  N           1     -21.283  -4.962  -6.569  0.00  0.00    -0.343 N 
HETATM    4  C           1     -21.131  -6.216  -6.041  0.00  0.00     0.249 C 
ENDROOT
BRANCH   3   5
HETATM    5  C           1     -21.482  -4.795  -7.995  0.00  0.00     0.210 C 
BRANCH   5   6
HETATM    6  C           1     -22.520  -3.705  -8.238  0.00  0.00     0.217 C 
BRANCH   6   7
HETATM    7  O           1     -23.650  -4.263  -8.852  0.00  0.00    -0.287 OA
BRANCH   7   8
HETATM    8  P           1     -23.798  -3.993 -10.438  0.00  0.00     0.406 P 
HETATM    9  O           1     -23.835  -5.286 -11.157  0.00  0.00    -0.624 OA
HETATM   10  O           1     -25.051  -3.248 -10.697  0.00  0.00    -0.624 OA
BRANCH   8  11
HETATM   11  O           1     -22.540  -3.122 -10.954  0.00  0.00    -0.300 OA
HETATM   12  H           1     -21.789  -3.672 -10.814  0.00  0.00     0.223 HD
ENDBRANCH   8  11
ENDBRANCH   7   8
ENDBRANCH   6   7
ENDBRANCH   5   6
BRANCH   5  13
HETATM   13  C           1     -20.178  -4.400  -8.642  0.00  0.00     0.198 C 
HETATM   14  O           1     -20.122  -4.221  -9.878  0.00  0.00    -0.646 OA
HETATM   15  O           1     -19.153  -4.252  -7.942  0.00  0.00    -0.646 OA
ENDBRANCH   5  13
ENDBRANCH   3   5
BRANCH   4  16
HETATM   16  C           1     -20.923  -6.390  -4.557  0.00  0.00     0.275 C 
BRANCH  16  17
HETATM   17  N           1     -22.226  -6.185  -3.842  0.00  0.00    -0.066 N 
HETATM   18  H           1     -23.000  -6.610  -4.401  0.00  0.00     0.275 HD
HETATM   19  H           1     -22.401  -5.161  -3.725  0.00  0.00     0.275 HD
HETATM   20  H           1     -22.184  -6.640  -2.902  0.00  0.00     0.275 HD
ENDBRANCH  16  17
BRANCH  16  21
HETATM   21  C           1     -20.407  -7.795  -4.277  0.00  0.00     0.053 C 
BRANCH  21  22
HETATM   22  C           1     -21.391  -8.528  -3.375  0.00  0.00     0.115 C 
BRANCH  22  23
HETATM   23  C           1     -20.810  -8.648  -1.988  0.00  0.00     0.172 C 
HETATM   24  O           1     -21.058  -7.773  -1.129  0.00  0.00    -0.648 OA
HETATM   25  O           1     -20.082  -9.621  -1.697  0.00  0.00    -0.648 OA
ENDBRANCH  22  23
ENDBRANCH  21  22
ENDBRANCH  16  21
ENDBRANCH   4  16
TORSDOF 11
ENDMDL
MODEL 8
REMARK VINA RESULT:      -5.8      2.117      3.875
REMARK  11 active torsions:
REMARK  status: ('A' for Active; 'I' for Inactive)
REMARK    1  A    between atoms: C_2  and  C_3 
REMARK    2  A    between atoms: C_2  and  O_15 
REMARK    3  A    between atoms: C_3  and  C_10 
REMARK    4  A    between atoms: C_3  and  N_19 
REMARK    5  A    between atoms: O_7  and  P_14 
REMARK    6  A    between atoms: P_14  and  O_15 
REMARK    7  A    between atoms: N_16  and  C_21 
REMARK       I    between atoms: N_19  and  C_20 
REMARK    8  A    between atoms: C_20  and  C_21 
REMARK    9  A    between atoms: C_21  and  C_22 
REMARK   10  A    between atoms: C_22  and  C_23 
REMARK   11  A    between atoms: C_23  and  C_24 
ROOT
HETATM    1  O           1     -29.037  -7.867 -17.212  0.00  0.00    -0.271 OA
HETATM    2  H           1     -27.750  -5.070 -17.812  0.00  0.00     0.163 HD
HETATM    3  N           1     -27.786  -6.064 -17.626  0.00  0.00    -0.343 N 
HETATM    4  C           1     -28.994  -6.681 -17.435  0.00  0.00     0.249 C 
ENDROOT
BRANCH   3   5
HETATM    5  C           1     -26.560  -6.834 -17.558  0.00  0.00     0.210 C 
BRANCH   5   6
HETATM    6  C           1     -25.607  -6.366 -18.652  0.00  0.00     0.217 C 
BRANCH   6   7
HETATM    7  O           1     -24.884  -7.463 -19.142  0.00  0.00    -0.287 OA
BRANCH   7   8
HETATM    8  P           1     -24.848  -7.624 -20.749  0.00  0.00     0.406 P 
HETATM    9  O           1     -25.017  -6.297 -21.382  0.00  0.00    -0.624 OA
HETATM   10  O           1     -23.548  -8.204 -21.158  0.00  0.00    -0.624 OA
BRANCH   8  11
HETATM   11  O           1     -26.043  -8.603 -21.218  0.00  0.00    -0.300 OA
HETATM   12  H           1     -26.814  -8.063 -21.221  0.00  0.00     0.223 HD
ENDBRANCH   8  11
ENDBRANCH   7   8
ENDBRANCH   6   7
ENDBRANCH   5   6
BRANCH   5  13
HETATM   13  C           1     -25.914  -6.634 -16.209  0.00  0.00     0.198 C 
HETATM   14  O           1     -26.103  -7.465 -15.295  0.00  0.00    -0.646 OA
HETATM   15  O           1     -25.190  -5.635 -16.005  0.00  0.00    -0.646 OA
ENDBRANCH   5  13
ENDBRANCH   3   5
BRANCH   4  16
HETATM   16  C           1     -30.270  -5.879 -17.505  0.00  0.00     0.275 C 
BRANCH  16  17
HETATM   17  N           1     -30.727  -5.544 -16.116  0.00  0.00    -0.066 N 
HETATM   18  H           1     -31.713  -5.198 -16.149  0.00  0.00     0.275 HD
HETATM   19  H           1     -30.109  -4.803 -15.716  0.00  0.00     0.275 HD
HETATM   20  H           1     -30.678  -6.400 -15.518  0.00  0.00     0.275 HD
ENDBRANCH  16  17
BRANCH  16  21
HETATM   21  C           1     -30.021  -4.594 -18.281  0.00  0.00     0.053 C 
BRANCH  21  22
HETATM   22  C           1     -30.396  -3.397 -17.418  0.00  0.00     0.115 C 
BRANCH  22  23
HETATM   23  C           1     -29.164  -2.573 -17.135  0.00  0.00     0.172 C 
HETATM   24  O           1     -28.104  -3.135 -16.782  0.00  0.00    -0.648 OA
HETATM   25  O           1     -29.203  -1.329 -17.255  0.00  0.00    -0.648 OA
ENDBRANCH  22  23
ENDBRANCH  21  22
ENDBRANCH  16  21
ENDBRANCH   4  16
TORSDOF 11
ENDMDL
MODEL 9
REMARK VINA RESULT:      -5.4     12.591     14.579
REMARK  11 active torsions:
REMARK  status: ('A' for Active; 'I' for Inactive)
REMARK    1  A    between atoms: C_2  and  C_3 
REMARK    2  A    between atoms: C_2  and  O_15 
REMARK    3  A    between atoms: C_3  and  C_10 
REMARK    4  A    between atoms: C_3  and  N_19 
REMARK    5  A    between atoms: O_7  and  P_14 
REMARK    6  A    between atoms: P_14  and  O_15 
REMARK    7  A    between atoms: N_16  and  C_21 
REMARK       I    between atoms: N_19  and  C_20 
REMARK    8  A    between atoms: C_20  and  C_21 
REMARK    9  A    between atoms: C_21  and  C_22 
REMARK   10  A    between atoms: C_22  and  C_23 
REMARK   11  A    between atoms: C_23  and  C_24 
ROOT
HETATM    1  O           1     -22.903  -5.208  -6.199  0.00  0.00    -0.271 OA
HETATM    2  H           1     -20.078  -6.074  -5.145  0.00  0.00     0.163 HD
HETATM    3  N           1     -21.086  -6.077  -5.235  0.00  0.00    -0.343 N 
HETATM    4  C           1     -21.700  -5.204  -6.093  0.00  0.00     0.249 C 
ENDROOT
BRANCH   3   5
HETATM    5  C           1     -21.880  -7.005  -4.454  0.00  0.00     0.210 C 
BRANCH   5   6
HETATM    6  C           1     -21.461  -8.433  -4.784  0.00  0.00     0.217 C 
BRANCH   6   7
HETATM    7  O           1     -20.310  -8.409  -5.584  0.00  0.00    -0.287 OA
BRANCH   7   8
HETATM    8  P           1     -19.137  -9.438  -5.166  0.00  0.00     0.406 P 
HETATM    9  O           1     -19.685 -10.811  -5.099  0.00  0.00    -0.624 OA
HETATM   10  O           1     -18.054  -9.388  -6.174  0.00  0.00    -0.624 OA
BRANCH   8  11
HETATM   11  O           1     -18.546  -9.021  -3.723  0.00  0.00    -0.300 OA
HETATM   12  H           1     -17.610  -9.062  -3.821  0.00  0.00     0.223 HD
ENDBRANCH   8  11
ENDBRANCH   7   8
ENDBRANCH   6   7
ENDBRANCH   5   6
BRANCH   5  13
HETATM   13  C           1     -21.659  -6.743  -2.985  0.00  0.00     0.198 C 
HETATM   14  O           1     -20.763  -7.359  -2.367  0.00  0.00    -0.646 OA
HETATM   15  O           1     -22.372  -5.910  -2.385  0.00  0.00    -0.646 OA
ENDBRANCH   5  13
ENDBRANCH   3   5
BRANCH   4  16
HETATM   16  C           1     -20.873  -4.238  -6.905  0.00  0.00     0.275 C 
BRANCH  16  17
HETATM   17  N           1     -19.684  -4.954  -7.475  0.00  0.00    -0.066 N 
HETATM   18  H           1     -19.235  -4.355  -8.204  0.00  0.00     0.275 HD
HETATM   19  H           1     -19.993  -5.855  -7.902  0.00  0.00     0.275 HD
HETATM   20  H           1     -18.996  -5.148  -6.712  0.00  0.00     0.275 HD
ENDBRANCH  16  17
BRANCH  16  21
HETATM   21  C           1     -21.718  -3.676  -8.040  0.00  0.00     0.053 C 
BRANCH  21  22
HETATM   22  C           1     -21.318  -4.342  -9.350  0.00  0.00     0.115 C 
BRANCH  22  23
HETATM   23  C           1     -22.424  -4.169 -10.361  0.00  0.00     0.172 C 
HETATM   24  O           1     -23.388  -4.967 -10.376  0.00  0.00    -0.648 OA
HETATM   25  O           1     -22.378  -3.230 -11.184  0.00  0.00    -0.648 OA
ENDBRANCH  22  23
ENDBRANCH  21  22
ENDBRANCH  16  21
ENDBRANCH   4  16
TORSDOF 11
ENDMDL
