MODEL 1
REMARK VINA RESULT:      -6.1      0.000      0.000
REMARK  5 active torsions:
REMARK  status: ('A' for Active; 'I' for Inactive)
REMARK    1  A    between atoms: N_3  and  C_6 
REMARK    2  A    between atoms: S_4  and  C_5 
REMARK    3  A    between atoms: C_5  and  C_6 
REMARK    4  A    between atoms: C_6  and  C_7 
REMARK       I    between atoms: C_7  and  N_8 
REMARK    5  A    between atoms: C_14  and  C_18 
ROOT
HETATM    1  C           1     -34.935  -1.763 -10.917  0.00  0.00     0.127 C 
HETATM    2  O           1     -35.100  -1.716 -14.525  0.00  0.00    -0.271 OA
HETATM    3  C           1     -35.268  -1.327 -13.395  0.00  0.00     0.252 C 
HETATM    4  N           1     -34.820  -2.075 -12.339  0.00  0.00    -0.336 N 
HETATM    5  C           1     -33.057  -3.230 -11.315  0.00  0.00     0.038 C 
HETATM    6  C           1     -33.593  -2.186 -10.343  0.00  0.00     0.022 C 
HETATM    7  C           1     -34.122  -3.356 -12.389  0.00  0.00     0.188 C 
ENDROOT
BRANCH   3   8
HETATM    8  C           1     -35.974  -0.017 -13.145  0.00  0.00     0.283 C 
BRANCH   8   9
HETATM    9  N           1     -35.562   0.979 -14.189  0.00  0.00    -0.066 N 
HETATM   10  H           1     -36.216   0.923 -15.002  0.00  0.00     0.275 HD
HETATM   11  H           1     -35.594   1.942 -13.783  0.00  0.00     0.275 HD
HETATM   12  H           1     -34.589   0.766 -14.507  0.00  0.00     0.275 HD
ENDBRANCH   8   9
BRANCH   8  13
HETATM   13  C           1     -37.480  -0.229 -13.214  0.00  0.00     0.113 C 
BRANCH  13  14
HETATM   14  S           1     -38.075   0.181 -14.878  0.00  0.00    -0.180 SA
HETATM   15  H           1     -38.072   1.515 -14.704  0.00  0.00     0.101 HD
ENDBRANCH  13  14
ENDBRANCH   8  13
ENDBRANCH   3   8
BRANCH   7  16
HETATM   16  C           1     -35.064  -4.493 -12.081  0.00  0.00     0.196 C 
HETATM   17  O           1     -35.771  -4.457 -11.050  0.00  0.00    -0.646 OA
HETATM   18  O           1     -35.138  -5.471 -12.855  0.00  0.00    -0.646 OA
ENDBRANCH   7  16
TORSDOF 5
ENDMDL
MODEL 2
REMARK VINA RESULT:      -5.9     13.380     14.975
REMARK  5 active torsions:
REMARK  status: ('A' for Active; 'I' for Inactive)
REMARK    1  A    between atoms: N_3  and  C_6 
REMARK    2  A    between atoms: S_4  and  C_5 
REMARK    3  A    between atoms: C_5  and  C_6 
REMARK    4  A    between atoms: C_6  and  C_7 
REMARK       I    between atoms: C_7  and  N_8 
REMARK    5  A    between atoms: C_14  and  C_18 
ROOT
HETATM    1  C           1     -20.495  -4.939 -10.215  0.00  0.00     0.127 C 
HETATM    2  O           1     -22.570  -4.137  -7.369  0.00  0.00    -0.271 OA
HETATM    3  C           1     -21.642  -4.617  -7.974  0.00  0.00     0.252 C 
HETATM    4  N           1     -21.539  -4.436  -9.327  0.00  0.00    -0.336 N 
HETATM    5  C           1     -21.523  -2.964 -11.151  0.00  0.00     0.038 C 
HETATM    6  C           1     -20.238  -3.783 -11.167  0.00  0.00     0.022 C 
HETATM    7  C           1     -22.450  -3.697 -10.198  0.00  0.00     0.188 C 
ENDROOT
BRANCH   3   8
HETATM    8  C           1     -20.596  -5.418  -7.238  0.00  0.00     0.283 C 
BRANCH   8   9
HETATM    9  N           1     -19.855  -4.521  -6.291  0.00  0.00    -0.066 N 
HETATM   10  H           1     -19.780  -3.564  -6.703  0.00  0.00     0.275 HD
HETATM   11  H           1     -20.372  -4.471  -5.384  0.00  0.00     0.275 HD
HETATM   12  H           1     -18.897  -4.906  -6.127  0.00  0.00     0.275 HD
ENDBRANCH   8   9
BRANCH   8  13
HETATM   13  C           1     -21.269  -6.537  -6.455  0.00  0.00     0.113 C 
BRANCH  13  14
HETATM   14  S           1     -21.185  -6.169  -4.680  0.00  0.00    -0.180 SA
HETATM   15  H           1     -21.807  -4.979  -4.753  0.00  0.00     0.101 HD
ENDBRANCH  13  14
ENDBRANCH   8  13
ENDBRANCH   3   8
BRANCH   7  16
HETATM   16  C           1     -23.357  -4.640 -10.949  0.00  0.00     0.196 C 
HETATM   17  O           1     -24.045  -5.475 -10.324  0.00  0.00    -0.646 OA
HETATM   18  O           1     -23.420  -4.586 -12.196  0.00  0.00    -0.646 OA
ENDBRANCH   7  16
TORSDOF 5
ENDMDL
MODEL 3
REMARK VINA RESULT:      -5.6      2.088      2.550
REMARK  5 active torsions:
REMARK  status: ('A' for Active; 'I' for Inactive)
REMARK    1  A    between atoms: N_3  and  C_6 
REMARK    2  A    between atoms: S_4  and  C_5 
REMARK    3  A    between atoms: C_5  and  C_6 
REMARK    4  A    between atoms: C_6  and  C_7 
REMARK       I    between atoms: C_7  and  N_8 
REMARK    5  A    between atoms: C_14  and  C_18 
ROOT
HETATM    1  C           1     -35.496  -3.871 -10.858  0.00  0.00     0.127 C 
HETATM    2  O           1     -34.570  -0.606 -12.094  0.00  0.00    -0.271 OA
HETATM    3  C           1     -35.188  -1.425 -11.456  0.00  0.00     0.252 C 
HETATM    4  N           1     -34.863  -2.752 -11.549  0.00  0.00    -0.336 N 
HETATM    5  C           1     -33.218  -4.418 -11.451  0.00  0.00     0.038 C 
HETATM    6  C           1     -34.329  -4.762 -10.465  0.00  0.00     0.022 C 
HETATM    7  C           1     -33.809  -3.355 -12.359  0.00  0.00     0.188 C 
ENDROOT
BRANCH   3   8
HETATM    8  C           1     -36.318  -0.985 -10.558  0.00  0.00     0.283 C 
BRANCH   8   9
HETATM    9  N           1     -35.770  -0.609  -9.213  0.00  0.00    -0.066 N 
HETATM   10  H           1     -36.380   0.121  -8.780  0.00  0.00     0.275 HD
HETATM   11  H           1     -35.747  -1.453  -8.598  0.00  0.00     0.275 HD
HETATM   12  H           1     -34.801  -0.232  -9.326  0.00  0.00     0.275 HD
ENDBRANCH   8   9
BRANCH   8  13
HETATM   13  C           1     -37.019   0.218 -11.175  0.00  0.00     0.113 C 
BRANCH  13  14
HETATM   14  S           1     -37.963  -0.313 -12.631  0.00  0.00    -0.180 SA
HETATM   15  H           1     -38.316   0.923 -13.028  0.00  0.00     0.101 HD
ENDBRANCH  13  14
ENDBRANCH   8  13
ENDBRANCH   3   8
BRANCH   7  16
HETATM   16  C           1     -34.383  -3.975 -13.610  0.00  0.00     0.196 C 
HETATM   17  O           1     -34.329  -3.358 -14.695  0.00  0.00    -0.646 OA
HETATM   18  O           1     -34.912  -5.107 -13.560  0.00  0.00    -0.646 OA
ENDBRANCH   7  16
TORSDOF 5
ENDMDL
MODEL 4
REMARK VINA RESULT:      -5.5     13.296     14.888
REMARK  5 active torsions:
REMARK  status: ('A' for Active; 'I' for Inactive)
REMARK    1  A    between atoms: N_3  and  C_6 
REMARK    2  A    between atoms: S_4  and  C_5 
REMARK    3  A    between atoms: C_5  and  C_6 
REMARK    4  A    between atoms: C_6  and  C_7 
REMARK       I    between atoms: C_7  and  N_8 
REMARK    5  A    between atoms: C_14  and  C_18 
ROOT
HETATM    1  C           1     -23.338  -3.528  -8.810  0.00  0.00     0.127 C 
HETATM    2  O           1     -20.633  -5.841  -8.193  0.00  0.00    -0.271 OA
HETATM    3  C           1     -21.520  -5.065  -7.930  0.00  0.00     0.252 C 
HETATM    4  N           1     -22.241  -4.482  -8.938  0.00  0.00    -0.336 N 
HETATM    5  C           1     -23.504  -4.736 -10.896  0.00  0.00     0.038 C 
HETATM    6  C           1     -24.333  -3.974  -9.868  0.00  0.00     0.022 C 
HETATM    7  C           1     -22.079  -4.680 -10.376  0.00  0.00     0.188 C 
ENDROOT
BRANCH   3   8
HETATM    8  C           1     -21.834  -4.736  -6.491  0.00  0.00     0.283 C 
BRANCH   8   9
HETATM    9  N           1     -23.059  -5.488  -6.063  0.00  0.00    -0.066 N 
HETATM   10  H           1     -23.707  -5.592  -6.875  0.00  0.00     0.275 HD
HETATM   11  H           1     -22.783  -6.434  -5.714  0.00  0.00     0.275 HD
HETATM   12  H           1     -23.540  -4.960  -5.298  0.00  0.00     0.275 HD
ENDBRANCH   8   9
BRANCH   8  13
HETATM   13  C           1     -20.659  -5.138  -5.610  0.00  0.00     0.113 C 
BRANCH  13  14
HETATM   14  S           1     -21.246  -6.212  -4.270  0.00  0.00    -0.180 SA
HETATM   15  H           1     -20.556  -5.603  -3.289  0.00  0.00     0.101 HD
ENDBRANCH  13  14
ENDBRANCH   8  13
ENDBRANCH   3   8
BRANCH   7  16
HETATM   16  C           1     -21.327  -3.528 -10.995  0.00  0.00     0.196 C 
HETATM   17  O           1     -20.140  -3.308 -10.667  0.00  0.00    -0.646 OA
HETATM   18  O           1     -21.890  -2.792 -11.834  0.00  0.00    -0.646 OA
ENDBRANCH   7  16
TORSDOF 5
ENDMDL
MODEL 5
REMARK VINA RESULT:      -4.9     19.070     20.390
REMARK  5 active torsions:
REMARK  status: ('A' for Active; 'I' for Inactive)
REMARK    1  A    between atoms: N_3  and  C_6 
REMARK    2  A    between atoms: S_4  and  C_5 
REMARK    3  A    between atoms: C_5  and  C_6 
REMARK    4  A    between atoms: C_6  and  C_7 
REMARK       I    between atoms: C_7  and  N_8 
REMARK    5  A    between atoms: C_14  and  C_18 
ROOT
HETATM    1  C           1     -21.932  -9.848  -2.174  0.00  0.00     0.127 C 
HETATM    2  O           1     -20.844 -10.385   1.228  0.00  0.00    -0.271 OA
HETATM    3  C           1     -21.276 -10.667   0.137  0.00  0.00     0.252 C 
HETATM    4  N           1     -21.428  -9.692  -0.812  0.00  0.00    -0.336 N 
HETATM    5  C           1     -20.491  -7.915  -2.019  0.00  0.00     0.038 C 
HETATM    6  C           1     -21.028  -8.950  -3.001  0.00  0.00     0.022 C 
HETATM    7  C           1     -21.121  -8.271  -0.685  0.00  0.00     0.188 C 
ENDROOT
BRANCH   3   8
HETATM    8  C           1     -21.651 -12.094  -0.181  0.00  0.00     0.283 C 
BRANCH   8   9
HETATM    9  N           1     -20.632 -13.022   0.412  0.00  0.00    -0.066 N 
HETATM   10  H           1     -21.012 -13.443   1.289  0.00  0.00     0.275 HD
HETATM   11  H           1     -20.412 -13.781  -0.272  0.00  0.00     0.275 HD
HETATM   12  H           1     -19.761 -12.486   0.631  0.00  0.00     0.275 HD
ENDBRANCH   8   9
BRANCH   8  13
HETATM   13  C           1     -23.021 -12.403   0.407  0.00  0.00     0.113 C 
BRANCH  13  14
HETATM   14  S           1     -22.870 -13.744   1.621  0.00  0.00    -0.180 SA
HETATM   15  H           1     -22.025 -14.497   0.895  0.00  0.00     0.101 HD
ENDBRANCH  13  14
ENDBRANCH   8  13
ENDBRANCH   3   8
BRANCH   7  16
HETATM   16  C           1     -22.378  -7.468  -0.453  0.00  0.00     0.196 C 
HETATM   17  O           1     -23.199  -7.831   0.416  0.00  0.00    -0.646 OA
HETATM   18  O           1     -22.598  -6.442  -1.131  0.00  0.00    -0.646 OA
ENDBRANCH   7  16
TORSDOF 5
ENDMDL
MODEL 6
REMARK VINA RESULT:      -4.9     15.324     16.312
REMARK  5 active torsions:
REMARK  status: ('A' for Active; 'I' for Inactive)
REMARK    1  A    between atoms: N_3  and  C_6 
REMARK    2  A    between atoms: S_4  and  C_5 
REMARK    3  A    between atoms: C_5  and  C_6 
REMARK    4  A    between atoms: C_6  and  C_7 
REMARK       I    between atoms: C_7  and  N_8 
REMARK    5  A    between atoms: C_14  and  C_18 
ROOT
HETATM    1  C           1     -22.340  -6.430  -4.659  0.00  0.00     0.127 C 
HETATM    2  O           1     -19.704  -6.488  -7.128  0.00  0.00    -0.271 OA
HETATM    3  C           1     -20.729  -6.133  -6.597  0.00  0.00     0.252 C 
HETATM    4  N           1     -21.139  -6.727  -5.434  0.00  0.00    -0.336 N 
HETATM    5  C           1     -20.634  -7.389  -3.243  0.00  0.00     0.038 C 
HETATM    6  C           1     -21.868  -6.495  -3.216  0.00  0.00     0.022 C 
HETATM    7  C           1     -20.469  -7.795  -4.697  0.00  0.00     0.188 C 
ENDROOT
BRANCH   3   8
HETATM    8  C           1     -21.558  -5.036  -7.217  0.00  0.00     0.283 C 
BRANCH   8   9
HETATM    9  N           1     -21.059  -3.703  -6.744  0.00  0.00    -0.066 N 
HETATM   10  H           1     -21.735  -2.958  -7.023  0.00  0.00     0.275 HD
HETATM   11  H           1     -20.966  -3.716  -5.703  0.00  0.00     0.275 HD
HETATM   12  H           1     -20.126  -3.509  -7.176  0.00  0.00     0.275 HD
ENDBRANCH   8   9
BRANCH   8  13
HETATM   13  C           1     -21.448  -5.109  -8.734  0.00  0.00     0.113 C 
BRANCH  13  14
HETATM   14  S           1     -22.911  -4.344  -9.486  0.00  0.00    -0.180 SA
HETATM   15  H           1     -23.613  -5.484  -9.620  0.00  0.00     0.101 HD
ENDBRANCH  13  14
ENDBRANCH   8  13
ENDBRANCH   3   8
BRANCH   7  16
HETATM   16  C           1     -21.130  -9.126  -4.961  0.00  0.00     0.196 C 
HETATM   17  O           1     -21.147  -9.596  -6.119  0.00  0.00    -0.646 OA
HETATM   18  O           1     -21.661  -9.757  -4.022  0.00  0.00    -0.646 OA
ENDBRANCH   7  16
TORSDOF 5
ENDMDL
MODEL 7
REMARK VINA RESULT:      -4.9     18.215     19.348
REMARK  5 active torsions:
REMARK  status: ('A' for Active; 'I' for Inactive)
REMARK    1  A    between atoms: N_3  and  C_6 
REMARK    2  A    between atoms: S_4  and  C_5 
REMARK    3  A    between atoms: C_5  and  C_6 
REMARK    4  A    between atoms: C_6  and  C_7 
REMARK       I    between atoms: C_7  and  N_8 
REMARK    5  A    between atoms: C_14  and  C_18 
ROOT
HETATM    1  C           1     -22.589 -10.398  -2.006  0.00  0.00     0.127 C 
HETATM    2  O           1     -22.030  -7.575   0.178  0.00  0.00    -0.271 OA
HETATM    3  C           1     -22.137  -8.177  -0.863  0.00  0.00     0.252 C 
HETATM    4  N           1     -22.424  -9.516  -0.854  0.00  0.00    -0.336 N 
HETATM    5  C           1     -23.796 -11.260  -0.099  0.00  0.00     0.038 C 
HETATM    6  C           1     -23.764 -11.281  -1.622  0.00  0.00     0.022 C 
HETATM    7  C           1     -22.634 -10.373   0.310  0.00  0.00     0.188 C 
ENDROOT
BRANCH   3   8
HETATM    8  C           1     -21.954  -7.454  -2.175  0.00  0.00     0.283 C 
BRANCH   8   9
HETATM    9  N           1     -22.342  -6.015  -2.010  0.00  0.00    -0.066 N 
HETATM   10  H           1     -21.806  -5.597  -1.217  0.00  0.00     0.275 HD
HETATM   11  H           1     -22.125  -5.493  -2.890  0.00  0.00     0.275 HD
HETATM   12  H           1     -23.366  -5.952  -1.811  0.00  0.00     0.275 HD
ENDBRANCH   8   9
BRANCH   8  13
HETATM   13  C           1     -20.495  -7.540  -2.603  0.00  0.00     0.113 C 
BRANCH  13  14
HETATM   14  S           1     -20.397  -8.213  -4.286  0.00  0.00    -0.180 SA
HETATM   15  H           1     -20.364  -7.023  -4.912  0.00  0.00     0.101 HD
ENDBRANCH  13  14
ENDBRANCH   8  13
ENDBRANCH   3   8
BRANCH   7  16
HETATM   16  C           1     -21.403 -11.197   0.598  0.00  0.00     0.196 C 
HETATM   17  O           1     -20.279 -10.652   0.628  0.00  0.00    -0.646 OA
HETATM   18  O           1     -21.508 -12.425   0.805  0.00  0.00    -0.646 OA
ENDBRANCH   7  16
TORSDOF 5
ENDMDL
MODEL 8
REMARK VINA RESULT:      -4.7     16.428     17.636
REMARK  5 active torsions:
REMARK  status: ('A' for Active; 'I' for Inactive)
REMARK    1  A    between atoms: N_3  and  C_6 
REMARK    2  A    between atoms: S_4  and  C_5 
REMARK    3  A    between atoms: C_5  and  C_6 
REMARK    4  A    between atoms: C_6  and  C_7 
REMARK       I    between atoms: C_7  and  N_8 
REMARK    5  A    between atoms: C_14  and  C_18 
ROOT
HETATM    1  C           1     -19.893  -8.156  -3.177  0.00  0.00     0.127 C 
HETATM    2  O           1     -22.651  -6.377  -4.687  0.00  0.00    -0.271 OA
HETATM    3  C           1     -21.515  -6.760  -4.541  0.00  0.00     0.252 C 
HETATM    4  N           1     -21.202  -7.598  -3.505  0.00  0.00    -0.336 N 
HETATM    5  C           1     -21.657  -9.570  -2.322  0.00  0.00     0.038 C 
HETATM    6  C           1     -20.200  -9.588  -2.772  0.00  0.00     0.022 C 
HETATM    7  C           1     -22.104  -8.129  -2.486  0.00  0.00     0.188 C 
ENDROOT
BRANCH   3   8
HETATM    8  C           1     -20.440  -6.314  -5.502  0.00  0.00     0.283 C 
BRANCH   8   9
HETATM    9  N           1     -20.799  -6.751  -6.891  0.00  0.00    -0.066 N 
HETATM   10  H           1     -20.436  -7.716  -7.058  0.00  0.00     0.275 HD
HETATM   11  H           1     -21.838  -6.747  -7.000  0.00  0.00     0.275 HD
HETATM   12  H           1     -20.373  -6.093  -7.583  0.00  0.00     0.275 HD
ENDBRANCH   8   9
BRANCH   8  13
HETATM   13  C           1     -20.321  -4.797  -5.463  0.00  0.00     0.113 C 
BRANCH  13  14
HETATM   14  S           1     -20.939  -4.100  -7.020  0.00  0.00    -0.180 SA
HETATM   15  H           1     -21.947  -3.399  -6.471  0.00  0.00     0.101 HD
ENDBRANCH  13  14
ENDBRANCH   8  13
ENDBRANCH   3   8
BRANCH   7  16
HETATM   16  C           1     -21.957  -7.369  -1.191  0.00  0.00     0.196 C 
HETATM   17  O           1     -21.467  -7.933  -0.188  0.00  0.00    -0.646 OA
HETATM   18  O           1     -22.326  -6.177  -1.120  0.00  0.00    -0.646 OA
ENDBRANCH   7  16
TORSDOF 5
ENDMDL
MODEL 9
REMARK VINA RESULT:      -4.7     18.611     19.509
REMARK  5 active torsions:
REMARK  status: ('A' for Active; 'I' for Inactive)
REMARK    1  A    between atoms: N_3  and  C_6 
REMARK    2  A    between atoms: S_4  and  C_5 
REMARK    3  A    between atoms: C_5  and  C_6 
REMARK    4  A    between atoms: C_6  and  C_7 
REMARK       I    between atoms: C_7  and  N_8 
REMARK    5  A    between atoms: C_14  and  C_18 
ROOT
HETATM    1  C           1     -21.833  -7.930  -1.656  0.00  0.00     0.127 C 
HETATM    2  O           1     -19.555 -10.705  -1.260  0.00  0.00    -0.271 OA
HETATM    3  C           1     -20.002  -9.686  -1.728  0.00  0.00     0.252 C 
HETATM    4  N           1     -21.152  -9.145  -1.219  0.00  0.00    -0.336 N 
HETATM    5  C           1     -22.357  -8.411   0.653  0.00  0.00     0.038 C 
HETATM    6  C           1     -22.276  -7.274  -0.358  0.00  0.00     0.022 C 
HETATM    7  C           1     -21.965  -9.658  -0.119  0.00  0.00     0.188 C 
ENDROOT
BRANCH   3   8
HETATM    8  C           1     -19.294  -9.008  -2.875  0.00  0.00     0.283 C 
BRANCH   8   9
HETATM    9  N           1     -17.838  -9.369  -2.848  0.00  0.00    -0.066 N 
HETATM   10  H           1     -17.477  -9.436  -3.825  0.00  0.00     0.275 HD
HETATM   11  H           1     -17.307  -8.633  -2.330  0.00  0.00     0.275 HD
HETATM   12  H           1     -17.718 -10.290  -2.367  0.00  0.00     0.275 HD
ENDBRANCH   8   9
BRANCH   8  13
HETATM   13  C           1     -19.905  -9.467  -4.192  0.00  0.00     0.113 C 
BRANCH  13  14
HETATM   14  S           1     -20.381  -8.018  -5.176  0.00  0.00    -0.180 SA
HETATM   15  H           1     -21.680  -8.347  -5.293  0.00  0.00     0.101 HD
ENDBRANCH  13  14
ENDBRANCH   8  13
ENDBRANCH   3   8
BRANCH   7  16
HETATM   16  C           1     -23.187 -10.372  -0.643  0.00  0.00     0.196 C 
HETATM   17  O           1     -24.237 -10.394   0.035  0.00  0.00    -0.646 OA
HETATM   18  O           1     -23.149 -10.942  -1.755  0.00  0.00    -0.646 OA
ENDBRANCH   7  16
TORSDOF 5
ENDMDL
