MODEL 1
REMARK VINA RESULT:      -6.1      0.000      0.000
REMARK  9 active torsions:
REMARK  status: ('A' for Active; 'I' for Inactive)
REMARK    1  A    between atoms: N_2  and  C_14 
REMARK       I    between atoms: N_2  and  C_3 
REMARK    2  A    between atoms: C_3  and  C_11 
REMARK    3  A    between atoms: N_9  and  C_11 
REMARK    4  A    between atoms: C_12  and  C_22 
REMARK    5  A    between atoms: C_12  and  C_13 
REMARK    6  A    between atoms: C_13  and  C_14 
REMARK    7  A    between atoms: C_14  and  C_15 
REMARK    8  A    between atoms: N_20  and  C_21 
REMARK    9  A    between atoms: C_21  and  C_22 
ROOT
HETATM    1  C           1     -34.908  -2.489 -12.165  0.00  0.00     0.185 C 
ENDROOT
BRANCH   1   2
HETATM    2  N           1     -34.802  -1.535 -13.252  0.00  0.00    -0.345 N 
HETATM    3  C           1     -35.899  -0.813 -13.637  0.00  0.00     0.248 C 
HETATM    4  O           1     -36.955  -0.969 -13.071  0.00  0.00    -0.271 OA
HETATM    5  H           1     -33.918  -1.404 -13.725  0.00  0.00     0.163 HD
BRANCH   3   6
HETATM    6  C           1     -35.789   0.180 -14.768  0.00  0.00     0.270 C 
HETATM    7  C           1     -34.887   1.332 -14.348  0.00  0.00     0.050 C 
BRANCH   6   8
HETATM    8  N           1     -37.152   0.710 -15.102  0.00  0.00    -0.067 N 
HETATM    9  H           1     -37.394   1.489 -14.449  0.00  0.00     0.275 HD
HETATM   10  H           1     -37.155   1.066 -16.086  0.00  0.00     0.275 HD
HETATM   11  H           1     -37.857  -0.056 -15.007  0.00  0.00     0.275 HD
ENDBRANCH   6   8
ENDBRANCH   3   6
ENDBRANCH   1   2
BRANCH   1  12
HETATM   12  C           1     -34.001  -3.680 -12.445  0.00  0.00     0.036 C 
BRANCH  12  13
HETATM   13  C           1     -34.701  -4.963 -12.019  0.00  0.00     0.004 C 
BRANCH  13  14
HETATM   14  C           1     -33.799  -5.744 -11.072  0.00  0.00     0.027 C 
BRANCH  14  15
HETATM   15  C           1     -34.653  -6.613 -10.158  0.00  0.00     0.229 C 
BRANCH  15  16
HETATM   16  N           1     -34.500  -8.053 -10.550  0.00  0.00    -0.079 N 
HETATM   17  H           1     -34.879  -8.664  -9.791  0.00  0.00     0.274 HD
HETATM   18  H           1     -33.488  -8.268 -10.697  0.00  0.00     0.274 HD
HETATM   19  H           1     -35.025  -8.231 -11.435  0.00  0.00     0.274 HD
ENDBRANCH  15  16
ENDBRANCH  14  15
ENDBRANCH  13  14
ENDBRANCH  12  13
ENDBRANCH   1  12
BRANCH   1  20
HETATM   20  C           1     -34.487  -1.829 -10.875  0.00  0.00     0.196 C 
HETATM   21  O           1     -35.339  -1.270 -10.151  0.00  0.00    -0.646 OA
HETATM   22  O           1     -33.285  -1.839 -10.531  0.00  0.00    -0.646 OA
ENDBRANCH   1  20
TORSDOF 9
ENDMDL
MODEL 2
REMARK VINA RESULT:      -6.1      1.715      2.127
REMARK  9 active torsions:
REMARK  status: ('A' for Active; 'I' for Inactive)
REMARK    1  A    between atoms: N_2  and  C_14 
REMARK       I    between atoms: N_2  and  C_3 
REMARK    2  A    between atoms: C_3  and  C_11 
REMARK    3  A    between atoms: N_9  and  C_11 
REMARK    4  A    between atoms: C_12  and  C_22 
REMARK    5  A    between atoms: C_12  and  C_13 
REMARK    6  A    between atoms: C_13  and  C_14 
REMARK    7  A    between atoms: C_14  and  C_15 
REMARK    8  A    between atoms: N_20  and  C_21 
REMARK    9  A    between atoms: C_21  and  C_22 
ROOT
HETATM    1  C           1     -36.345  -1.365 -11.341  0.00  0.00     0.185 C 
ENDROOT
BRANCH   1   2
HETATM    2  N           1     -35.719  -0.674 -12.451  0.00  0.00    -0.345 N 
HETATM    3  C           1     -36.436  -0.419 -13.590  0.00  0.00     0.248 C 
HETATM    4  O           1     -37.589  -0.770 -13.669  0.00  0.00    -0.271 OA
HETATM    5  H           1     -34.754  -0.379 -12.384  0.00  0.00     0.163 HD
BRANCH   3   6
HETATM    6  C           1     -35.785   0.301 -14.745  0.00  0.00     0.270 C 
HETATM    7  C           1     -34.778   1.311 -14.213  0.00  0.00     0.050 C 
BRANCH   6   8
HETATM    8  N           1     -36.834   1.014 -15.544  0.00  0.00    -0.067 N 
HETATM    9  H           1     -37.119   1.887 -15.046  0.00  0.00     0.275 HD
HETATM   10  H           1     -36.447   1.261 -16.485  0.00  0.00     0.275 HD
HETATM   11  H           1     -37.666   0.392 -15.662  0.00  0.00     0.275 HD
ENDBRANCH   6   8
ENDBRANCH   3   6
ENDBRANCH   1   2
BRANCH   1  12
HETATM   12  C           1     -35.455  -2.518 -10.895  0.00  0.00     0.036 C 
BRANCH  12  13
HETATM   13  C           1     -33.993  -2.121 -11.054  0.00  0.00     0.004 C 
BRANCH  13  14
HETATM   14  C           1     -33.156  -3.364 -11.327  0.00  0.00     0.027 C 
BRANCH  14  15
HETATM   15  C           1     -33.829  -4.579 -10.702  0.00  0.00     0.229 C 
BRANCH  15  16
HETATM   16  N           1     -33.394  -5.819 -11.425  0.00  0.00    -0.079 N 
HETATM   17  H           1     -33.966  -6.631 -11.099  0.00  0.00     0.274 HD
HETATM   18  H           1     -32.384  -6.001 -11.227  0.00  0.00     0.274 HD
HETATM   19  H           1     -33.529  -5.689 -12.453  0.00  0.00     0.274 HD
ENDBRANCH  15  16
ENDBRANCH  14  15
ENDBRANCH  13  14
ENDBRANCH  12  13
ENDBRANCH   1  12
BRANCH   1  20
HETATM   20  C           1     -36.536  -0.404 -10.193  0.00  0.00     0.196 C 
HETATM   21  O           1     -37.023  -0.806  -9.115  0.00  0.00    -0.646 OA
HETATM   22  O           1     -36.208   0.795 -10.322  0.00  0.00    -0.646 OA
ENDBRANCH   1  20
TORSDOF 9
ENDMDL
MODEL 3
REMARK VINA RESULT:      -6.0      2.511      3.306
REMARK  9 active torsions:
REMARK  status: ('A' for Active; 'I' for Inactive)
REMARK    1  A    between atoms: N_2  and  C_14 
REMARK       I    between atoms: N_2  and  C_3 
REMARK    2  A    between atoms: C_3  and  C_11 
REMARK    3  A    between atoms: N_9  and  C_11 
REMARK    4  A    between atoms: C_12  and  C_22 
REMARK    5  A    between atoms: C_12  and  C_13 
REMARK    6  A    between atoms: C_13  and  C_14 
REMARK    7  A    between atoms: C_14  and  C_15 
REMARK    8  A    between atoms: N_20  and  C_21 
REMARK    9  A    between atoms: C_21  and  C_22 
ROOT
HETATM    1  C           1     -34.010  -3.301 -12.371  0.00  0.00     0.185 C 
ENDROOT
BRANCH   1   2
HETATM    2  N           1     -35.189  -2.896 -11.632  0.00  0.00    -0.345 N 
HETATM    3  C           1     -35.387  -1.575 -11.330  0.00  0.00     0.248 C 
HETATM    4  O           1     -34.580  -0.748 -11.680  0.00  0.00    -0.271 OA
HETATM    5  H           1     -35.866  -3.589 -11.339  0.00  0.00     0.163 HD
BRANCH   3   6
HETATM    6  C           1     -36.614  -1.154 -10.560  0.00  0.00     0.270 C 
HETATM    7  C           1     -37.470  -0.240 -11.427  0.00  0.00     0.050 C 
BRANCH   6   8
HETATM    8  N           1     -36.199  -0.420  -9.320  0.00  0.00    -0.067 N 
HETATM    9  H           1     -36.013   0.582  -9.552  0.00  0.00     0.275 HD
HETATM   10  H           1     -36.965  -0.476  -8.610  0.00  0.00     0.275 HD
HETATM   11  H           1     -35.332  -0.855  -8.931  0.00  0.00     0.275 HD
ENDBRANCH   6   8
ENDBRANCH   3   6
ENDBRANCH   1   2
BRANCH   1  12
HETATM   12  C           1     -33.146  -4.200 -11.496  0.00  0.00     0.036 C 
BRANCH  12  13
HETATM   13  C           1     -34.025  -4.909 -10.474  0.00  0.00     0.004 C 
BRANCH  13  14
HETATM   14  C           1     -33.901  -6.416 -10.654  0.00  0.00     0.027 C 
BRANCH  14  15
HETATM   15  C           1     -34.895  -7.121  -9.741  0.00  0.00     0.229 C 
BRANCH  15  16
HETATM   16  N           1     -34.446  -8.534  -9.510  0.00  0.00    -0.079 N 
HETATM   17  H           1     -35.244  -9.186  -9.686  0.00  0.00     0.274 HD
HETATM   18  H           1     -34.121  -8.639  -8.522  0.00  0.00     0.274 HD
HETATM   19  H           1     -33.661  -8.761 -10.160  0.00  0.00     0.274 HD
ENDBRANCH  15  16
ENDBRANCH  14  15
ENDBRANCH  13  14
ENDBRANCH  12  13
ENDBRANCH   1  12
BRANCH   1  20
HETATM   20  C           1     -34.428  -4.056 -13.610  0.00  0.00     0.196 C 
HETATM   21  O           1     -34.103  -3.633 -14.739  0.00  0.00    -0.646 OA
HETATM   22  O           1     -35.102  -5.104 -13.505  0.00  0.00    -0.646 OA
ENDBRANCH   1  20
TORSDOF 9
ENDMDL
MODEL 4
REMARK VINA RESULT:      -5.6      2.853      5.513
REMARK  9 active torsions:
REMARK  status: ('A' for Active; 'I' for Inactive)
REMARK    1  A    between atoms: N_2  and  C_14 
REMARK       I    between atoms: N_2  and  C_3 
REMARK    2  A    between atoms: C_3  and  C_11 
REMARK    3  A    between atoms: N_9  and  C_11 
REMARK    4  A    between atoms: C_12  and  C_22 
REMARK    5  A    between atoms: C_12  and  C_13 
REMARK    6  A    between atoms: C_13  and  C_14 
REMARK    7  A    between atoms: C_14  and  C_15 
REMARK    8  A    between atoms: N_20  and  C_21 
REMARK    9  A    between atoms: C_21  and  C_22 
ROOT
HETATM    1  C           1     -35.944  -0.763 -13.258  0.00  0.00     0.185 C 
ENDROOT
BRANCH   1   2
HETATM    2  N           1     -35.027  -1.171 -12.212  0.00  0.00    -0.345 N 
HETATM    3  C           1     -34.435  -2.404 -12.264  0.00  0.00     0.248 C 
HETATM    4  O           1     -34.675  -3.151 -13.182  0.00  0.00    -0.271 OA
HETATM    5  H           1     -34.825  -0.545 -11.443  0.00  0.00     0.163 HD
BRANCH   3   6
HETATM    6  C           1     -33.480  -2.829 -11.175  0.00  0.00     0.270 C 
HETATM    7  C           1     -33.869  -4.211 -10.668  0.00  0.00     0.050 C 
BRANCH   6   8
HETATM    8  N           1     -33.543  -1.846 -10.044  0.00  0.00    -0.067 N 
HETATM    9  H           1     -34.540  -1.687  -9.774  0.00  0.00     0.275 HD
HETATM   10  H           1     -33.016  -2.226  -9.224  0.00  0.00     0.275 HD
HETATM   11  H           1     -33.114  -0.942 -10.344  0.00  0.00     0.275 HD
ENDBRANCH   6   8
ENDBRANCH   3   6
ENDBRANCH   1   2
BRANCH   1  12
HETATM   12  C           1     -37.120  -0.019 -12.639  0.00  0.00     0.036 C 
BRANCH  12  13
HETATM   13  C           1     -37.472  -0.650 -11.299  0.00  0.00     0.004 C 
BRANCH  13  14
HETATM   14  C           1     -37.616   0.440 -10.245  0.00  0.00     0.027 C 
BRANCH  14  15
HETATM   15  C           1     -36.809   0.063  -9.010  0.00  0.00     0.229 C 
BRANCH  15  16
HETATM   16  N           1     -36.315   1.309  -8.336  0.00  0.00    -0.079 N 
HETATM   17  H           1     -37.035   2.061  -8.422  0.00  0.00     0.274 HD
HETATM   18  H           1     -35.427   1.622  -8.791  0.00  0.00     0.274 HD
HETATM   19  H           1     -36.136   1.112  -7.325  0.00  0.00     0.274 HD
ENDBRANCH  15  16
ENDBRANCH  14  15
ENDBRANCH  13  14
ENDBRANCH  12  13
ENDBRANCH   1  12
BRANCH   1  20
HETATM   20  C           1     -35.228   0.146 -14.227  0.00  0.00     0.196 C 
HETATM   21  O           1     -34.905   1.301 -13.879  0.00  0.00    -0.646 OA
HETATM   22  O           1     -34.959  -0.258 -15.379  0.00  0.00    -0.646 OA
ENDBRANCH   1  20
TORSDOF 9
ENDMDL
MODEL 5
REMARK VINA RESULT:      -5.4     13.497     15.949
REMARK  9 active torsions:
REMARK  status: ('A' for Active; 'I' for Inactive)
REMARK    1  A    between atoms: N_2  and  C_14 
REMARK       I    between atoms: N_2  and  C_3 
REMARK    2  A    between atoms: C_3  and  C_11 
REMARK    3  A    between atoms: N_9  and  C_11 
REMARK    4  A    between atoms: C_12  and  C_22 
REMARK    5  A    between atoms: C_12  and  C_13 
REMARK    6  A    between atoms: C_13  and  C_14 
REMARK    7  A    between atoms: C_14  and  C_15 
REMARK    8  A    between atoms: N_20  and  C_21 
REMARK    9  A    between atoms: C_21  and  C_22 
ROOT
HETATM    1  C           1     -21.276  -5.455  -6.538  0.00  0.00     0.185 C 
ENDROOT
BRANCH   1   2
HETATM    2  N           1     -21.052  -5.402  -5.106  0.00  0.00    -0.345 N 
HETATM    3  C           1     -21.471  -6.433  -4.310  0.00  0.00     0.248 C 
HETATM    4  O           1     -22.027  -7.387  -4.799  0.00  0.00    -0.271 OA
HETATM    5  H           1     -20.586  -4.603  -4.696  0.00  0.00     0.163 HD
BRANCH   3   6
HETATM    6  C           1     -21.238  -6.378  -2.820  0.00  0.00     0.270 C 
HETATM    7  C           1     -20.909  -7.772  -2.304  0.00  0.00     0.050 C 
BRANCH   6   8
HETATM    8  N           1     -22.475  -5.872  -2.139  0.00  0.00    -0.067 N 
HETATM    9  H           1     -23.290  -5.952  -2.789  0.00  0.00     0.275 HD
HETATM   10  H           1     -22.658  -6.443  -1.281  0.00  0.00     0.275 HD
HETATM   11  H           1     -22.340  -4.872  -1.869  0.00  0.00     0.275 HD
ENDBRANCH   6   8
ENDBRANCH   3   6
ENDBRANCH   1   2
BRANCH   1  12
HETATM   12  C           1     -21.808  -4.111  -7.018  0.00  0.00     0.036 C 
BRANCH  12  13
HETATM   13  C           1     -23.135  -4.318  -7.737  0.00  0.00     0.004 C 
BRANCH  13  14
HETATM   14  C           1     -22.981  -3.945  -9.205  0.00  0.00     0.027 C 
BRANCH  14  15
HETATM   15  C           1     -24.203  -4.417  -9.982  0.00  0.00     0.229 C 
BRANCH  15  16
HETATM   16  N           1     -25.372  -3.533  -9.661  0.00  0.00    -0.079 N 
HETATM   17  H           1     -25.694  -3.051 -10.531  0.00  0.00     0.274 HD
HETATM   18  H           1     -25.084  -2.819  -8.953  0.00  0.00     0.274 HD
HETATM   19  H           1     -26.151  -4.111  -9.275  0.00  0.00     0.274 HD
ENDBRANCH  15  16
ENDBRANCH  14  15
ENDBRANCH  13  14
ENDBRANCH  12  13
ENDBRANCH   1  12
BRANCH   1  20
HETATM   20  C           1     -19.974  -5.760  -7.239  0.00  0.00     0.196 C 
HETATM   21  O           1     -19.463  -4.915  -8.004  0.00  0.00    -0.646 OA
HETATM   22  O           1     -19.408  -6.859  -7.055  0.00  0.00    -0.646 OA
ENDBRANCH   1  20
TORSDOF 9
ENDMDL
MODEL 6
REMARK VINA RESULT:      -5.2     25.306     26.994
REMARK  9 active torsions:
REMARK  status: ('A' for Active; 'I' for Inactive)
REMARK    1  A    between atoms: N_2  and  C_14 
REMARK       I    between atoms: N_2  and  C_3 
REMARK    2  A    between atoms: C_3  and  C_11 
REMARK    3  A    between atoms: N_9  and  C_11 
REMARK    4  A    between atoms: C_12  and  C_22 
REMARK    5  A    between atoms: C_12  and  C_13 
REMARK    6  A    between atoms: C_13  and  C_14 
REMARK    7  A    between atoms: C_14  and  C_15 
REMARK    8  A    between atoms: N_20  and  C_21 
REMARK    9  A    between atoms: C_21  and  C_22 
ROOT
HETATM    1  C           1     -10.280   5.352 -20.632  0.00  0.00     0.185 C 
ENDROOT
BRANCH   1   2
HETATM    2  N           1     -11.471   5.419 -21.456  0.00  0.00    -0.345 N 
HETATM    3  C           1     -11.962   4.283 -22.041  0.00  0.00     0.248 C 
HETATM    4  O           1     -11.404   3.225 -21.871  0.00  0.00    -0.271 OA
HETATM    5  H           1     -11.939   6.304 -21.598  0.00  0.00     0.163 HD
BRANCH   3   6
HETATM    6  C           1     -13.202   4.352 -22.899  0.00  0.00     0.270 C 
HETATM    7  C           1     -13.989   5.610 -22.556  0.00  0.00     0.050 C 
BRANCH   6   8
HETATM    8  N           1     -14.055   3.145 -22.643  0.00  0.00    -0.067 N 
HETATM    9  H           1     -14.766   3.053 -23.403  0.00  0.00     0.275 HD
HETATM   10  H           1     -13.452   2.291 -22.626  0.00  0.00     0.275 HD
HETATM   11  H           1     -14.539   3.249 -21.723  0.00  0.00     0.275 HD
ENDBRANCH   6   8
ENDBRANCH   3   6
ENDBRANCH   1   2
BRANCH   1  12
HETATM   12  C           1      -9.351   6.504 -20.990  0.00  0.00     0.036 C 
BRANCH  12  13
HETATM   13  C           1     -10.173   7.680 -21.502  0.00  0.00     0.004 C 
BRANCH  13  14
HETATM   14  C           1      -9.792   8.939 -20.734  0.00  0.00     0.027 C 
BRANCH  14  15
HETATM   15  C           1     -10.790   9.169 -19.607  0.00  0.00     0.229 C 
BRANCH  15  16
HETATM   16  N           1     -10.114   8.945 -18.287  0.00  0.00    -0.079 N 
HETATM   17  H           1      -9.630   8.019 -18.295  0.00  0.00     0.274 HD
HETATM   18  H           1     -10.828   8.958 -17.524  0.00  0.00     0.274 HD
HETATM   19  H           1      -9.414   9.702 -18.121  0.00  0.00     0.274 HD
ENDBRANCH  15  16
ENDBRANCH  14  15
ENDBRANCH  13  14
ENDBRANCH  12  13
ENDBRANCH   1  12
BRANCH   1  20
HETATM   20  C           1     -10.669   5.454 -19.177  0.00  0.00     0.196 C 
HETATM   21  O           1     -11.819   5.127 -18.814  0.00  0.00    -0.646 OA
HETATM   22  O           1      -9.842   5.866 -18.336  0.00  0.00    -0.646 OA
ENDBRANCH   1  20
TORSDOF 9
ENDMDL
MODEL 7
REMARK VINA RESULT:      -5.2     14.325     17.093
REMARK  9 active torsions:
REMARK  status: ('A' for Active; 'I' for Inactive)
REMARK    1  A    between atoms: N_2  and  C_14 
REMARK       I    between atoms: N_2  and  C_3 
REMARK    2  A    between atoms: C_3  and  C_11 
REMARK    3  A    between atoms: N_9  and  C_11 
REMARK    4  A    between atoms: C_12  and  C_22 
REMARK    5  A    between atoms: C_12  and  C_13 
REMARK    6  A    between atoms: C_13  and  C_14 
REMARK    7  A    between atoms: C_14  and  C_15 
REMARK    8  A    between atoms: N_20  and  C_21 
REMARK    9  A    between atoms: C_21  and  C_22 
ROOT
HETATM    1  C           1     -20.672  -6.755  -5.418  0.00  0.00     0.185 C 
ENDROOT
BRANCH   1   2
HETATM    2  N           1     -20.786  -8.178  -5.675  0.00  0.00    -0.345 N 
HETATM    3  C           1     -19.972  -9.059  -5.014  0.00  0.00     0.248 C 
HETATM    4  O           1     -19.161  -8.652  -4.217  0.00  0.00    -0.271 OA
HETATM    5  H           1     -21.465  -8.519  -6.342  0.00  0.00     0.163 HD
BRANCH   3   6
HETATM    6  C           1     -20.090 -10.539  -5.281  0.00  0.00     0.270 C 
HETATM    7  C           1     -18.750 -11.078  -5.762  0.00  0.00     0.050 C 
BRANCH   6   8
HETATM    8  N           1     -21.131 -10.776  -6.335  0.00  0.00    -0.067 N 
HETATM    9  H           1     -21.787 -11.524  -6.017  0.00  0.00     0.275 HD
HETATM   10  H           1     -21.664  -9.892  -6.502  0.00  0.00     0.275 HD
HETATM   11  H           1     -20.666 -11.075  -7.223  0.00  0.00     0.275 HD
ENDBRANCH   6   8
ENDBRANCH   3   6
ENDBRANCH   1   2
BRANCH   1  12
HETATM   12  C           1     -20.652  -6.001  -6.742  0.00  0.00     0.036 C 
BRANCH  12  13
HETATM   13  C           1     -20.243  -4.555  -6.496  0.00  0.00     0.004 C 
BRANCH  13  14
HETATM   14  C           1     -21.247  -3.623  -7.161  0.00  0.00     0.027 C 
BRANCH  14  15
HETATM   15  C           1     -22.221  -4.440  -8.000  0.00  0.00     0.229 C 
BRANCH  15  16
HETATM   16  N           1     -23.617  -4.232  -7.491  0.00  0.00    -0.079 N 
HETATM   17  H           1     -23.813  -3.208  -7.418  0.00  0.00     0.274 HD
HETATM   18  H           1     -23.713  -4.673  -6.548  0.00  0.00     0.274 HD
HETATM   19  H           1     -24.298  -4.671  -8.151  0.00  0.00     0.274 HD
ENDBRANCH  15  16
ENDBRANCH  14  15
ENDBRANCH  13  14
ENDBRANCH  12  13
ENDBRANCH   1  12
BRANCH   1  20
HETATM   20  C           1     -21.853  -6.298  -4.597  0.00  0.00     0.196 C 
HETATM   21  O           1     -22.987  -6.225  -5.117  0.00  0.00    -0.646 OA
HETATM   22  O           1     -21.696  -5.989  -3.396  0.00  0.00    -0.646 OA
ENDBRANCH   1  20
TORSDOF 9
ENDMDL
MODEL 8
REMARK VINA RESULT:      -5.1     14.803     16.432
REMARK  9 active torsions:
REMARK  status: ('A' for Active; 'I' for Inactive)
REMARK    1  A    between atoms: N_2  and  C_14 
REMARK       I    between atoms: N_2  and  C_3 
REMARK    2  A    between atoms: C_3  and  C_11 
REMARK    3  A    between atoms: N_9  and  C_11 
REMARK    4  A    between atoms: C_12  and  C_22 
REMARK    5  A    between atoms: C_12  and  C_13 
REMARK    6  A    between atoms: C_13  and  C_14 
REMARK    7  A    between atoms: C_14  and  C_15 
REMARK    8  A    between atoms: N_20  and  C_21 
REMARK    9  A    between atoms: C_21  and  C_22 
ROOT
HETATM    1  C           1     -20.871  -6.778  -4.979  0.00  0.00     0.185 C 
ENDROOT
BRANCH   1   2
HETATM    2  N           1     -21.322  -6.382  -6.299  0.00  0.00    -0.345 N 
HETATM    3  C           1     -21.022  -5.135  -6.779  0.00  0.00     0.248 C 
HETATM    4  O           1     -20.381  -4.366  -6.104  0.00  0.00    -0.271 OA
HETATM    5  H           1     -21.857  -7.027  -6.865  0.00  0.00     0.163 HD
BRANCH   3   6
HETATM    6  C           1     -21.490  -4.724  -8.153  0.00  0.00     0.270 C 
HETATM    7  C           1     -20.301  -4.242  -8.973  0.00  0.00     0.050 C 
BRANCH   6   8
HETATM    8  N           1     -22.493  -3.615  -8.028  0.00  0.00    -0.067 N 
HETATM    9  H           1     -22.525  -3.071  -8.920  0.00  0.00     0.275 HD
HETATM   10  H           1     -23.437  -4.021  -7.833  0.00  0.00     0.275 HD
HETATM   11  H           1     -22.216  -2.983  -7.244  0.00  0.00     0.275 HD
ENDBRANCH   6   8
ENDBRANCH   3   6
ENDBRANCH   1   2
BRANCH   1  12
HETATM   12  C           1     -22.017  -6.629  -3.987  0.00  0.00     0.036 C 
BRANCH  12  13
HETATM   13  C           1     -21.493  -6.022  -2.692  0.00  0.00     0.004 C 
BRANCH  13  14
HETATM   14  C           1     -22.256  -6.606  -1.511  0.00  0.00     0.027 C 
BRANCH  14  15
HETATM   15  C           1     -21.853  -8.062  -1.316  0.00  0.00     0.229 C 
BRANCH  15  16
HETATM   16  N           1     -20.357  -8.173  -1.319  0.00  0.00    -0.079 N 
HETATM   17  H           1     -20.073  -9.068  -0.861  0.00  0.00     0.274 HD
HETATM   18  H           1     -19.948  -7.367  -0.794  0.00  0.00     0.274 HD
HETATM   19  H           1     -20.009  -8.159  -2.304  0.00  0.00     0.274 HD
ENDBRANCH  15  16
ENDBRANCH  14  15
ENDBRANCH  13  14
ENDBRANCH  12  13
ENDBRANCH   1  12
BRANCH   1  20
HETATM   20  C           1     -20.418  -8.217  -5.013  0.00  0.00     0.196 C 
HETATM   21  O           1     -19.537  -8.614  -4.222  0.00  0.00    -0.646 OA
HETATM   22  O           1     -20.924  -9.011  -5.835  0.00  0.00    -0.646 OA
ENDBRANCH   1  20
TORSDOF 9
ENDMDL
MODEL 9
REMARK VINA RESULT:      -4.8     16.478     18.962
REMARK  9 active torsions:
REMARK  status: ('A' for Active; 'I' for Inactive)
REMARK    1  A    between atoms: N_2  and  C_14 
REMARK       I    between atoms: N_2  and  C_3 
REMARK    2  A    between atoms: C_3  and  C_11 
REMARK    3  A    between atoms: N_9  and  C_11 
REMARK    4  A    between atoms: C_12  and  C_22 
REMARK    5  A    between atoms: C_12  and  C_13 
REMARK    6  A    between atoms: C_13  and  C_14 
REMARK    7  A    between atoms: C_14  and  C_15 
REMARK    8  A    between atoms: N_20  and  C_21 
REMARK    9  A    between atoms: C_21  and  C_22 
ROOT
HETATM    1  C           1     -21.332  -8.182  -1.054  0.00  0.00     0.185 C 
ENDROOT
BRANCH   1   2
HETATM    2  N           1     -21.925  -9.504  -1.065  0.00  0.00    -0.345 N 
HETATM    3  C           1     -21.639 -10.391  -0.063  0.00  0.00     0.248 C 
HETATM    4  O           1     -20.892 -10.072   0.831  0.00  0.00    -0.271 OA
HETATM    5  H           1     -22.551  -9.772  -1.814  0.00  0.00     0.163 HD
BRANCH   3   6
HETATM    6  C           1     -22.256 -11.768  -0.075  0.00  0.00     0.270 C 
HETATM    7  C           1     -23.772 -11.647   0.014  0.00  0.00     0.050 C 
BRANCH   6   8
HETATM    8  N           1     -21.749 -12.554   1.098  0.00  0.00    -0.067 N 
HETATM    9  H           1     -21.758 -11.952   1.952  0.00  0.00     0.275 HD
HETATM   10  H           1     -22.364 -13.386   1.251  0.00  0.00     0.275 HD
HETATM   11  H           1     -20.773 -12.874   0.906  0.00  0.00     0.275 HD
ENDBRANCH   6   8
ENDBRANCH   3   6
ENDBRANCH   1   2
BRANCH   1  12
HETATM   12  C           1     -20.649  -7.921  -2.390  0.00  0.00     0.036 C 
BRANCH  12  13
HETATM   13  C           1     -21.140  -8.933  -3.417  0.00  0.00     0.004 C 
BRANCH  13  14
HETATM   14  C           1     -21.268  -8.257  -4.776  0.00  0.00     0.027 C 
BRANCH  14  15
HETATM   15  C           1     -21.212  -6.745  -4.599  0.00  0.00     0.229 C 
BRANCH  15  16
HETATM   16  N           1     -22.590  -6.172  -4.750  0.00  0.00    -0.079 N 
HETATM   17  H           1     -22.524  -5.197  -5.121  0.00  0.00     0.274 HD
HETATM   18  H           1     -23.065  -6.159  -3.819  0.00  0.00     0.274 HD
HETATM   19  H           1     -23.142  -6.761  -5.413  0.00  0.00     0.274 HD
ENDBRANCH  15  16
ENDBRANCH  14  15
ENDBRANCH  13  14
ENDBRANCH  12  13
ENDBRANCH   1  12
BRANCH   1  20
HETATM   20  C           1     -22.409  -7.149  -0.829  0.00  0.00     0.196 C 
HETATM   21  O           1     -22.443  -6.117  -1.532  0.00  0.00    -0.646 OA
HETATM   22  O           1     -23.268  -7.327   0.062  0.00  0.00    -0.646 OA
ENDBRANCH   1  20
TORSDOF 9
ENDMDL
