MODEL 1
REMARK VINA RESULT:      -5.6      0.000      0.000
REMARK  3 active torsions:
REMARK  status: ('A' for Active; 'I' for Inactive)
REMARK    1  A    between atoms: N_8  and  C_10 
REMARK    2  A    between atoms: C_10  and  C_11 
REMARK       I    between atoms: C_11  and  N_12 
REMARK    3  A    between atoms: C_13  and  C_15 
ROOT
HETATM    1  C           1     -21.677  -2.874 -11.182  0.00  0.00     0.038 C 
HETATM    2  C           1     -20.358  -3.626 -11.317  0.00  0.00     0.022 C 
HETATM    3  C           1     -20.511  -4.855 -10.437  0.00  0.00     0.127 C 
HETATM    4  O           1     -22.472  -4.350  -7.445  0.00  0.00    -0.271 OA
HETATM    5  C           1     -21.555  -4.742  -8.126  0.00  0.00     0.250 C 
HETATM    6  N           1     -21.530  -4.465  -9.466  0.00  0.00    -0.336 N 
HETATM    7  C           1     -22.517  -3.716 -10.238  0.00  0.00     0.188 C 
ENDROOT
BRANCH   5   8
HETATM    8  C           1     -20.436  -5.538  -7.499  0.00  0.00     0.271 C 
HETATM    9  C           1     -20.990  -6.385  -6.362  0.00  0.00     0.050 C 
BRANCH   8  10
HETATM   10  N           1     -19.396  -4.598  -6.962  0.00  0.00    -0.067 N 
HETATM   11  H           1     -19.862  -3.839  -6.416  0.00  0.00     0.275 HD
HETATM   12  H           1     -18.861  -4.181  -7.756  0.00  0.00     0.275 HD
HETATM   13  H           1     -18.741  -5.123  -6.339  0.00  0.00     0.275 HD
ENDBRANCH   8  10
ENDBRANCH   5   8
BRANCH   7  14
HETATM   14  C           1     -23.419  -4.650 -11.009  0.00  0.00     0.196 C 
HETATM   15  O           1     -23.540  -4.522 -12.247  0.00  0.00    -0.646 OA
HETATM   16  O           1     -24.045  -5.550 -10.410  0.00  0.00    -0.646 OA
ENDBRANCH   7  14
TORSDOF 3
ENDMDL
MODEL 2
REMARK VINA RESULT:      -4.7      6.821      8.549
REMARK  3 active torsions:
REMARK  status: ('A' for Active; 'I' for Inactive)
REMARK    1  A    between atoms: N_8  and  C_10 
REMARK    2  A    between atoms: C_10  and  C_11 
REMARK       I    between atoms: C_11  and  N_12 
REMARK    3  A    between atoms: C_13  and  C_15 
ROOT
HETATM    1  C           1     -21.820  -7.706  -4.600  0.00  0.00     0.038 C 
HETATM    2  C           1     -21.828  -6.368  -3.869  0.00  0.00     0.022 C 
HETATM    3  C           1     -21.268  -6.667  -2.489  0.00  0.00     0.127 C 
HETATM    4  O           1     -22.137  -9.914  -1.166  0.00  0.00    -0.271 OA
HETATM    5  C           1     -21.958  -8.720  -1.165  0.00  0.00     0.250 C 
HETATM    6  N           1     -21.534  -8.091  -2.305  0.00  0.00    -0.336 N 
HETATM    7  C           1     -21.249  -8.698  -3.602  0.00  0.00     0.188 C 
ENDROOT
BRANCH   5   8
HETATM    8  C           1     -22.202  -7.921   0.091  0.00  0.00     0.271 C 
HETATM    9  C           1     -21.297  -8.433   1.203  0.00  0.00     0.050 C 
BRANCH   8  10
HETATM   10  N           1     -23.637  -8.069   0.506  0.00  0.00    -0.067 N 
HETATM   11  H           1     -23.996  -8.998   0.190  0.00  0.00     0.275 HD
HETATM   12  H           1     -24.206  -7.308   0.071  0.00  0.00     0.275 HD
HETATM   13  H           1     -23.707  -8.003   1.546  0.00  0.00     0.275 HD
ENDBRANCH   8  10
ENDBRANCH   5   8
BRANCH   7  14
HETATM   14  C           1     -19.762  -8.866  -3.802  0.00  0.00     0.196 C 
HETATM   15  O           1     -19.242  -8.568  -4.899  0.00  0.00    -0.646 OA
HETATM   16  O           1     -19.052  -9.305  -2.872  0.00  0.00    -0.646 OA
ENDBRANCH   7  14
TORSDOF 3
ENDMDL
MODEL 3
REMARK VINA RESULT:      -4.6      8.153      9.927
REMARK  3 active torsions:
REMARK  status: ('A' for Active; 'I' for Inactive)
REMARK    1  A    between atoms: N_8  and  C_10 
REMARK    2  A    between atoms: C_10  and  C_11 
REMARK       I    between atoms: C_11  and  N_12 
REMARK    3  A    between atoms: C_13  and  C_15 
ROOT
HETATM    1  C           1     -20.314  -7.940  -2.610  0.00  0.00     0.038 C 
HETATM    2  C           1     -20.950  -9.054  -3.434  0.00  0.00     0.022 C 
HETATM    3  C           1     -22.015  -9.654  -2.531  0.00  0.00     0.127 C 
HETATM    4  O           1     -21.181  -9.702   0.983  0.00  0.00    -0.271 OA
HETATM    5  C           1     -21.598 -10.118  -0.071  0.00  0.00     0.250 C 
HETATM    6  N           1     -21.559  -9.323  -1.184  0.00  0.00    -0.336 N 
HETATM    7  C           1     -21.053  -7.957  -1.284  0.00  0.00     0.188 C 
ENDROOT
BRANCH   5   8
HETATM    8  C           1     -22.162 -11.515  -0.161  0.00  0.00     0.271 C 
HETATM    9  C           1     -23.669 -11.469   0.053  0.00  0.00     0.050 C 
BRANCH   8  10
HETATM   10  N           1     -21.533 -12.376   0.895  0.00  0.00    -0.067 N 
HETATM   11  H           1     -20.565 -12.038   1.089  0.00  0.00     0.275 HD
HETATM   12  H           1     -21.498 -13.366   0.561  0.00  0.00     0.275 HD
HETATM   13  H           1     -22.102 -12.325   1.770  0.00  0.00     0.275 HD
ENDBRANCH   8  10
ENDBRANCH   5   8
BRANCH   7  14
HETATM   14  C           1     -22.189  -6.961  -1.288  0.00  0.00     0.196 C 
HETATM   15  O           1     -23.077  -7.024  -0.411  0.00  0.00    -0.646 OA
HETATM   16  O           1     -22.240  -6.077  -2.170  0.00  0.00    -0.646 OA
ENDBRANCH   7  14
TORSDOF 3
ENDMDL
MODEL 4
REMARK VINA RESULT:      -4.6      8.631     10.786
REMARK  3 active torsions:
REMARK  status: ('A' for Active; 'I' for Inactive)
REMARK    1  A    between atoms: N_8  and  C_10 
REMARK    2  A    between atoms: C_10  and  C_11 
REMARK       I    between atoms: C_11  and  N_12 
REMARK    3  A    between atoms: C_13  and  C_15 
ROOT
HETATM    1  C           1     -23.780 -11.295  -0.300  0.00  0.00     0.038 C 
HETATM    2  C           1     -23.603 -11.280  -1.814  0.00  0.00     0.022 C 
HETATM    3  C           1     -22.434 -10.343  -2.067  0.00  0.00     0.127 C 
HETATM    4  O           1     -22.200  -7.552   0.214  0.00  0.00    -0.271 OA
HETATM    5  C           1     -22.183  -8.133  -0.844  0.00  0.00     0.250 C 
HETATM    6  N           1     -22.416  -9.481  -0.888  0.00  0.00    -0.336 N 
HETATM    7  C           1     -22.699 -10.372   0.234  0.00  0.00     0.188 C 
ENDROOT
BRANCH   5   8
HETATM    8  C           1     -21.906  -7.373  -2.118  0.00  0.00     0.271 C 
HETATM    9  C           1     -20.418  -7.437  -2.434  0.00  0.00     0.050 C 
BRANCH   8  10
HETATM   10  N           1     -22.319  -5.941  -1.945  0.00  0.00    -0.067 N 
HETATM   11  H           1     -21.489  -5.369  -1.673  0.00  0.00     0.275 HD
HETATM   12  H           1     -23.048  -5.877  -1.199  0.00  0.00     0.275 HD
HETATM   13  H           1     -22.711  -5.581  -2.845  0.00  0.00     0.275 HD
ENDBRANCH   8  10
ENDBRANCH   5   8
BRANCH   7  14
HETATM   14  C           1     -21.468 -11.155   0.623  0.00  0.00     0.196 C 
HETATM   15  O           1     -21.535 -12.396   0.759  0.00  0.00    -0.646 OA
HETATM   16  O           1     -20.384 -10.563   0.810  0.00  0.00    -0.646 OA
ENDBRANCH   7  14
TORSDOF 3
ENDMDL
MODEL 5
REMARK VINA RESULT:      -4.5      6.959     10.143
REMARK  3 active torsions:
REMARK  status: ('A' for Active; 'I' for Inactive)
REMARK    1  A    between atoms: N_8  and  C_10 
REMARK    2  A    between atoms: C_10  and  C_11 
REMARK       I    between atoms: C_11  and  N_12 
REMARK    3  A    between atoms: C_13  and  C_15 
ROOT
HETATM    1  C           1     -21.035  -8.947   1.168  0.00  0.00     0.038 C 
HETATM    2  C           1     -22.252  -8.029   1.201  0.00  0.00     0.022 C 
HETATM    3  C           1     -22.775  -8.014  -0.225  0.00  0.00     0.127 C 
HETATM    4  O           1     -20.231  -8.224  -2.782  0.00  0.00    -0.271 OA
HETATM    5  C           1     -21.230  -7.829  -2.231  0.00  0.00     0.250 C 
HETATM    6  N           1     -21.608  -8.365  -1.030  0.00  0.00    -0.336 N 
HETATM    7  C           1     -20.931  -9.415  -0.273  0.00  0.00     0.188 C 
ENDROOT
BRANCH   5   8
HETATM    8  C           1     -22.063  -6.742  -2.867  0.00  0.00     0.271 C 
HETATM    9  C           1     -21.500  -6.410  -4.242  0.00  0.00     0.050 C 
BRANCH   8  10
HETATM   10  N           1     -22.027  -5.516  -2.002  0.00  0.00    -0.067 N 
HETATM   11  H           1     -21.842  -4.677  -2.596  0.00  0.00     0.275 HD
HETATM   12  H           1     -21.270  -5.614  -1.289  0.00  0.00     0.275 HD
HETATM   13  H           1     -22.947  -5.405  -1.518  0.00  0.00     0.275 HD
ENDBRANCH   8  10
ENDBRANCH   5   8
BRANCH   7  14
HETATM   14  C           1     -21.624 -10.744  -0.458  0.00  0.00     0.196 C 
HETATM   15  O           1     -21.938 -11.428   0.540  0.00  0.00    -0.646 OA
HETATM   16  O           1     -21.882 -11.159  -1.608  0.00  0.00    -0.646 OA
ENDBRANCH   7  14
TORSDOF 3
ENDMDL
MODEL 6
REMARK VINA RESULT:      -4.3      4.349      7.379
REMARK  3 active torsions:
REMARK  status: ('A' for Active; 'I' for Inactive)
REMARK    1  A    between atoms: N_8  and  C_10 
REMARK    2  A    between atoms: C_10  and  C_11 
REMARK       I    between atoms: C_11  and  N_12 
REMARK    3  A    between atoms: C_13  and  C_15 
ROOT
HETATM    1  C           1     -20.560  -7.972  -1.804  0.00  0.00     0.038 C 
HETATM    2  C           1     -21.509  -6.778  -1.797  0.00  0.00     0.022 C 
HETATM    3  C           1     -22.026  -6.676  -3.221  0.00  0.00     0.127 C 
HETATM    4  O           1     -19.641  -7.588  -5.776  0.00  0.00    -0.271 OA
HETATM    5  C           1     -20.505  -6.940  -5.235  0.00  0.00     0.250 C 
HETATM    6  N           1     -20.992  -7.330  -4.017  0.00  0.00    -0.336 N 
HETATM    7  C           1     -20.591  -8.493  -3.230  0.00  0.00     0.188 C 
ENDROOT
BRANCH   5   8
HETATM    8  C           1     -21.046  -5.699  -5.902  0.00  0.00     0.271 C 
HETATM    9  C           1     -21.065  -5.900  -7.411  0.00  0.00     0.050 C 
BRANCH   8  10
HETATM   10  N           1     -20.170  -4.529  -5.564  0.00  0.00    -0.067 N 
HETATM   11  H           1     -20.721  -3.826  -5.023  0.00  0.00     0.275 HD
HETATM   12  H           1     -19.817  -4.092  -6.446  0.00  0.00     0.275 HD
HETATM   13  H           1     -19.360  -4.854  -4.990  0.00  0.00     0.275 HD
ENDBRANCH   8  10
ENDBRANCH   5   8
BRANCH   7  14
HETATM   14  C           1     -21.595  -9.611  -3.372  0.00  0.00     0.196 C 
HETATM   15  O           1     -22.153 -10.082  -2.358  0.00  0.00    -0.646 OA
HETATM   16  O           1     -21.866 -10.067  -4.504  0.00  0.00    -0.646 OA
ENDBRANCH   7  14
TORSDOF 3
ENDMDL
MODEL 7
REMARK VINA RESULT:      -4.3      8.633      9.988
REMARK  3 active torsions:
REMARK  status: ('A' for Active; 'I' for Inactive)
REMARK    1  A    between atoms: N_8  and  C_10 
REMARK    2  A    between atoms: C_10  and  C_11 
REMARK       I    between atoms: C_11  and  N_12 
REMARK    3  A    between atoms: C_13  and  C_15 
ROOT
HETATM    1  C           1     -22.236  -8.419   0.600  0.00  0.00     0.038 C 
HETATM    2  C           1     -22.167  -7.308  -0.441  0.00  0.00     0.022 C 
HETATM    3  C           1     -21.758  -7.999  -1.731  0.00  0.00     0.127 C 
HETATM    4  O           1     -19.495 -10.783  -1.314  0.00  0.00    -0.271 OA
HETATM    5  C           1     -19.944  -9.773  -1.799  0.00  0.00     0.250 C 
HETATM    6  N           1     -21.078  -9.209  -1.279  0.00  0.00    -0.336 N 
HETATM    7  C           1     -21.871  -9.688  -0.150  0.00  0.00     0.188 C 
ENDROOT
BRANCH   5   8
HETATM    8  C           1     -19.255  -9.130  -2.978  0.00  0.00     0.271 C 
HETATM    9  C           1     -19.745  -9.777  -4.266  0.00  0.00     0.050 C 
BRANCH   8  10
HETATM   10  N           1     -17.772  -9.322  -2.855  0.00  0.00    -0.067 N 
HETATM   11  H           1     -17.408  -8.727  -2.077  0.00  0.00     0.275 HD
HETATM   12  H           1     -17.310  -9.048  -3.751  0.00  0.00     0.275 HD
HETATM   13  H           1     -17.566 -10.326  -2.650  0.00  0.00     0.275 HD
ENDBRANCH   8  10
ENDBRANCH   5   8
BRANCH   7  14
HETATM   14  C           1     -23.111 -10.404  -0.629  0.00  0.00     0.196 C 
HETATM   15  O           1     -23.080 -11.065  -1.690  0.00  0.00    -0.646 OA
HETATM   16  O           1     -24.168 -10.336   0.034  0.00  0.00    -0.646 OA
ENDBRANCH   7  14
TORSDOF 3
ENDMDL
MODEL 8
REMARK VINA RESULT:      -4.2      6.074      7.941
REMARK  3 active torsions:
REMARK  status: ('A' for Active; 'I' for Inactive)
REMARK    1  A    between atoms: N_8  and  C_10 
REMARK    2  A    between atoms: C_10  and  C_11 
REMARK       I    between atoms: C_11  and  N_12 
REMARK    3  A    between atoms: C_13  and  C_15 
ROOT
HETATM    1  C           1     -19.438  -8.758  -4.289  0.00  0.00     0.038 C 
HETATM    2  C           1     -19.883 -10.152  -3.863  0.00  0.00     0.022 C 
HETATM    3  C           1     -21.240  -9.952  -3.211  0.00  0.00     0.127 C 
HETATM    4  O           1     -21.611  -6.859  -1.384  0.00  0.00    -0.271 OA
HETATM    5  C           1     -21.702  -8.042  -1.605  0.00  0.00     0.250 C 
HETATM    6  N           1     -21.218  -8.559  -2.777  0.00  0.00    -0.336 N 
HETATM    7  C           1     -20.568  -7.836  -3.866  0.00  0.00     0.188 C 
ENDROOT
BRANCH   5   8
HETATM    8  C           1     -22.348  -8.952  -0.589  0.00  0.00     0.271 C 
HETATM    9  C           1     -23.191  -8.125   0.371  0.00  0.00     0.050 C 
BRANCH   8  10
HETATM   10  N           1     -21.283  -9.678   0.180  0.00  0.00    -0.067 N 
HETATM   11  H           1     -20.609  -8.987   0.578  0.00  0.00     0.275 HD
HETATM   12  H           1     -20.777 -10.332  -0.459  0.00  0.00     0.275 HD
HETATM   13  H           1     -21.723 -10.222   0.956  0.00  0.00     0.275 HD
ENDBRANCH   8  10
ENDBRANCH   5   8
BRANCH   7  14
HETATM   14  C           1     -21.529  -7.603  -5.007  0.00  0.00     0.196 C 
HETATM   15  O           1     -21.284  -8.080  -6.136  0.00  0.00    -0.646 OA
HETATM   16  O           1     -22.567  -6.933  -4.822  0.00  0.00    -0.646 OA
ENDBRANCH   7  14
TORSDOF 3
ENDMDL
MODEL 9
REMARK VINA RESULT:      -4.1      9.672     11.182
REMARK  3 active torsions:
REMARK  status: ('A' for Active; 'I' for Inactive)
REMARK    1  A    between atoms: N_8  and  C_10 
REMARK    2  A    between atoms: C_10  and  C_11 
REMARK       I    between atoms: C_11  and  N_12 
REMARK    3  A    between atoms: C_13  and  C_15 
ROOT
HETATM    1  C           1     -21.957  -7.864   0.400  0.00  0.00     0.038 C 
HETATM    2  C           1     -23.399  -8.359   0.378  0.00  0.00     0.022 C 
HETATM    3  C           1     -23.315  -9.800  -0.095  0.00  0.00     0.127 C 
HETATM    4  O           1     -20.714 -10.459  -2.514  0.00  0.00    -0.271 OA
HETATM    5  C           1     -21.812 -10.509  -2.014  0.00  0.00     0.250 C 
HETATM    6  N           1     -22.059  -9.852  -0.839  0.00  0.00    -0.336 N 
HETATM    7  C           1     -21.124  -9.050  -0.055  0.00  0.00     0.188 C 
ENDROOT
BRANCH   5   8
HETATM    8  C           1     -22.912 -11.295  -2.685  0.00  0.00     0.271 C 
HETATM    9  C           1     -22.945 -12.707  -2.118  0.00  0.00     0.050 C 
BRANCH   8  10
HETATM   10  N           1     -22.653 -11.355  -4.162  0.00  0.00    -0.067 N 
HETATM   11  H           1     -21.640 -11.178  -4.345  0.00  0.00     0.275 HD
HETATM   12  H           1     -23.228 -10.629  -4.646  0.00  0.00     0.275 HD
HETATM   13  H           1     -22.913 -12.301  -4.523  0.00  0.00     0.275 HD
ENDBRANCH   8  10
ENDBRANCH   5   8
BRANCH   7  14
HETATM   14  C           1     -20.608  -9.830   1.130  0.00  0.00     0.196 C 
HETATM   15  O           1     -20.316 -11.038   1.003  0.00  0.00    -0.646 OA
HETATM   16  O           1     -20.476  -9.268   2.238  0.00  0.00    -0.646 OA
ENDBRANCH   7  14
TORSDOF 3
ENDMDL
