MODEL 1
REMARK VINA RESULT:      -6.1      0.000      0.000
REMARK  7 active torsions:
REMARK  status: ('A' for Active; 'I' for Inactive)
REMARK    1  A    between atoms: C_10  and  C_12 
REMARK       I    between atoms: N_13  and  C_14 
REMARK    2  A    between atoms: C_14  and  C_15 
REMARK    3  A    between atoms: C_15  and  C_16 
REMARK    4  A    between atoms: C_15  and  N_22 
REMARK    5  A    between atoms: C_16  and  O_17 
REMARK    6  A    between atoms: O_17  and  P_18 
REMARK    7  A    between atoms: P_18  and  O_20 
ROOT
HETATM    1  C           1     -20.258  -5.372  -7.466  0.00  0.00     0.298 C 
ENDROOT
BRANCH   1   2
HETATM    2  C           1     -21.402  -4.606  -8.084  0.00  0.00     0.253 C 
HETATM    3  O           1     -22.298  -4.191  -7.388  0.00  0.00    -0.271 OA
HETATM    4  N           1     -21.424  -4.379  -9.434  0.00  0.00    -0.336 N 
HETATM    5  C           1     -20.436  -4.801 -10.423  0.00  0.00     0.127 C 
HETATM    6  C           1     -22.441  -3.664 -10.200  0.00  0.00     0.188 C 
HETATM    7  C           1     -20.320  -3.606 -11.353  0.00  0.00     0.022 C 
HETATM    8  C           1     -21.638  -2.855 -11.203  0.00  0.00     0.038 C 
BRANCH   6   9
HETATM    9  C           1     -23.362  -4.630 -10.904  0.00  0.00     0.196 C 
HETATM   10  O           1     -23.469  -4.598 -12.149  0.00  0.00    -0.646 OA
HETATM   11  O           1     -24.019  -5.463 -10.242  0.00  0.00    -0.646 OA
ENDBRANCH   6   9
ENDBRANCH   1   2
BRANCH   1  12
HETATM   12  C           1     -20.803  -6.581  -6.718  0.00  0.00     0.224 C 
BRANCH  12  13
HETATM   13  O           1     -20.479  -6.476  -5.358  0.00  0.00    -0.287 OA
BRANCH  13  14
HETATM   14  P           1     -21.713  -6.609  -4.325  0.00  0.00     0.406 P 
HETATM   15  O           1     -21.460  -5.760  -3.140  0.00  0.00    -0.624 OA
HETATM   16  O           1     -21.850  -8.020  -3.901  0.00  0.00    -0.624 OA
BRANCH  14  17
HETATM   17  O           1     -23.075  -6.130  -5.049  0.00  0.00    -0.300 OA
HETATM   18  H           1     -22.881  -5.274  -5.391  0.00  0.00     0.223 HD
ENDBRANCH  14  17
ENDBRANCH  13  14
ENDBRANCH  12  13
ENDBRANCH   1  12
BRANCH   1  19
HETATM   19  N           1     -19.522  -4.482  -6.508  0.00  0.00    -0.064 N 
HETATM   20  H           1     -19.934  -4.583  -5.553  0.00  0.00     0.275 HD
HETATM   21  H           1     -18.515  -4.757  -6.483  0.00  0.00     0.275 HD
HETATM   22  H           1     -19.606  -3.489  -6.820  0.00  0.00     0.275 HD
ENDBRANCH   1  19
TORSDOF 7
ENDMDL
MODEL 2
REMARK VINA RESULT:      -5.7      2.791      6.295
REMARK  7 active torsions:
REMARK  status: ('A' for Active; 'I' for Inactive)
REMARK    1  A    between atoms: C_10  and  C_12 
REMARK       I    between atoms: N_13  and  C_14 
REMARK    2  A    between atoms: C_14  and  C_15 
REMARK    3  A    between atoms: C_15  and  C_16 
REMARK    4  A    between atoms: C_15  and  N_22 
REMARK    5  A    between atoms: C_16  and  O_17 
REMARK    6  A    between atoms: O_17  and  P_18 
REMARK    7  A    between atoms: P_18  and  O_20 
ROOT
HETATM    1  C           1     -21.596  -5.042  -7.232  0.00  0.00     0.298 C 
ENDROOT
BRANCH   1   2
HETATM    2  C           1     -20.754  -6.124  -6.602  0.00  0.00     0.253 C 
HETATM    3  O           1     -19.719  -6.465  -7.123  0.00  0.00    -0.271 OA
HETATM    4  N           1     -21.162  -6.718  -5.438  0.00  0.00    -0.336 N 
HETATM    5  C           1     -22.373  -6.436  -4.672  0.00  0.00     0.127 C 
HETATM    6  C           1     -20.482  -7.772  -4.691  0.00  0.00     0.188 C 
HETATM    7  C           1     -21.909  -6.487  -3.227  0.00  0.00     0.022 C 
HETATM    8  C           1     -20.662  -7.363  -3.240  0.00  0.00     0.038 C 
BRANCH   6   9
HETATM    9  C           1     -21.120  -9.114  -4.953  0.00  0.00     0.196 C 
HETATM   10  O           1     -21.164  -9.569  -6.117  0.00  0.00    -0.646 OA
HETATM   11  O           1     -21.605  -9.772  -4.006  0.00  0.00    -0.646 OA
ENDBRANCH   6   9
ENDBRANCH   1   2
BRANCH   1  12
HETATM   12  C           1     -21.548  -5.180  -8.748  0.00  0.00     0.224 C 
BRANCH  12  13
HETATM   13  O           1     -22.012  -3.999  -9.342  0.00  0.00    -0.287 OA
BRANCH  13  14
HETATM   14  P           1     -23.557  -4.002  -9.813  0.00  0.00     0.406 P 
HETATM   15  O           1     -23.886  -5.313 -10.417  0.00  0.00    -0.624 OA
HETATM   16  O           1     -23.770  -2.931 -10.811  0.00  0.00    -0.624 OA
BRANCH  14  17
HETATM   17  O           1     -24.510  -3.746  -8.534  0.00  0.00    -0.300 OA
HETATM   18  H           1     -23.919  -3.620  -7.811  0.00  0.00     0.223 HD
ENDBRANCH  14  17
ENDBRANCH  13  14
ENDBRANCH  12  13
ENDBRANCH   1  12
BRANCH   1  19
HETATM   19  N           1     -21.059  -3.698  -6.837  0.00  0.00    -0.064 N 
HETATM   20  H           1     -20.014  -3.719  -6.863  0.00  0.00     0.275 HD
HETATM   21  H           1     -21.408  -2.974  -7.505  0.00  0.00     0.275 HD
HETATM   22  H           1     -21.379  -3.466  -5.870  0.00  0.00     0.275 HD
ENDBRANCH   1  19
TORSDOF 7
ENDMDL
MODEL 3
REMARK VINA RESULT:      -5.5      3.021      6.692
REMARK  7 active torsions:
REMARK  status: ('A' for Active; 'I' for Inactive)
REMARK    1  A    between atoms: C_10  and  C_12 
REMARK       I    between atoms: N_13  and  C_14 
REMARK    2  A    between atoms: C_14  and  C_15 
REMARK    3  A    between atoms: C_15  and  C_16 
REMARK    4  A    between atoms: C_15  and  N_22 
REMARK    5  A    between atoms: C_16  and  O_17 
REMARK    6  A    between atoms: O_17  and  P_18 
REMARK    7  A    between atoms: P_18  and  O_20 
ROOT
HETATM    1  C           1     -21.855  -5.091  -6.769  0.00  0.00     0.298 C 
ENDROOT
BRANCH   1   2
HETATM    2  C           1     -22.381  -5.953  -5.648  0.00  0.00     0.253 C 
HETATM    3  O           1     -23.563  -5.964  -5.397  0.00  0.00    -0.271 OA
HETATM    4  N           1     -21.519  -6.724  -4.916  0.00  0.00    -0.336 N 
HETATM    5  C           1     -20.072  -6.837  -5.075  0.00  0.00     0.127 C 
HETATM    6  C           1     -21.845  -7.612  -3.804  0.00  0.00     0.188 C 
HETATM    7  C           1     -19.799  -8.318  -4.875  0.00  0.00     0.022 C 
HETATM    8  C           1     -20.969  -8.829  -4.042  0.00  0.00     0.038 C 
BRANCH   6   9
HETATM    9  C           1     -21.515  -6.964  -2.482  0.00  0.00     0.196 C 
HETATM   10  O           1     -22.023  -5.861  -2.182  0.00  0.00    -0.646 OA
HETATM   11  O           1     -20.733  -7.528  -1.686  0.00  0.00    -0.646 OA
ENDBRANCH   6   9
ENDBRANCH   1   2
BRANCH   1  12
HETATM   12  C           1     -23.010  -4.335  -7.413  0.00  0.00     0.224 C 
BRANCH  12  13
HETATM   13  O           1     -22.589  -3.785  -8.632  0.00  0.00    -0.287 OA
BRANCH  13  14
HETATM   14  P           1     -23.697  -3.731  -9.805  0.00  0.00     0.406 P 
HETATM   15  O           1     -24.116  -5.107 -10.153  0.00  0.00    -0.624 OA
HETATM   16  O           1     -23.121  -3.073 -10.998  0.00  0.00    -0.624 OA
BRANCH  14  17
HETATM   17  O           1     -24.980  -2.893  -9.294  0.00  0.00    -0.300 OA
HETATM   18  H           1     -24.697  -2.475  -8.498  0.00  0.00     0.223 HD
ENDBRANCH  14  17
ENDBRANCH  13  14
ENDBRANCH  12  13
ENDBRANCH   1  12
BRANCH   1  19
HETATM   19  N           1     -21.192  -5.959  -7.797  0.00  0.00    -0.064 N 
HETATM   20  H           1     -21.160  -5.454  -8.712  0.00  0.00     0.275 HD
HETATM   21  H           1     -20.219  -6.182  -7.489  0.00  0.00     0.275 HD
HETATM   22  H           1     -21.735  -6.845  -7.908  0.00  0.00     0.275 HD
ENDBRANCH   1  19
TORSDOF 7
ENDMDL
MODEL 4
REMARK VINA RESULT:      -5.3      1.889      2.634
REMARK  7 active torsions:
REMARK  status: ('A' for Active; 'I' for Inactive)
REMARK    1  A    between atoms: C_10  and  C_12 
REMARK       I    between atoms: N_13  and  C_14 
REMARK    2  A    between atoms: C_14  and  C_15 
REMARK    3  A    between atoms: C_15  and  C_16 
REMARK    4  A    between atoms: C_15  and  N_22 
REMARK    5  A    between atoms: C_16  and  O_17 
REMARK    6  A    between atoms: O_17  and  P_18 
REMARK    7  A    between atoms: P_18  and  O_20 
ROOT
HETATM    1  C           1     -21.522  -4.726  -6.546  0.00  0.00     0.298 C 
ENDROOT
BRANCH   1   2
HETATM    2  C           1     -21.296  -5.074  -7.997  0.00  0.00     0.253 C 
HETATM    3  O           1     -20.434  -5.865  -8.301  0.00  0.00    -0.271 OA
HETATM    4  N           1     -22.068  -4.495  -8.968  0.00  0.00    -0.336 N 
HETATM    5  C           1     -23.146  -3.527  -8.788  0.00  0.00     0.127 C 
HETATM    6  C           1     -21.991  -4.709 -10.410  0.00  0.00     0.188 C 
HETATM    7  C           1     -24.204  -3.974  -9.781  0.00  0.00     0.022 C 
HETATM    8  C           1     -23.445  -4.755 -10.847  0.00  0.00     0.038 C 
BRANCH   6   9
HETATM    9  C           1     -21.264  -3.573 -11.085  0.00  0.00     0.196 C 
HETATM   10  O           1     -20.101  -3.278 -10.733  0.00  0.00    -0.646 OA
HETATM   11  O           1     -21.824  -2.925 -11.997  0.00  0.00    -0.646 OA
ENDBRANCH   6   9
ENDBRANCH   1   2
BRANCH   1  12
HETATM   12  C           1     -20.343  -5.217  -5.716  0.00  0.00     0.224 C 
BRANCH  12  13
HETATM   13  O           1     -20.810  -6.023  -4.669  0.00  0.00    -0.287 OA
BRANCH  13  14
HETATM   14  P           1     -20.558  -7.609  -4.830  0.00  0.00     0.406 P 
HETATM   15  O           1     -20.097  -8.170  -3.540  0.00  0.00    -0.624 OA
HETATM   16  O           1     -19.526  -7.842  -5.866  0.00  0.00    -0.624 OA
BRANCH  14  17
HETATM   17  O           1     -21.934  -8.331  -5.269  0.00  0.00    -0.300 OA
HETATM   18  H           1     -22.607  -7.691  -5.107  0.00  0.00     0.223 HD
ENDBRANCH  14  17
ENDBRANCH  13  14
ENDBRANCH  12  13
ENDBRANCH   1  12
BRANCH   1  19
HETATM   19  N           1     -22.780  -5.388  -6.065  0.00  0.00    -0.064 N 
HETATM   20  H           1     -23.151  -4.870  -5.237  0.00  0.00     0.275 HD
HETATM   21  H           1     -23.492  -5.378  -6.829  0.00  0.00     0.275 HD
HETATM   22  H           1     -22.573  -6.375  -5.793  0.00  0.00     0.275 HD
ENDBRANCH   1  19
TORSDOF 7
ENDMDL
MODEL 5
REMARK VINA RESULT:      -5.2      4.985      8.628
REMARK  7 active torsions:
REMARK  status: ('A' for Active; 'I' for Inactive)
REMARK    1  A    between atoms: C_10  and  C_12 
REMARK       I    between atoms: N_13  and  C_14 
REMARK    2  A    between atoms: C_14  and  C_15 
REMARK    3  A    between atoms: C_15  and  C_16 
REMARK    4  A    between atoms: C_15  and  N_22 
REMARK    5  A    between atoms: C_16  and  O_17 
REMARK    6  A    between atoms: O_17  and  P_18 
REMARK    7  A    between atoms: P_18  and  O_20 
ROOT
HETATM    1  C           1     -21.918  -6.849  -3.154  0.00  0.00     0.298 C 
ENDROOT
BRANCH   1   2
HETATM    2  C           1     -21.208  -7.991  -2.470  0.00  0.00     0.253 C 
HETATM    3  O           1     -20.274  -8.533  -3.012  0.00  0.00    -0.271 OA
HETATM    4  N           1     -21.622  -8.413  -1.235  0.00  0.00    -0.336 N 
HETATM    5  C           1     -22.723  -7.882  -0.436  0.00  0.00     0.127 C 
HETATM    6  C           1     -21.060  -9.493  -0.430  0.00  0.00     0.188 C 
HETATM    7  C           1     -22.176  -7.881   0.980  0.00  0.00     0.022 C 
HETATM    8  C           1     -21.078  -8.939   0.984  0.00  0.00     0.038 C 
BRANCH   6   9
HETATM    9  C           1     -21.909 -10.737  -0.530  0.00  0.00     0.196 C 
HETATM   10  O           1     -22.135 -11.423   0.490  0.00  0.00    -0.646 OA
HETATM   11  O           1     -22.386 -11.081  -1.633  0.00  0.00    -0.646 OA
ENDBRANCH   6   9
ENDBRANCH   1   2
BRANCH   1  12
HETATM   12  C           1     -21.875  -7.055  -4.663  0.00  0.00     0.224 C 
BRANCH  12  13
HETATM   13  O           1     -22.475  -5.961  -5.302  0.00  0.00    -0.287 OA
BRANCH  13  14
HETATM   14  P           1     -21.576  -5.212  -6.415  0.00  0.00     0.406 P 
HETATM   15  O           1     -21.055  -6.205  -7.381  0.00  0.00    -0.624 OA
HETATM   16  O           1     -20.444  -4.526  -5.754  0.00  0.00    -0.624 OA
BRANCH  14  17
HETATM   17  O           1     -22.482  -4.127  -7.196  0.00  0.00    -0.300 OA
HETATM   18  H           1     -21.973  -3.882  -7.951  0.00  0.00     0.223 HD
ENDBRANCH  14  17
ENDBRANCH  13  14
ENDBRANCH  12  13
ENDBRANCH   1  12
BRANCH   1  19
HETATM   19  N           1     -21.237  -5.558  -2.807  0.00  0.00    -0.064 N 
HETATM   20  H           1     -21.187  -5.459  -1.768  0.00  0.00     0.275 HD
HETATM   21  H           1     -20.270  -5.558  -3.203  0.00  0.00     0.275 HD
HETATM   22  H           1     -21.778  -4.760  -3.208  0.00  0.00     0.275 HD
ENDBRANCH   1  19
TORSDOF 7
ENDMDL
MODEL 6
REMARK VINA RESULT:      -5.0      3.913      7.608
REMARK  7 active torsions:
REMARK  status: ('A' for Active; 'I' for Inactive)
REMARK    1  A    between atoms: C_10  and  C_12 
REMARK       I    between atoms: N_13  and  C_14 
REMARK    2  A    between atoms: C_14  and  C_15 
REMARK    3  A    between atoms: C_15  and  C_16 
REMARK    4  A    between atoms: C_15  and  N_22 
REMARK    5  A    between atoms: C_16  and  O_17 
REMARK    6  A    between atoms: O_17  and  P_18 
REMARK    7  A    between atoms: P_18  and  O_20 
ROOT
HETATM    1  C           1     -22.063  -6.815  -5.033  0.00  0.00     0.298 C 
ENDROOT
BRANCH   1   2
HETATM    2  C           1     -21.516  -7.191  -3.678  0.00  0.00     0.253 C 
HETATM    3  O           1     -21.163  -6.328  -2.909  0.00  0.00    -0.271 OA
HETATM    4  N           1     -21.421  -8.509  -3.320  0.00  0.00    -0.336 N 
HETATM    5  C           1     -21.797  -9.676  -4.112  0.00  0.00     0.127 C 
HETATM    6  C           1     -20.921  -9.054  -2.061  0.00  0.00     0.188 C 
HETATM    7  C           1     -22.451 -10.604  -3.104  0.00  0.00     0.022 C 
HETATM    8  C           1     -21.877 -10.192  -1.753  0.00  0.00     0.038 C 
BRANCH   6   9
HETATM    9  C           1     -19.510  -9.566  -2.220  0.00  0.00     0.196 C 
HETATM   10  O           1     -19.174 -10.648  -1.690  0.00  0.00    -0.646 OA
HETATM   11  O           1     -18.677  -8.909  -2.881  0.00  0.00    -0.646 OA
ENDBRANCH   6   9
ENDBRANCH   1   2
BRANCH   1  12
HETATM   12  C           1     -21.142  -5.795  -5.689  0.00  0.00     0.224 C 
BRANCH  12  13
HETATM   13  O           1     -21.371  -5.777  -7.071  0.00  0.00    -0.287 OA
BRANCH  13  14
HETATM   14  P           1     -22.000  -4.413  -7.666  0.00  0.00     0.406 P 
HETATM   15  O           1     -21.868  -4.410  -9.140  0.00  0.00    -0.624 OA
HETATM   16  O           1     -21.279  -3.250  -7.103  0.00  0.00    -0.624 OA
BRANCH  14  17
HETATM   17  O           1     -23.562  -4.323  -7.266  0.00  0.00    -0.300 OA
HETATM   18  H           1     -23.628  -4.767  -6.437  0.00  0.00     0.223 HD
ENDBRANCH  14  17
ENDBRANCH  13  14
ENDBRANCH  12  13
ENDBRANCH   1  12
BRANCH   1  19
HETATM   19  N           1     -23.431  -6.220  -4.872  0.00  0.00    -0.064 N 
HETATM   20  H           1     -23.515  -5.792  -3.922  0.00  0.00     0.275 HD
HETATM   21  H           1     -23.578  -5.484  -5.598  0.00  0.00     0.275 HD
HETATM   22  H           1     -24.152  -6.968  -4.981  0.00  0.00     0.275 HD
ENDBRANCH   1  19
TORSDOF 7
ENDMDL
MODEL 7
REMARK VINA RESULT:      -5.0      5.867      9.127
REMARK  7 active torsions:
REMARK  status: ('A' for Active; 'I' for Inactive)
REMARK    1  A    between atoms: C_10  and  C_12 
REMARK       I    between atoms: N_13  and  C_14 
REMARK    2  A    between atoms: C_14  and  C_15 
REMARK    3  A    between atoms: C_15  and  C_16 
REMARK    4  A    between atoms: C_15  and  N_22 
REMARK    5  A    between atoms: C_16  and  O_17 
REMARK    6  A    between atoms: O_17  and  P_18 
REMARK    7  A    between atoms: P_18  and  O_20 
ROOT
HETATM    1  C           1     -22.051  -7.417  -2.270  0.00  0.00     0.298 C 
ENDROOT
BRANCH   1   2
HETATM    2  C           1     -21.898  -8.237  -1.013  0.00  0.00     0.253 C 
HETATM    3  O           1     -21.490  -7.720   0.000  0.00  0.00    -0.271 OA
HETATM    4  N           1     -22.222  -9.567  -1.020  0.00  0.00    -0.336 N 
HETATM    5  C           1     -22.727 -10.354  -2.141  0.00  0.00     0.127 C 
HETATM    6  C           1     -22.139 -10.509   0.093  0.00  0.00     0.188 C 
HETATM    7  C           1     -23.785 -11.244  -1.514  0.00  0.00     0.022 C 
HETATM    8  C           1     -23.401 -11.343  -0.042  0.00  0.00     0.038 C 
BRANCH   6   9
HETATM    9  C           1     -20.908 -11.374  -0.026  0.00  0.00     0.196 C 
HETATM   10  O           1     -20.992 -12.608   0.153  0.00  0.00    -0.646 OA
HETATM   11  O           1     -19.804 -10.856  -0.302  0.00  0.00    -0.646 OA
ENDBRANCH   6   9
ENDBRANCH   1   2
BRANCH   1  12
HETATM   12  C           1     -20.760  -7.476  -3.075  0.00  0.00     0.224 C 
BRANCH  12  13
HETATM   13  O           1     -21.056  -7.755  -4.416  0.00  0.00    -0.287 OA
BRANCH  13  14
HETATM   14  P           1     -21.365  -6.478  -5.354  0.00  0.00     0.406 P 
HETATM   15  O           1     -21.072  -6.818  -6.765  0.00  0.00    -0.624 OA
HETATM   16  O           1     -20.516  -5.341  -4.934  0.00  0.00    -0.624 OA
BRANCH  14  17
HETATM   17  O           1     -22.921  -6.070  -5.212  0.00  0.00    -0.300 OA
HETATM   18  H           1     -23.375  -6.884  -5.074  0.00  0.00     0.223 HD
ENDBRANCH  14  17
ENDBRANCH  13  14
ENDBRANCH  12  13
ENDBRANCH   1  12
BRANCH   1  19
HETATM   19  N           1     -22.345  -5.992  -1.903  0.00  0.00    -0.064 N 
HETATM   20  H           1     -22.476  -5.428  -2.774  0.00  0.00     0.275 HD
HETATM   21  H           1     -23.218  -5.954  -1.330  0.00  0.00     0.275 HD
HETATM   22  H           1     -21.548  -5.602  -1.353  0.00  0.00     0.275 HD
ENDBRANCH   1  19
TORSDOF 7
ENDMDL
MODEL 8
REMARK VINA RESULT:      -4.8      6.022      8.559
REMARK  7 active torsions:
REMARK  status: ('A' for Active; 'I' for Inactive)
REMARK    1  A    between atoms: C_10  and  C_12 
REMARK       I    between atoms: N_13  and  C_14 
REMARK    2  A    between atoms: C_14  and  C_15 
REMARK    3  A    between atoms: C_15  and  C_16 
REMARK    4  A    between atoms: C_15  and  N_22 
REMARK    5  A    between atoms: C_16  and  O_17 
REMARK    6  A    between atoms: O_17  and  P_18 
REMARK    7  A    between atoms: P_18  and  O_20 
ROOT
HETATM    1  C           1     -19.251  -8.875  -2.933  0.00  0.00     0.298 C 
ENDROOT
BRANCH   1   2
HETATM    2  C           1     -19.943  -9.649  -1.839  0.00  0.00     0.253 C 
HETATM    3  O           1     -19.496 -10.710  -1.474  0.00  0.00    -0.271 OA
HETATM    4  N           1     -21.078  -9.148  -1.259  0.00  0.00    -0.336 N 
HETATM    5  C           1     -21.756  -7.893  -1.568  0.00  0.00     0.127 C 
HETATM    6  C           1     -21.875  -9.754  -0.196  0.00  0.00     0.188 C 
HETATM    7  C           1     -22.166  -7.356  -0.208  0.00  0.00     0.022 C 
HETATM    8  C           1     -22.240  -8.580   0.697  0.00  0.00     0.038 C 
BRANCH   6   9
HETATM    9  C           1     -23.114 -10.407  -0.757  0.00  0.00     0.196 C 
HETATM   10  O           1     -24.163 -10.445  -0.079  0.00  0.00    -0.646 OA
HETATM   11  O           1     -23.090 -10.911  -1.902  0.00  0.00    -0.646 OA
ENDBRANCH   6   9
ENDBRANCH   1   2
BRANCH   1  12
HETATM   12  C           1     -19.909  -9.186  -4.271  0.00  0.00     0.224 C 
BRANCH  12  13
HETATM   13  O           1     -19.670  -8.135  -5.167  0.00  0.00    -0.287 OA
BRANCH  13  14
HETATM   14  P           1     -20.911  -7.136  -5.433  0.00  0.00     0.406 P 
HETATM   15  O           1     -22.171  -7.792  -5.020  0.00  0.00    -0.624 OA
HETATM   16  O           1     -20.976  -6.804  -6.874  0.00  0.00    -0.624 OA
BRANCH  14  17
HETATM   17  O           1     -20.704  -5.782  -4.578  0.00  0.00    -0.300 OA
HETATM   18  H           1     -21.546  -5.360  -4.581  0.00  0.00     0.223 HD
ENDBRANCH  14  17
ENDBRANCH  13  14
ENDBRANCH  12  13
ENDBRANCH   1  12
BRANCH   1  19
HETATM   19  N           1     -17.804  -9.270  -2.986  0.00  0.00    -0.064 N 
HETATM   20  H           1     -17.576  -9.866  -2.158  0.00  0.00     0.275 HD
HETATM   21  H           1     -17.623  -9.809  -3.862  0.00  0.00     0.275 HD
HETATM   22  H           1     -17.208  -8.413  -2.973  0.00  0.00     0.275 HD
ENDBRANCH   1  19
TORSDOF 7
ENDMDL
MODEL 9
REMARK VINA RESULT:      -4.8      3.314      6.947
REMARK  7 active torsions:
REMARK  status: ('A' for Active; 'I' for Inactive)
REMARK    1  A    between atoms: C_10  and  C_12 
REMARK       I    between atoms: N_13  and  C_14 
REMARK    2  A    between atoms: C_14  and  C_15 
REMARK    3  A    between atoms: C_15  and  C_16 
REMARK    4  A    between atoms: C_15  and  N_22 
REMARK    5  A    between atoms: C_16  and  O_17 
REMARK    6  A    between atoms: O_17  and  P_18 
REMARK    7  A    between atoms: P_18  and  O_20 
ROOT
HETATM    1  C           1     -20.910  -5.879  -5.792  0.00  0.00     0.298 C 
ENDROOT
BRANCH   1   2
HETATM    2  C           1     -20.427  -7.150  -5.138  0.00  0.00     0.253 C 
HETATM    3  O           1     -19.605  -7.841  -5.693  0.00  0.00    -0.271 OA
HETATM    4  N           1     -20.918  -7.520  -3.914  0.00  0.00    -0.336 N 
HETATM    5  C           1     -21.906  -6.815  -3.102  0.00  0.00     0.127 C 
HETATM    6  C           1     -20.570  -8.706  -3.137  0.00  0.00     0.188 C 
HETATM    7  C           1     -21.376  -6.952  -1.686  0.00  0.00     0.022 C 
HETATM    8  C           1     -20.493  -8.195  -1.710  0.00  0.00     0.038 C 
BRANCH   6   9
HETATM    9  C           1     -21.633  -9.768  -3.271  0.00  0.00     0.196 C 
HETATM   10  O           1     -22.205 -10.212  -2.252  0.00  0.00    -0.646 OA
HETATM   11  O           1     -21.942 -10.205  -4.401  0.00  0.00    -0.646 OA
ENDBRANCH   6   9
ENDBRANCH   1   2
BRANCH   1  12
HETATM   12  C           1     -20.702  -5.972  -7.297  0.00  0.00     0.224 C 
BRANCH  12  13
HETATM   13  O           1     -21.863  -5.549  -7.958  0.00  0.00    -0.287 OA
BRANCH  13  14
HETATM   14  P           1     -21.843  -4.037  -8.525  0.00  0.00     0.406 P 
HETATM   15  O           1     -21.483  -3.104  -7.433  0.00  0.00    -0.624 OA
HETATM   16  O           1     -23.182  -3.689  -9.050  0.00  0.00    -0.624 OA
BRANCH  14  17
HETATM   17  O           1     -20.753  -3.921  -9.711  0.00  0.00    -0.300 OA
HETATM   18  H           1     -21.098  -3.267 -10.296  0.00  0.00     0.223 HD
ENDBRANCH  14  17
ENDBRANCH  13  14
ENDBRANCH  12  13
ENDBRANCH   1  12
BRANCH   1  19
HETATM   19  N           1     -20.134  -4.714  -5.252  0.00  0.00    -0.064 N 
HETATM   20  H           1     -19.115  -4.950  -5.241  0.00  0.00     0.275 HD
HETATM   21  H           1     -20.290  -3.880  -5.861  0.00  0.00     0.275 HD
HETATM   22  H           1     -20.453  -4.502  -4.280  0.00  0.00     0.275 HD
ENDBRANCH   1  19
TORSDOF 7
ENDMDL
