MODEL 1
REMARK VINA RESULT:      -6.9      0.000      0.000
REMARK  14 active torsions:
REMARK  status: ('A' for Active; 'I' for Inactive)
REMARK    1  A    between atoms: C_1  and  C_28 
REMARK    2  A    between atoms: C_1  and  C_16 
REMARK    3  A    between atoms: C_5  and  C_16 
REMARK    4  A    between atoms: C_6  and  C_7 
REMARK    5  A    between atoms: C_6  and  C_26 
REMARK    6  A    between atoms: C_6  and  N_29 
REMARK       I    between atoms: C_7  and  N_8 
REMARK    7  A    between atoms: N_8  and  C_16 
REMARK    8  A    between atoms: C_10  and  C_24 
REMARK    9  A    between atoms: C_10  and  C_11 
REMARK   10  A    between atoms: C_10  and  N_27 
REMARK   11  A    between atoms: C_18  and  C_25 
REMARK   12  A    between atoms: C_18  and  N_19 
REMARK       I    between atoms: N_19  and  C_20 
REMARK       I    between atoms: C_20  and  N_21 
REMARK   13  A    between atoms: C_25  and  C_26 
REMARK   14  A    between atoms: N_27  and  C_28 
ROOT
HETATM    1  C           1     -20.366  -6.964  -6.065  0.00  0.00     0.249 C 
HETATM    2  N           1     -20.451  -7.945  -5.113  0.00  0.00    -0.345 N 
HETATM    3  H           1     -21.251  -7.978  -4.493  0.00  0.00     0.163 HD
HETATM    4  O           1     -19.411  -6.923  -6.806  0.00  0.00    -0.271 OA
ENDROOT
BRANCH   1   5
HETATM    5  C           1     -21.461  -5.934  -6.189  0.00  0.00     0.274 C 
BRANCH   5   6
HETATM    6  C           1     -20.850  -4.540  -6.190  0.00  0.00     0.044 C 
BRANCH   6   7
HETATM    7  C           1     -21.563  -3.674  -7.221  0.00  0.00     0.023 C 
BRANCH   7   8
HETATM    8  C           1     -22.384  -4.560  -8.149  0.00  0.00     0.138 C 
BRANCH   8   9
HETATM    9  N           1     -23.710  -3.960  -8.357  0.00  0.00    -0.227 N 
HETATM   10  H           1     -24.187  -3.455  -7.569  0.00  0.00     0.177 HD
HETATM   11  C           1     -24.275  -4.051  -9.486  0.00  0.00     0.665 C 
HETATM   12  N           1     -25.416  -3.534  -9.666  0.00  0.00    -0.235 N 
HETATM   13  N           1     -23.683  -4.675 -10.461  0.00  0.00    -0.235 N 
HETATM   14  H           1     -25.893  -3.029  -8.878  0.00  0.00     0.174 HD
HETATM   15  H           1     -25.886  -3.608 -10.602  0.00  0.00     0.174 HD
HETATM   16  H           1     -22.742  -5.102 -10.313  0.00  0.00     0.174 HD
HETATM   17  H           1     -24.151  -4.750 -11.392  0.00  0.00     0.174 HD
ENDBRANCH   8   9
ENDBRANCH   7   8
ENDBRANCH   6   7
ENDBRANCH   5   6
BRANCH   5  18
HETATM   18  N           1     -22.404  -6.066  -5.031  0.00  0.00    -0.067 N 
HETATM   19  H           1     -22.045  -6.791  -4.370  0.00  0.00     0.275 HD
HETATM   20  H           1     -23.348  -6.348  -5.379  0.00  0.00     0.275 HD
HETATM   21  H           1     -22.477  -5.148  -4.535  0.00  0.00     0.275 HD
ENDBRANCH   5  18
ENDBRANCH   1   5
BRANCH   2  22
HETATM   22  C           1     -19.398  -8.934  -4.995  0.00  0.00     0.187 C 
BRANCH  22  23
HETATM   23  C           1     -19.024  -9.102  -3.528  0.00  0.00     0.066 C 
BRANCH  23  24
HETATM   24  C           1     -20.206  -9.690  -2.767  0.00  0.00     0.273 C 
BRANCH  24  25
HETATM   25  N           1     -20.389  -8.970  -1.535  0.00  0.00     0.098 N 
HETATM   26  H           1     -19.794  -8.141  -1.535  0.00  0.00     0.317 HD
BRANCH  25  27
HETATM   27  C           1     -21.768  -8.573  -1.461  0.00  0.00     0.323 C 
BRANCH  27  28
HETATM   28  C           1     -22.333  -8.953  -0.099  0.00  0.00     0.021 C 
HETATM   29  C           1     -21.198  -9.399   0.813  0.00  0.00     0.012 C 
HETATM   30  C           1     -23.331 -10.091  -0.264  0.00  0.00     0.012 C 
ENDBRANCH  27  28
BRANCH  27  31
HETATM   31  C           1     -21.871  -7.080  -1.651  0.00  0.00     0.207 C 
HETATM   32  O           1     -21.159  -6.507  -2.504  0.00  0.00    -0.646 OA
HETATM   33  O           1     -22.668  -6.415  -0.954  0.00  0.00    -0.646 OA
ENDBRANCH  27  31
ENDBRANCH  25  27
ENDBRANCH  24  25
ENDBRANCH  23  24
ENDBRANCH  22  23
BRANCH  22  34
HETATM   34  C           1     -19.882 -10.252  -5.546  0.00  0.00     0.196 C 
HETATM   35  O           1     -19.129 -11.250  -5.535  0.00  0.00    -0.646 OA
HETATM   36  O           1     -21.038 -10.348  -6.013  0.00  0.00    -0.646 OA
ENDBRANCH  22  34
ENDBRANCH   2  22
TORSDOF 14
ENDMDL
MODEL 2
REMARK VINA RESULT:      -6.7      2.829      8.048
REMARK  14 active torsions:
REMARK  status: ('A' for Active; 'I' for Inactive)
REMARK    1  A    between atoms: C_1  and  C_28 
REMARK    2  A    between atoms: C_1  and  C_16 
REMARK    3  A    between atoms: C_5  and  C_16 
REMARK    4  A    between atoms: C_6  and  C_7 
REMARK    5  A    between atoms: C_6  and  C_26 
REMARK    6  A    between atoms: C_6  and  N_29 
REMARK       I    between atoms: C_7  and  N_8 
REMARK    7  A    between atoms: N_8  and  C_16 
REMARK    8  A    between atoms: C_10  and  C_24 
REMARK    9  A    between atoms: C_10  and  C_11 
REMARK   10  A    between atoms: C_10  and  N_27 
REMARK   11  A    between atoms: C_18  and  C_25 
REMARK   12  A    between atoms: C_18  and  N_19 
REMARK       I    between atoms: N_19  and  C_20 
REMARK       I    between atoms: C_20  and  N_21 
REMARK   13  A    between atoms: C_25  and  C_26 
REMARK   14  A    between atoms: N_27  and  C_28 
ROOT
HETATM    1  C           1     -21.426  -6.542  -4.194  0.00  0.00     0.249 C 
HETATM    2  N           1     -20.976  -5.446  -4.881  0.00  0.00    -0.345 N 
HETATM    3  H           1     -20.570  -4.666  -4.378  0.00  0.00     0.163 HD
HETATM    4  O           1     -21.911  -7.472  -4.794  0.00  0.00    -0.271 OA
ENDROOT
BRANCH   1   5
HETATM    5  C           1     -21.320  -6.587  -2.690  0.00  0.00     0.274 C 
BRANCH   5   6
HETATM    6  C           1     -21.294  -8.036  -2.225  0.00  0.00     0.044 C 
BRANCH   6   7
HETATM    7  C           1     -19.859  -8.546  -2.233  0.00  0.00     0.023 C 
BRANCH   7   8
HETATM    8  C           1     -19.778  -9.823  -3.058  0.00  0.00     0.138 C 
BRANCH   8   9
HETATM    9  N           1     -19.542  -9.483  -4.469  0.00  0.00    -0.227 N 
HETATM   10  H           1     -20.328  -9.113  -5.059  0.00  0.00     0.177 HD
HETATM   11  C           1     -18.390  -9.635  -4.973  0.00  0.00     0.665 C 
HETATM   12  N           1     -18.186  -9.342  -6.187  0.00  0.00    -0.235 N 
HETATM   13  N           1     -17.417 -10.092  -4.242  0.00  0.00    -0.235 N 
HETATM   14  H           1     -18.973  -8.971  -6.776  0.00  0.00     0.174 HD
HETATM   15  H           1     -17.231  -9.467  -6.605  0.00  0.00     0.174 HD
HETATM   16  H           1     -17.585 -10.335  -3.240  0.00  0.00     0.174 HD
HETATM   17  H           1     -16.467 -10.218  -4.658  0.00  0.00     0.174 HD
ENDBRANCH   8   9
ENDBRANCH   7   8
ENDBRANCH   6   7
ENDBRANCH   5   6
BRANCH   5  18
HETATM   18  N           1     -22.500  -5.888  -2.084  0.00  0.00    -0.067 N 
HETATM   19  H           1     -22.402  -4.856  -2.223  0.00  0.00     0.275 HD
HETATM   20  H           1     -22.544  -6.099  -1.061  0.00  0.00     0.275 HD
HETATM   21  H           1     -23.377  -6.221  -2.546  0.00  0.00     0.275 HD
ENDBRANCH   5  18
ENDBRANCH   1   5
BRANCH   2  22
HETATM   22  C           1     -21.079  -5.403  -6.326  0.00  0.00     0.187 C 
BRANCH  22  23
HETATM   23  C           1     -21.568  -4.026  -6.758  0.00  0.00     0.066 C 
BRANCH  23  24
HETATM   24  C           1     -22.771  -4.180  -7.679  0.00  0.00     0.273 C 
BRANCH  24  25
HETATM   25  N           1     -22.355  -4.787  -8.915  0.00  0.00     0.098 N 
HETATM   26  H           1     -22.899  -5.635  -9.077  0.00  0.00     0.317 HD
BRANCH  25  27
HETATM   27  C           1     -22.609  -3.845  -9.970  0.00  0.00     0.323 C 
BRANCH  27  28
HETATM   28  C           1     -21.533  -3.980 -11.039  0.00  0.00     0.021 C 
HETATM   29  C           1     -20.295  -4.630 -10.433  0.00  0.00     0.012 C 
HETATM   30  C           1     -21.173  -2.600 -11.574  0.00  0.00     0.012 C 
ENDBRANCH  27  28
BRANCH  27  31
HETATM   31  C           1     -23.961  -4.124 -10.579  0.00  0.00     0.207 C 
HETATM   32  O           1     -24.232  -5.269 -11.001  0.00  0.00    -0.646 OA
HETATM   33  O           1     -24.810  -3.211 -10.662  0.00  0.00    -0.646 OA
ENDBRANCH  27  31
ENDBRANCH  25  27
ENDBRANCH  24  25
ENDBRANCH  23  24
ENDBRANCH  22  23
BRANCH  22  34
HETATM   34  C           1     -19.725  -5.670  -6.935  0.00  0.00     0.196 C 
HETATM   35  O           1     -18.981  -4.716  -7.250  0.00  0.00    -0.646 OA
HETATM   36  O           1     -19.346  -6.847  -7.124  0.00  0.00    -0.646 OA
ENDBRANCH  22  34
ENDBRANCH   2  22
TORSDOF 14
ENDMDL
MODEL 3
REMARK VINA RESULT:      -6.5     14.691     17.544
REMARK  14 active torsions:
REMARK  status: ('A' for Active; 'I' for Inactive)
REMARK    1  A    between atoms: C_1  and  C_28 
REMARK    2  A    between atoms: C_1  and  C_16 
REMARK    3  A    between atoms: C_5  and  C_16 
REMARK    4  A    between atoms: C_6  and  C_7 
REMARK    5  A    between atoms: C_6  and  C_26 
REMARK    6  A    between atoms: C_6  and  N_29 
REMARK       I    between atoms: C_7  and  N_8 
REMARK    7  A    between atoms: N_8  and  C_16 
REMARK    8  A    between atoms: C_10  and  C_24 
REMARK    9  A    between atoms: C_10  and  C_11 
REMARK   10  A    between atoms: C_10  and  N_27 
REMARK   11  A    between atoms: C_18  and  C_25 
REMARK   12  A    between atoms: C_18  and  N_19 
REMARK       I    between atoms: N_19  and  C_20 
REMARK       I    between atoms: C_20  and  N_21 
REMARK   13  A    between atoms: C_25  and  C_26 
REMARK   14  A    between atoms: N_27  and  C_28 
ROOT
HETATM    1  C           1     -34.314  -2.963 -16.143  0.00  0.00     0.249 C 
HETATM    2  N           1     -34.773  -1.696 -16.391  0.00  0.00    -0.345 N 
HETATM    3  H           1     -34.513  -1.223 -17.247  0.00  0.00     0.163 HD
HETATM    4  O           1     -34.624  -3.528 -15.121  0.00  0.00    -0.271 OA
ENDROOT
BRANCH   1   5
HETATM    5  C           1     -33.421  -3.652 -17.145  0.00  0.00     0.274 C 
BRANCH   5   6
HETATM    6  C           1     -32.766  -4.863 -16.496  0.00  0.00     0.044 C 
BRANCH   6   7
HETATM    7  C           1     -31.252  -4.742 -16.609  0.00  0.00     0.023 C 
BRANCH   7   8
HETATM    8  C           1     -30.658  -6.103 -16.949  0.00  0.00     0.138 C 
BRANCH   8   9
HETATM    9  N           1     -29.336  -6.234 -16.318  0.00  0.00    -0.227 N 
HETATM   10  H           1     -28.942  -5.439 -15.756  0.00  0.00     0.177 HD
HETATM   11  C           1     -28.674  -7.304 -16.453  0.00  0.00     0.665 C 
HETATM   12  N           1     -27.536  -7.417 -15.910  0.00  0.00    -0.235 N 
HETATM   13  N           1     -29.163  -8.288 -17.149  0.00  0.00    -0.235 N 
HETATM   14  H           1     -27.142  -6.623 -15.347  0.00  0.00     0.174 HD
HETATM   15  H           1     -26.987  -8.305 -16.021  0.00  0.00     0.174 HD
HETATM   16  H           1     -30.102  -8.194 -17.597  0.00  0.00     0.174 HD
HETATM   17  H           1     -28.616  -9.171 -17.260  0.00  0.00     0.174 HD
ENDBRANCH   8   9
ENDBRANCH   7   8
ENDBRANCH   6   7
ENDBRANCH   5   6
BRANCH   5  18
HETATM   18  N           1     -32.360  -2.698 -17.608  0.00  0.00    -0.067 N 
HETATM   19  H           1     -32.476  -2.519 -18.632  0.00  0.00     0.275 HD
HETATM   20  H           1     -31.417  -3.112 -17.432  0.00  0.00     0.275 HD
HETATM   21  H           1     -32.449  -1.798 -17.084  0.00  0.00     0.275 HD
ENDBRANCH   5  18
ENDBRANCH   1   5
BRANCH   2  22
HETATM   22  C           1     -35.630  -1.035 -15.427  0.00  0.00     0.187 C 
BRANCH  22  23
HETATM   23  C           1     -34.796  -0.090 -14.571  0.00  0.00     0.066 C 
BRANCH  23  24
HETATM   24  C           1     -35.448   0.066 -13.204  0.00  0.00     0.273 C 
BRANCH  24  25
HETATM   25  N           1     -34.713  -0.698 -12.232  0.00  0.00     0.098 N 
HETATM   26  H           1     -34.369  -0.075 -11.501  0.00  0.00     0.317 HD
BRANCH  25  27
HETATM   27  C           1     -35.614  -1.659 -11.659  0.00  0.00     0.323 C 
BRANCH  27  28
HETATM   28  C           1     -34.827  -2.650 -10.812  0.00  0.00     0.021 C 
HETATM   29  C           1     -33.336  -2.438 -11.039  0.00  0.00     0.012 C 
HETATM   30  C           1     -35.206  -4.070 -11.210  0.00  0.00     0.012 C 
ENDBRANCH  27  28
BRANCH  27  31
HETATM   31  C           1     -36.624  -0.947 -10.792  0.00  0.00     0.207 C 
HETATM   32  O           1     -37.844  -1.038 -11.050  0.00  0.00    -0.646 OA
HETATM   33  O           1     -36.240  -0.266  -9.817  0.00  0.00    -0.646 OA
ENDBRANCH  27  31
ENDBRANCH  25  27
ENDBRANCH  24  25
ENDBRANCH  23  24
ENDBRANCH  22  23
BRANCH  22  34
HETATM   34  C           1     -36.693  -0.250 -16.155  0.00  0.00     0.196 C 
HETATM   35  O           1     -36.677   1.000 -16.128  0.00  0.00    -0.646 OA
HETATM   36  O           1     -37.590  -0.850 -16.786  0.00  0.00    -0.646 OA
ENDBRANCH  22  34
ENDBRANCH   2  22
TORSDOF 14
ENDMDL
MODEL 4
REMARK VINA RESULT:      -6.5      1.677      4.239
REMARK  14 active torsions:
REMARK  status: ('A' for Active; 'I' for Inactive)
REMARK    1  A    between atoms: C_1  and  C_28 
REMARK    2  A    between atoms: C_1  and  C_16 
REMARK    3  A    between atoms: C_5  and  C_16 
REMARK    4  A    between atoms: C_6  and  C_7 
REMARK    5  A    between atoms: C_6  and  C_26 
REMARK    6  A    between atoms: C_6  and  N_29 
REMARK       I    between atoms: C_7  and  N_8 
REMARK    7  A    between atoms: N_8  and  C_16 
REMARK    8  A    between atoms: C_10  and  C_24 
REMARK    9  A    between atoms: C_10  and  C_11 
REMARK   10  A    between atoms: C_10  and  N_27 
REMARK   11  A    between atoms: C_18  and  C_25 
REMARK   12  A    between atoms: C_18  and  N_19 
REMARK       I    between atoms: N_19  and  C_20 
REMARK       I    between atoms: C_20  and  N_21 
REMARK   13  A    between atoms: C_25  and  C_26 
REMARK   14  A    between atoms: N_27  and  C_28 
ROOT
HETATM    1  C           1     -21.754  -6.250  -4.993  0.00  0.00     0.249 C 
HETATM    2  N           1     -21.110  -6.902  -3.974  0.00  0.00    -0.345 N 
HETATM    3  H           1     -20.101  -6.875  -3.916  0.00  0.00     0.163 HD
HETATM    4  O           1     -22.960  -6.283  -5.063  0.00  0.00    -0.271 OA
ENDROOT
BRANCH   1   5
HETATM    5  C           1     -20.958  -5.494  -6.027  0.00  0.00     0.274 C 
BRANCH   5   6
HETATM    6  C           1     -21.884  -4.573  -6.808  0.00  0.00     0.044 C 
BRANCH   6   7
HETATM    7  C           1     -21.103  -3.901  -7.930  0.00  0.00     0.023 C 
BRANCH   7   8
HETATM    8  C           1     -21.899  -3.987  -9.226  0.00  0.00     0.138 C 
BRANCH   8   9
HETATM    9  N           1     -23.295  -3.600  -8.972  0.00  0.00    -0.227 N 
HETATM   10  H           1     -23.543  -3.077  -8.095  0.00  0.00     0.177 HD
HETATM   11  C           1     -24.196  -3.896  -9.810  0.00  0.00     0.665 C 
HETATM   12  N           1     -25.398  -3.563  -9.592  0.00  0.00    -0.235 N 
HETATM   13  N           1     -23.887  -4.542 -10.895  0.00  0.00    -0.235 N 
HETATM   14  H           1     -25.646  -3.040  -8.716  0.00  0.00     0.174 HD
HETATM   15  H           1     -26.146  -3.808 -10.287  0.00  0.00     0.174 HD
HETATM   16  H           1     -22.896  -4.817 -11.075  0.00  0.00     0.174 HD
HETATM   17  H           1     -24.632  -4.787 -11.586  0.00  0.00     0.174 HD
ENDBRANCH   8   9
ENDBRANCH   7   8
ENDBRANCH   6   7
ENDBRANCH   5   6
BRANCH   5  18
HETATM   18  N           1     -20.308  -6.464  -6.967  0.00  0.00    -0.067 N 
HETATM   19  H           1     -21.032  -7.111  -7.354  0.00  0.00     0.275 HD
HETATM   20  H           1     -19.585  -7.018  -6.453  0.00  0.00     0.275 HD
HETATM   21  H           1     -19.853  -5.940  -7.749  0.00  0.00     0.275 HD
ENDBRANCH   5  18
ENDBRANCH   1   5
BRANCH   2  22
HETATM   22  C           1     -21.876  -7.630  -2.981  0.00  0.00     0.187 C 
BRANCH  22  23
HETATM   23  C           1     -21.099  -8.867  -2.549  0.00  0.00     0.066 C 
BRANCH  23  24
HETATM   24  C           1     -19.631  -8.506  -2.366  0.00  0.00     0.273 C 
BRANCH  24  25
HETATM   25  N           1     -18.813  -9.644  -2.689  0.00  0.00     0.098 N 
HETATM   26  H           1     -19.408 -10.464  -2.818  0.00  0.00     0.317 HD
BRANCH  25  27
HETATM   27  C           1     -18.124  -9.353  -3.915  0.00  0.00     0.323 C 
BRANCH  27  28
HETATM   28  C           1     -16.806 -10.115  -3.949  0.00  0.00     0.021 C 
HETATM   29  C           1     -15.953  -9.706  -2.755  0.00  0.00     0.012 C 
HETATM   30  C           1     -16.065  -9.790  -5.239  0.00  0.00     0.012 C 
ENDBRANCH  27  28
BRANCH  27  31
HETATM   31  C           1     -18.979  -9.774  -5.085  0.00  0.00     0.207 C 
HETATM   32  O           1     -19.242 -10.984  -5.263  0.00  0.00    -0.646 OA
HETATM   33  O           1     -19.423  -8.915  -5.876  0.00  0.00    -0.646 OA
ENDBRANCH  27  31
ENDBRANCH  25  27
ENDBRANCH  24  25
ENDBRANCH  23  24
ENDBRANCH  22  23
BRANCH  22  34
HETATM   34  C           1     -22.119  -6.744  -1.785  0.00  0.00     0.196 C 
HETATM   35  O           1     -22.432  -7.249  -0.685  0.00  0.00    -0.646 OA
HETATM   36  O           1     -22.005  -5.503  -1.892  0.00  0.00    -0.646 OA
ENDBRANCH  22  34
ENDBRANCH   2  22
TORSDOF 14
ENDMDL
MODEL 5
REMARK VINA RESULT:      -6.3     13.120     15.380
REMARK  14 active torsions:
REMARK  status: ('A' for Active; 'I' for Inactive)
REMARK    1  A    between atoms: C_1  and  C_28 
REMARK    2  A    between atoms: C_1  and  C_16 
REMARK    3  A    between atoms: C_5  and  C_16 
REMARK    4  A    between atoms: C_6  and  C_7 
REMARK    5  A    between atoms: C_6  and  C_26 
REMARK    6  A    between atoms: C_6  and  N_29 
REMARK       I    between atoms: C_7  and  N_8 
REMARK    7  A    between atoms: N_8  and  C_16 
REMARK    8  A    between atoms: C_10  and  C_24 
REMARK    9  A    between atoms: C_10  and  C_11 
REMARK   10  A    between atoms: C_10  and  N_27 
REMARK   11  A    between atoms: C_18  and  C_25 
REMARK   12  A    between atoms: C_18  and  N_19 
REMARK       I    between atoms: N_19  and  C_20 
REMARK       I    between atoms: C_20  and  N_21 
REMARK   13  A    between atoms: C_25  and  C_26 
REMARK   14  A    between atoms: N_27  and  C_28 
ROOT
HETATM    1  C           1     -30.775  -5.402 -16.489  0.00  0.00     0.249 C 
HETATM    2  N           1     -31.751  -4.674 -15.862  0.00  0.00    -0.345 N 
HETATM    3  H           1     -31.553  -4.217 -14.981  0.00  0.00     0.163 HD
HETATM    4  O           1     -31.011  -5.948 -17.541  0.00  0.00    -0.271 OA
ENDROOT
BRANCH   1   5
HETATM    5  C           1     -29.407  -5.524 -15.866  0.00  0.00     0.274 C 
BRANCH   5   6
HETATM    6  C           1     -28.643  -6.660 -16.533  0.00  0.00     0.044 C 
BRANCH   6   7
HETATM    7  C           1     -27.417  -7.006 -15.699  0.00  0.00     0.023 C 
BRANCH   7   8
HETATM    8  C           1     -26.187  -6.345 -16.306  0.00  0.00     0.138 C 
BRANCH   8   9
HETATM    9  N           1     -24.980  -7.070 -15.882  0.00  0.00    -0.227 N 
HETATM   10  H           1     -24.763  -7.176 -14.860  0.00  0.00     0.177 HD
HETATM   11  C           1     -24.202  -7.565 -16.750  0.00  0.00     0.665 C 
HETATM   12  N           1     -23.163  -8.189 -16.386  0.00  0.00    -0.235 N 
HETATM   13  N           1     -24.471  -7.433 -18.015  0.00  0.00    -0.235 N 
HETATM   14  H           1     -22.946  -8.297 -15.364  0.00  0.00     0.174 HD
HETATM   15  H           1     -22.518  -8.601 -17.105  0.00  0.00     0.174 HD
HETATM   16  H           1     -25.328  -6.918 -18.316  0.00  0.00     0.174 HD
HETATM   17  H           1     -23.829  -7.842 -18.731  0.00  0.00     0.174 HD
ENDBRANCH   8   9
ENDBRANCH   7   8
ENDBRANCH   6   7
ENDBRANCH   5   6
BRANCH   5  18
HETATM   18  N           1     -29.548  -5.810 -14.401  0.00  0.00    -0.067 N 
HETATM   19  H           1     -30.294  -5.199 -13.997  0.00  0.00     0.275 HD
HETATM   20  H           1     -28.641  -5.617 -13.918  0.00  0.00     0.275 HD
HETATM   21  H           1     -29.807  -6.814 -14.265  0.00  0.00     0.275 HD
ENDBRANCH   5  18
ENDBRANCH   1   5
BRANCH   2  22
HETATM   22  C           1     -33.066  -4.557 -16.461  0.00  0.00     0.187 C 
BRANCH  22  23
HETATM   23  C           1     -34.124  -4.564 -15.365  0.00  0.00     0.066 C 
BRANCH  23  24
HETATM   24  C           1     -33.463  -4.297 -14.019  0.00  0.00     0.273 C 
BRANCH  24  25
HETATM   25  N           1     -34.472  -4.201 -12.999  0.00  0.00     0.098 N 
HETATM   26  H           1     -35.237  -4.841 -13.217  0.00  0.00     0.317 HD
BRANCH  25  27
HETATM   27  C           1     -33.870  -4.582 -11.751  0.00  0.00     0.323 C 
BRANCH  27  28
HETATM   28  C           1     -34.179  -3.528 -10.696  0.00  0.00     0.021 C 
HETATM   29  C           1     -35.622  -3.064 -10.852  0.00  0.00     0.012 C 
HETATM   30  C           1     -33.241  -2.341 -10.875  0.00  0.00     0.012 C 
ENDBRANCH  27  28
BRANCH  27  31
HETATM   31  C           1     -34.425  -5.913 -11.310  0.00  0.00     0.207 C 
HETATM   32  O           1     -35.145  -6.579 -12.087  0.00  0.00    -0.646 OA
HETATM   33  O           1     -34.168  -6.351 -10.168  0.00  0.00    -0.646 OA
ENDBRANCH  27  31
ENDBRANCH  25  27
ENDBRANCH  24  25
ENDBRANCH  23  24
ENDBRANCH  22  23
BRANCH  22  34
HETATM   34  C           1     -33.153  -3.267 -17.237  0.00  0.00     0.196 C 
HETATM   35  O           1     -32.206  -2.915 -17.974  0.00  0.00    -0.646 OA
HETATM   36  O           1     -34.172  -2.548 -17.144  0.00  0.00    -0.646 OA
ENDBRANCH  22  34
ENDBRANCH   2  22
TORSDOF 14
ENDMDL
MODEL 6
REMARK VINA RESULT:      -6.3     13.693     15.664
REMARK  14 active torsions:
REMARK  status: ('A' for Active; 'I' for Inactive)
REMARK    1  A    between atoms: C_1  and  C_28 
REMARK    2  A    between atoms: C_1  and  C_16 
REMARK    3  A    between atoms: C_5  and  C_16 
REMARK    4  A    between atoms: C_6  and  C_7 
REMARK    5  A    between atoms: C_6  and  C_26 
REMARK    6  A    between atoms: C_6  and  N_29 
REMARK       I    between atoms: C_7  and  N_8 
REMARK    7  A    between atoms: N_8  and  C_16 
REMARK    8  A    between atoms: C_10  and  C_24 
REMARK    9  A    between atoms: C_10  and  C_11 
REMARK   10  A    between atoms: C_10  and  N_27 
REMARK   11  A    between atoms: C_18  and  C_25 
REMARK   12  A    between atoms: C_18  and  N_19 
REMARK       I    between atoms: N_19  and  C_20 
REMARK       I    between atoms: C_20  and  N_21 
REMARK   13  A    between atoms: C_25  and  C_26 
REMARK   14  A    between atoms: N_27  and  C_28 
ROOT
HETATM    1  C           1     -30.739  -5.326 -16.218  0.00  0.00     0.249 C 
HETATM    2  N           1     -31.798  -4.626 -15.706  0.00  0.00    -0.345 N 
HETATM    3  H           1     -31.715  -4.170 -14.806  0.00  0.00     0.163 HD
HETATM    4  O           1     -30.838  -5.870 -17.292  0.00  0.00    -0.271 OA
ENDROOT
BRANCH   1   5
HETATM    5  C           1     -29.449  -5.420 -15.441  0.00  0.00     0.274 C 
BRANCH   5   6
HETATM    6  C           1     -28.590  -6.539 -16.013  0.00  0.00     0.044 C 
BRANCH   6   7
HETATM    7  C           1     -27.478  -5.940 -16.864  0.00  0.00     0.023 C 
BRANCH   7   8
HETATM    8  C           1     -26.153  -6.600 -16.506  0.00  0.00     0.138 C 
BRANCH   8   9
HETATM    9  N           1     -25.313  -6.700 -17.709  0.00  0.00    -0.227 N 
HETATM   10  H           1     -25.635  -6.271 -18.611  0.00  0.00     0.177 HD
HETATM   11  C           1     -24.201  -7.305 -17.656  0.00  0.00     0.665 C 
HETATM   12  N           1     -23.478  -7.391 -18.691  0.00  0.00    -0.235 N 
HETATM   13  N           1     -23.803  -7.836 -16.538  0.00  0.00    -0.235 N 
HETATM   14  H           1     -23.800  -6.960 -19.593  0.00  0.00     0.174 HD
HETATM   15  H           1     -22.556  -7.891 -18.648  0.00  0.00     0.174 HD
HETATM   16  H           1     -24.400  -7.765 -15.684  0.00  0.00     0.174 HD
HETATM   17  H           1     -22.886  -8.334 -16.495  0.00  0.00     0.174 HD
ENDBRANCH   8   9
ENDBRANCH   7   8
ENDBRANCH   6   7
ENDBRANCH   5   6
BRANCH   5  18
HETATM   18  N           1     -29.753  -5.709 -14.001  0.00  0.00    -0.067 N 
HETATM   19  H           1     -28.858  -5.805 -13.469  0.00  0.00     0.275 HD
HETATM   20  H           1     -30.297  -6.598 -13.930  0.00  0.00     0.275 HD
HETATM   21  H           1     -30.315  -4.924 -13.600  0.00  0.00     0.275 HD
ENDBRANCH   5  18
ENDBRANCH   1   5
BRANCH   2  22
HETATM   22  C           1     -33.037  -4.536 -16.453  0.00  0.00     0.187 C 
BRANCH  22  23
HETATM   23  C           1     -34.213  -4.514 -15.484  0.00  0.00     0.066 C 
BRANCH  23  24
HETATM   24  C           1     -33.716  -4.147 -14.092  0.00  0.00     0.273 C 
BRANCH  24  25
HETATM   25  N           1     -34.330  -2.915 -13.673  0.00  0.00     0.098 N 
HETATM   26  H           1     -35.128  -2.711 -14.276  0.00  0.00     0.317 HD
BRANCH  25  27
HETATM   27  C           1     -34.783  -3.090 -12.320  0.00  0.00     0.323 C 
BRANCH  27  28
HETATM   28  C           1     -33.600  -3.453 -11.433  0.00  0.00     0.021 C 
HETATM   29  C           1     -33.984  -4.616 -10.527  0.00  0.00     0.012 C 
HETATM   30  C           1     -33.216  -2.250 -10.582  0.00  0.00     0.012 C 
ENDBRANCH  27  28
BRANCH  27  31
HETATM   31  C           1     -35.405  -1.807 -11.829  0.00  0.00     0.207 C 
HETATM   32  O           1     -34.839  -0.713 -12.048  0.00  0.00    -0.646 OA
HETATM   33  O           1     -36.486  -1.836 -11.203  0.00  0.00    -0.646 OA
ENDBRANCH  27  31
ENDBRANCH  25  27
ENDBRANCH  24  25
ENDBRANCH  23  24
ENDBRANCH  22  23
BRANCH  22  34
HETATM   34  C           1     -33.039  -3.272 -17.276  0.00  0.00     0.196 C 
HETATM   35  O           1     -32.046  -2.982 -17.978  0.00  0.00    -0.646 OA
HETATM   36  O           1     -34.033  -2.514 -17.257  0.00  0.00    -0.646 OA
ENDBRANCH  22  34
ENDBRANCH   2  22
TORSDOF 14
ENDMDL
MODEL 7
REMARK VINA RESULT:      -6.2      1.473      1.968
REMARK  14 active torsions:
REMARK  status: ('A' for Active; 'I' for Inactive)
REMARK    1  A    between atoms: C_1  and  C_28 
REMARK    2  A    between atoms: C_1  and  C_16 
REMARK    3  A    between atoms: C_5  and  C_16 
REMARK    4  A    between atoms: C_6  and  C_7 
REMARK    5  A    between atoms: C_6  and  C_26 
REMARK    6  A    between atoms: C_6  and  N_29 
REMARK       I    between atoms: C_7  and  N_8 
REMARK    7  A    between atoms: N_8  and  C_16 
REMARK    8  A    between atoms: C_10  and  C_24 
REMARK    9  A    between atoms: C_10  and  C_11 
REMARK   10  A    between atoms: C_10  and  N_27 
REMARK   11  A    between atoms: C_18  and  C_25 
REMARK   12  A    between atoms: C_18  and  N_19 
REMARK       I    between atoms: N_19  and  C_20 
REMARK       I    between atoms: C_20  and  N_21 
REMARK   13  A    between atoms: C_25  and  C_26 
REMARK   14  A    between atoms: N_27  and  C_28 
ROOT
HETATM    1  C           1     -20.445  -6.950  -5.958  0.00  0.00     0.249 C 
HETATM    2  N           1     -20.578  -7.830  -4.917  0.00  0.00    -0.345 N 
HETATM    3  H           1     -21.391  -7.783  -4.316  0.00  0.00     0.163 HD
HETATM    4  O           1     -19.475  -7.006  -6.676  0.00  0.00    -0.271 OA
ENDROOT
BRANCH   1   5
HETATM    5  C           1     -21.509  -5.910  -6.208  0.00  0.00     0.274 C 
BRANCH   5   6
HETATM    6  C           1     -20.876  -4.526  -6.212  0.00  0.00     0.044 C 
BRANCH   6   7
HETATM    7  C           1     -21.535  -3.670  -7.286  0.00  0.00     0.023 C 
BRANCH   7   8
HETATM    8  C           1     -22.384  -4.553  -8.190  0.00  0.00     0.138 C 
BRANCH   8   9
HETATM    9  N           1     -23.703  -3.932  -8.385  0.00  0.00    -0.227 N 
HETATM   10  H           1     -24.145  -3.385  -7.606  0.00  0.00     0.177 HD
HETATM   11  C           1     -24.304  -4.059  -9.492  0.00  0.00     0.665 C 
HETATM   12  N           1     -25.439  -3.524  -9.661  0.00  0.00    -0.235 N 
HETATM   13  N           1     -23.755  -4.737 -10.456  0.00  0.00    -0.235 N 
HETATM   14  H           1     -25.881  -2.976  -8.882  0.00  0.00     0.174 HD
HETATM   15  H           1     -25.938  -3.628 -10.579  0.00  0.00     0.174 HD
HETATM   16  H           1     -22.819  -5.178 -10.317  0.00  0.00     0.174 HD
HETATM   17  H           1     -24.252  -4.841 -11.369  0.00  0.00     0.174 HD
ENDBRANCH   8   9
ENDBRANCH   7   8
ENDBRANCH   6   7
ENDBRANCH   5   6
BRANCH   5  18
HETATM   18  N           1     -22.544  -5.984  -5.125  0.00  0.00    -0.067 N 
HETATM   19  H           1     -22.154  -5.581  -4.243  0.00  0.00     0.275 HD
HETATM   20  H           1     -22.812  -6.981  -4.965  0.00  0.00     0.275 HD
HETATM   21  H           1     -23.389  -5.439  -5.414  0.00  0.00     0.275 HD
ENDBRANCH   5  18
ENDBRANCH   1   5
BRANCH   2  22
HETATM   22  C           1     -19.555  -8.829  -4.678  0.00  0.00     0.187 C 
BRANCH  22  23
HETATM   23  C           1     -19.352  -8.996  -3.177  0.00  0.00     0.066 C 
BRANCH  23  24
HETATM   24  C           1     -20.389  -9.968  -2.629  0.00  0.00     0.273 C 
BRANCH  24  25
HETATM   25  N           1     -21.584  -9.248  -2.282  0.00  0.00     0.098 N 
HETATM   26  H           1     -22.379  -9.650  -2.780  0.00  0.00     0.317 HD
BRANCH  25  27
HETATM   27  C           1     -21.784  -9.389  -0.865  0.00  0.00     0.323 C 
BRANCH  27  28
HETATM   28  C           1     -22.522  -8.168  -0.334  0.00  0.00     0.021 C 
HETATM   29  C           1     -22.193  -6.959  -1.200  0.00  0.00     0.012 C 
HETATM   30  C           1     -22.089  -7.898   1.101  0.00  0.00     0.012 C 
ENDBRANCH  27  28
BRANCH  27  31
HETATM   31  C           1     -22.599 -10.628  -0.594  0.00  0.00     0.207 C 
HETATM   32  O           1     -22.160 -11.509   0.177  0.00  0.00    -0.646 OA
HETATM   33  O           1     -23.714 -10.775  -1.139  0.00  0.00    -0.646 OA
ENDBRANCH  27  31
ENDBRANCH  25  27
ENDBRANCH  24  25
ENDBRANCH  23  24
ENDBRANCH  22  23
BRANCH  22  34
HETATM   34  C           1     -19.986 -10.144  -5.277  0.00  0.00     0.196 C 
HETATM   35  O           1     -21.196 -10.360  -5.508  0.00  0.00    -0.646 OA
HETATM   36  O           1     -19.134 -11.019  -5.545  0.00  0.00    -0.646 OA
ENDBRANCH  22  34
ENDBRANCH   2  22
TORSDOF 14
ENDMDL
MODEL 8
REMARK VINA RESULT:      -6.0      2.197      4.127
REMARK  14 active torsions:
REMARK  status: ('A' for Active; 'I' for Inactive)
REMARK    1  A    between atoms: C_1  and  C_28 
REMARK    2  A    between atoms: C_1  and  C_16 
REMARK    3  A    between atoms: C_5  and  C_16 
REMARK    4  A    between atoms: C_6  and  C_7 
REMARK    5  A    between atoms: C_6  and  C_26 
REMARK    6  A    between atoms: C_6  and  N_29 
REMARK       I    between atoms: C_7  and  N_8 
REMARK    7  A    between atoms: N_8  and  C_16 
REMARK    8  A    between atoms: C_10  and  C_24 
REMARK    9  A    between atoms: C_10  and  C_11 
REMARK   10  A    between atoms: C_10  and  N_27 
REMARK   11  A    between atoms: C_18  and  C_25 
REMARK   12  A    between atoms: C_18  and  N_19 
REMARK       I    between atoms: N_19  and  C_20 
REMARK       I    between atoms: C_20  and  N_21 
REMARK   13  A    between atoms: C_25  and  C_26 
REMARK   14  A    between atoms: N_27  and  C_28 
ROOT
HETATM    1  C           1     -21.266  -7.985  -3.954  0.00  0.00     0.249 C 
HETATM    2  N           1     -21.171  -7.522  -2.669  0.00  0.00    -0.345 N 
HETATM    3  H           1     -20.732  -6.629  -2.484  0.00  0.00     0.163 HD
HETATM    4  O           1     -21.790  -9.051  -4.175  0.00  0.00    -0.271 OA
ENDROOT
BRANCH   1   5
HETATM    5  C           1     -20.716  -7.164  -5.094  0.00  0.00     0.274 C 
BRANCH   5   6
HETATM    6  C           1     -21.118  -5.707  -4.912  0.00  0.00     0.044 C 
BRANCH   6   7
HETATM    7  C           1     -20.053  -4.807  -5.526  0.00  0.00     0.023 C 
BRANCH   7   8
HETATM    8  C           1     -20.505  -4.356  -6.909  0.00  0.00     0.138 C 
BRANCH   8   9
HETATM    9  N           1     -21.972  -4.264  -6.941  0.00  0.00    -0.227 N 
HETATM   10  H           1     -22.520  -4.301  -6.046  0.00  0.00     0.177 HD
HETATM   11  C           1     -22.574  -4.141  -8.048  0.00  0.00     0.665 C 
HETATM   12  N           1     -23.837  -4.063  -8.076  0.00  0.00    -0.235 N 
HETATM   13  N           1     -21.895  -4.096  -9.156  0.00  0.00    -0.235 N 
HETATM   14  H           1     -24.385  -4.099  -7.181  0.00  0.00     0.174 HD
HETATM   15  H           1     -24.337  -3.960  -8.993  0.00  0.00     0.174 HD
HETATM   16  H           1     -20.853  -4.161  -9.132  0.00  0.00     0.174 HD
HETATM   17  H           1     -22.393  -3.994 -10.069  0.00  0.00     0.174 HD
ENDBRANCH   8   9
ENDBRANCH   7   8
ENDBRANCH   6   7
ENDBRANCH   5   6
BRANCH   5  18
HETATM   18  N           1     -21.267  -7.676  -6.391  0.00  0.00    -0.067 N 
HETATM   19  H           1     -22.182  -8.150  -6.217  0.00  0.00     0.275 HD
HETATM   20  H           1     -20.595  -8.358  -6.811  0.00  0.00     0.275 HD
HETATM   21  H           1     -21.408  -6.876  -7.050  0.00  0.00     0.275 HD
ENDBRANCH   5  18
ENDBRANCH   1   5
BRANCH   2  22
HETATM   22  C           1     -21.700  -8.312  -1.573  0.00  0.00     0.187 C 
BRANCH  22  23
HETATM   23  C           1     -20.558  -9.041  -0.878  0.00  0.00     0.066 C 
BRANCH  23  24
HETATM   24  C           1     -20.729 -10.544  -1.059  0.00  0.00     0.273 C 
BRANCH  24  25
HETATM   25  N           1     -22.027 -10.815  -1.616  0.00  0.00     0.098 N 
HETATM   26  H           1     -22.007 -10.644  -2.621  0.00  0.00     0.317 HD
BRANCH  25  27
HETATM   27  C           1     -22.327 -12.199  -1.369  0.00  0.00     0.323 C 
BRANCH  27  28
HETATM   28  C           1     -23.549 -12.299  -0.466  0.00  0.00     0.021 C 
HETATM   29  C           1     -24.133 -10.909  -0.248  0.00  0.00     0.012 C 
HETATM   30  C           1     -23.141 -12.896   0.874  0.00  0.00     0.012 C 
ENDBRANCH  27  28
BRANCH  27  31
HETATM   31  C           1     -22.611 -12.892  -2.679  0.00  0.00     0.207 C 
HETATM   32  O           1     -22.590 -12.243  -3.747  0.00  0.00    -0.646 OA
HETATM   33  O           1     -22.868 -14.115  -2.696  0.00  0.00    -0.646 OA
ENDBRANCH  27  31
ENDBRANCH  25  27
ENDBRANCH  24  25
ENDBRANCH  23  24
ENDBRANCH  22  23
BRANCH  22  34
HETATM   34  C           1     -22.393  -7.405  -0.588  0.00  0.00     0.196 C 
HETATM   35  O           1     -22.566  -6.198  -0.864  0.00  0.00    -0.646 OA
HETATM   36  O           1     -22.796  -7.860   0.505  0.00  0.00    -0.646 OA
ENDBRANCH  22  34
ENDBRANCH   2  22
TORSDOF 14
ENDMDL
MODEL 9
REMARK VINA RESULT:      -6.0      2.039      2.843
REMARK  14 active torsions:
REMARK  status: ('A' for Active; 'I' for Inactive)
REMARK    1  A    between atoms: C_1  and  C_28 
REMARK    2  A    between atoms: C_1  and  C_16 
REMARK    3  A    between atoms: C_5  and  C_16 
REMARK    4  A    between atoms: C_6  and  C_7 
REMARK    5  A    between atoms: C_6  and  C_26 
REMARK    6  A    between atoms: C_6  and  N_29 
REMARK       I    between atoms: C_7  and  N_8 
REMARK    7  A    between atoms: N_8  and  C_16 
REMARK    8  A    between atoms: C_10  and  C_24 
REMARK    9  A    between atoms: C_10  and  C_11 
REMARK   10  A    between atoms: C_10  and  N_27 
REMARK   11  A    between atoms: C_18  and  C_25 
REMARK   12  A    between atoms: C_18  and  N_19 
REMARK       I    between atoms: N_19  and  C_20 
REMARK       I    between atoms: C_20  and  N_21 
REMARK   13  A    between atoms: C_25  and  C_26 
REMARK   14  A    between atoms: N_27  and  C_28 
ROOT
HETATM    1  C           1     -19.978  -7.828  -4.263  0.00  0.00     0.249 C 
HETATM    2  N           1     -19.063  -8.845  -4.324  0.00  0.00    -0.345 N 
HETATM    3  H           1     -18.647  -9.098  -5.211  0.00  0.00     0.163 HD
HETATM    4  O           1     -20.474  -7.525  -3.203  0.00  0.00    -0.271 OA
ENDROOT
BRANCH   1   5
HETATM    5  C           1     -20.368  -7.087  -5.518  0.00  0.00     0.274 C 
BRANCH   5   6
HETATM    6  C           1     -21.005  -5.756  -5.146  0.00  0.00     0.044 C 
BRANCH   6   7
HETATM    7  C           1     -20.139  -4.615  -5.664  0.00  0.00     0.023 C 
BRANCH   7   8
HETATM    8  C           1     -20.566  -4.256  -7.081  0.00  0.00     0.138 C 
BRANCH   8   9
HETATM    9  N           1     -22.004  -3.952  -7.098  0.00  0.00    -0.227 N 
HETATM   10  H           1     -22.455  -3.499  -6.265  0.00  0.00     0.177 HD
HETATM   11  C           1     -22.699  -4.236  -8.118  0.00  0.00     0.665 C 
HETATM   12  N           1     -23.937  -3.974  -8.134  0.00  0.00    -0.235 N 
HETATM   13  N           1     -22.140  -4.797  -9.149  0.00  0.00    -0.235 N 
HETATM   14  H           1     -24.387  -3.520  -7.301  0.00  0.00     0.174 HD
HETATM   15  H           1     -24.513  -4.210  -8.979  0.00  0.00     0.174 HD
HETATM   16  H           1     -21.118  -5.013  -9.137  0.00  0.00     0.174 HD
HETATM   17  H           1     -22.714  -5.032  -9.990  0.00  0.00     0.174 HD
ENDBRANCH   8   9
ENDBRANCH   7   8
ENDBRANCH   6   7
ENDBRANCH   5   6
BRANCH   5  18
HETATM   18  N           1     -21.348  -7.910  -6.300  0.00  0.00    -0.067 N 
HETATM   19  H           1     -20.834  -8.643  -6.840  0.00  0.00     0.275 HD
HETATM   20  H           1     -21.872  -7.293  -6.962  0.00  0.00     0.275 HD
HETATM   21  H           1     -22.021  -8.367  -5.643  0.00  0.00     0.275 HD
ENDBRANCH   5  18
ENDBRANCH   1   5
BRANCH   2  22
HETATM   22  C           1     -18.689  -9.557  -3.117  0.00  0.00     0.187 C 
BRANCH  22  23
HETATM   23  C           1     -19.652 -10.716  -2.894  0.00  0.00     0.066 C 
BRANCH  23  24
HETATM   24  C           1     -20.220 -10.639  -1.483  0.00  0.00     0.273 C 
BRANCH  24  25
HETATM   25  N           1     -21.346  -9.745  -1.467  0.00  0.00     0.098 N 
HETATM   26  H           1     -21.919  -9.906  -2.296  0.00  0.00     0.317 HD
BRANCH  25  27
HETATM   27  C           1     -22.116 -10.033  -0.288  0.00  0.00     0.323 C 
BRANCH  27  28
HETATM   28  C           1     -22.344  -8.747   0.494  0.00  0.00     0.021 C 
HETATM   29  C           1     -22.474  -7.579  -0.476  0.00  0.00     0.012 C 
HETATM   30  C           1     -21.165  -8.505   1.427  0.00  0.00     0.012 C 
ENDBRANCH  27  28
BRANCH  27  31
HETATM   31  C           1     -23.447 -10.621  -0.688  0.00  0.00     0.207 C 
HETATM   32  O           1     -23.607 -11.077  -1.842  0.00  0.00    -0.646 OA
HETATM   33  O           1     -24.388 -10.653   0.133  0.00  0.00    -0.646 OA
ENDBRANCH  27  31
ENDBRANCH  25  27
ENDBRANCH  24  25
ENDBRANCH  23  24
ENDBRANCH  22  23
BRANCH  22  34
HETATM   34  C           1     -17.285 -10.089  -3.262  0.00  0.00     0.196 C 
HETATM   35  O           1     -16.964 -11.166  -2.714  0.00  0.00    -0.646 OA
HETATM   36  O           1     -16.441  -9.453  -3.931  0.00  0.00    -0.646 OA
ENDBRANCH  22  34
ENDBRANCH   2  22
TORSDOF 14
ENDMDL
