MODEL 1
REMARK VINA RESULT:      -5.6      0.000      0.000
REMARK  9 active torsions:
REMARK  status: ('A' for Active; 'I' for Inactive)
REMARK       I    between atoms: C_1  and  N_7 
REMARK    1  A    between atoms: C_1  and  C_3 
REMARK    2  A    between atoms: C_2  and  C_8 
REMARK    3  A    between atoms: C_2  and  C_17 
REMARK    4  A    between atoms: C_2  and  N_7 
REMARK    5  A    between atoms: C_3  and  C_4 
REMARK    6  A    between atoms: C_3  and  N_20 
REMARK    7  A    between atoms: C_4  and  C_13 
REMARK    8  A    between atoms: C_8  and  C_9 
REMARK    9  A    between atoms: C_9  and  Se_10 
ROOT
HETATM    1  C           1     -26.209  -6.397 -18.249  0.00  0.00     0.249 C 
HETATM    2  N           1     -27.444  -6.656 -18.779  0.00  0.00    -0.345 N 
HETATM    3  H           1     -27.525  -7.020 -19.720  0.00  0.00     0.163 HD
HETATM    4  O           1     -26.113  -5.962 -17.126  0.00  0.00    -0.271 OA
ENDROOT
BRANCH   1   5
HETATM    5  C           1     -24.968  -6.655 -19.067  0.00  0.00     0.278 C 
BRANCH   5   6
HETATM    6  C           1     -25.364  -7.160 -20.449  0.00  0.00     0.021 C 
HETATM    7  C           1     -25.433  -5.986 -21.418  0.00  0.00     0.012 C 
BRANCH   6   8
HETATM    8  C           1     -24.326  -8.162 -20.939  0.00  0.00     0.002 C 
HETATM    9  C           1     -23.942  -7.832 -22.375  0.00  0.00     0.005 C 
ENDBRANCH   6   8
ENDBRANCH   5   6
BRANCH   5  10
HETATM   10  N           1     -24.124  -7.689 -18.382  0.00  0.00    -0.066 N 
HETATM   11  H           1     -23.438  -7.217 -17.751  0.00  0.00     0.275 HD
HETATM   12  H           1     -23.610  -8.250 -19.099  0.00  0.00     0.275 HD
HETATM   13  H           1     -24.738  -8.321 -17.819  0.00  0.00     0.275 HD
ENDBRANCH   5  10
ENDBRANCH   1   5
BRANCH   2  14
HETATM   14  C           1     -28.637  -6.409 -17.992  0.00  0.00     0.185 C 
BRANCH  14  15
HETATM   15  C           1     -29.366  -5.191 -18.545  0.00  0.00     0.036 C 
BRANCH  15  16
HETATM   16  C           1     -29.712  -4.244 -17.404  0.00  0.00     0.003 C 
BRANCH  16  17
HETATM   17 Se           1     -31.392  -4.800 -16.586  0.00  0.00     0.000 Se
HETATM   18  C           1     -32.480  -3.500 -17.548  0.00  0.00     0.000 C 
ENDBRANCH  16  17
ENDBRANCH  15  16
ENDBRANCH  14  15
BRANCH  14  19
HETATM   19  C           1     -29.543  -7.612 -18.060  0.00  0.00     0.196 C 
HETATM   20  O           1     -30.205  -7.840 -19.096  0.00  0.00    -0.646 OA
HETATM   21  O           1     -29.632  -8.384 -17.080  0.00  0.00    -0.646 OA
ENDBRANCH  14  19
ENDBRANCH   2  14
TORSDOF 9
ENDMDL
MODEL 2
REMARK VINA RESULT:      -5.5     13.494     14.882
REMARK  9 active torsions:
REMARK  status: ('A' for Active; 'I' for Inactive)
REMARK       I    between atoms: C_1  and  N_7 
REMARK    1  A    between atoms: C_1  and  C_3 
REMARK    2  A    between atoms: C_2  and  C_8 
REMARK    3  A    between atoms: C_2  and  C_17 
REMARK    4  A    between atoms: C_2  and  N_7 
REMARK    5  A    between atoms: C_3  and  C_4 
REMARK    6  A    between atoms: C_3  and  N_20 
REMARK    7  A    between atoms: C_4  and  C_13 
REMARK    8  A    between atoms: C_8  and  C_9 
REMARK    9  A    between atoms: C_9  and  Se_10 
ROOT
HETATM    1  C           1     -21.447  -5.164  -6.631  0.00  0.00     0.249 C 
HETATM    2  N           1     -21.534  -6.400  -6.049  0.00  0.00    -0.345 N 
HETATM    3  H           1     -22.094  -7.124  -6.480  0.00  0.00     0.163 HD
HETATM    4  O           1     -20.777  -4.300  -6.117  0.00  0.00    -0.271 OA
ENDROOT
BRANCH   1   5
HETATM    5  C           1     -22.187  -4.882  -7.916  0.00  0.00     0.278 C 
BRANCH   5   6
HETATM    6  C           1     -21.322  -4.014  -8.822  0.00  0.00     0.021 C 
HETATM    7  C           1     -20.096  -4.805  -9.263  0.00  0.00     0.012 C 
BRANCH   6   8
HETATM    8  C           1     -22.127  -3.602 -10.047  0.00  0.00     0.002 C 
HETATM    9  C           1     -21.199  -3.486 -11.249  0.00  0.00     0.005 C 
ENDBRANCH   6   8
ENDBRANCH   5   6
BRANCH   5  10
HETATM   10  N           1     -23.465  -4.160  -7.607  0.00  0.00    -0.066 N 
HETATM   11  H           1     -23.472  -3.878  -6.601  0.00  0.00     0.275 HD
HETATM   12  H           1     -24.276  -4.791  -7.799  0.00  0.00     0.275 HD
HETATM   13  H           1     -23.537  -3.307  -8.208  0.00  0.00     0.275 HD
ENDBRANCH   5  10
ENDBRANCH   1   5
BRANCH   2  14
HETATM   14  C           1     -20.822  -6.671  -4.815  0.00  0.00     0.185 C 
BRANCH  14  15
HETATM   15  C           1     -21.819  -7.042  -3.726  0.00  0.00     0.036 C 
BRANCH  15  16
HETATM   16  C           1     -21.617  -6.133  -2.521  0.00  0.00     0.003 C 
BRANCH  16  17
HETATM   17 Se           1     -22.303  -7.011  -0.921  0.00  0.00     0.000 Se
HETATM   18  C           1     -21.762  -8.800  -1.473  0.00  0.00     0.000 C 
ENDBRANCH  16  17
ENDBRANCH  15  16
ENDBRANCH  14  15
BRANCH  14  19
HETATM   19  C           1     -19.861  -7.814  -5.030  0.00  0.00     0.196 C 
HETATM   20  O           1     -19.352  -8.001  -6.157  0.00  0.00    -0.646 OA
HETATM   21  O           1     -19.572  -8.575  -4.080  0.00  0.00    -0.646 OA
ENDBRANCH  14  19
ENDBRANCH   2  14
TORSDOF 9
ENDMDL
MODEL 3
REMARK VINA RESULT:      -5.3     13.967     15.492
REMARK  9 active torsions:
REMARK  status: ('A' for Active; 'I' for Inactive)
REMARK       I    between atoms: C_1  and  N_7 
REMARK    1  A    between atoms: C_1  and  C_3 
REMARK    2  A    between atoms: C_2  and  C_8 
REMARK    3  A    between atoms: C_2  and  C_17 
REMARK    4  A    between atoms: C_2  and  N_7 
REMARK    5  A    between atoms: C_3  and  C_4 
REMARK    6  A    between atoms: C_3  and  N_20 
REMARK    7  A    between atoms: C_4  and  C_13 
REMARK    8  A    between atoms: C_8  and  C_9 
REMARK    9  A    between atoms: C_9  and  Se_10 
ROOT
HETATM    1  C           1     -21.707  -5.526  -5.842  0.00  0.00     0.249 C 
HETATM    2  N           1     -20.978  -6.363  -5.041  0.00  0.00    -0.345 N 
HETATM    3  H           1     -19.967  -6.316  -5.048  0.00  0.00     0.163 HD
HETATM    4  O           1     -22.914  -5.581  -5.834  0.00  0.00    -0.271 OA
ENDROOT
BRANCH   1   5
HETATM    5  C           1     -21.003  -4.533  -6.734  0.00  0.00     0.278 C 
BRANCH   5   6
HETATM    6  C           1     -21.371  -4.804  -8.187  0.00  0.00     0.021 C 
HETATM    7  C           1     -22.373  -3.759  -8.662  0.00  0.00     0.012 C 
BRANCH   6   8
HETATM    8  C           1     -20.117  -4.731  -9.049  0.00  0.00     0.002 C 
HETATM    9  C           1     -20.499  -4.334 -10.468  0.00  0.00     0.005 C 
ENDBRANCH   6   8
ENDBRANCH   5   6
BRANCH   5  10
HETATM   10  N           1     -19.520  -4.670  -6.561  0.00  0.00    -0.066 N 
HETATM   11  H           1     -19.037  -4.378  -7.441  0.00  0.00     0.275 HD
HETATM   12  H           1     -19.284  -5.666  -6.348  0.00  0.00     0.275 HD
HETATM   13  H           1     -19.204  -4.061  -5.772  0.00  0.00     0.275 HD
ENDBRANCH   5  10
ENDBRANCH   1   5
BRANCH   2  14
HETATM   14  C           1     -21.655  -7.316  -4.183  0.00  0.00     0.185 C 
BRANCH  14  15
HETATM   15  C           1     -20.963  -8.669  -4.284  0.00  0.00     0.036 C 
BRANCH  15  16
HETATM   16  C           1     -19.646  -8.512  -5.032  0.00  0.00     0.003 C 
BRANCH  16  17
HETATM   17 Se           1     -18.268  -9.576  -4.154  0.00  0.00     0.000 Se
HETATM   18  C           1     -17.342 -10.039  -5.805  0.00  0.00     0.000 C 
ENDBRANCH  16  17
ENDBRANCH  15  16
ENDBRANCH  14  15
BRANCH  14  19
HETATM   19  C           1     -21.607  -6.831  -2.756  0.00  0.00     0.196 C 
HETATM   20  O           1     -22.361  -5.905  -2.385  0.00  0.00    -0.646 OA
HETATM   21  O           1     -20.815  -7.356  -1.943  0.00  0.00    -0.646 OA
ENDBRANCH  14  19
ENDBRANCH   2  14
TORSDOF 9
ENDMDL
MODEL 4
REMARK VINA RESULT:      -5.1     14.383     15.747
REMARK  9 active torsions:
REMARK  status: ('A' for Active; 'I' for Inactive)
REMARK       I    between atoms: C_1  and  N_7 
REMARK    1  A    between atoms: C_1  and  C_3 
REMARK    2  A    between atoms: C_2  and  C_8 
REMARK    3  A    between atoms: C_2  and  C_17 
REMARK    4  A    between atoms: C_2  and  N_7 
REMARK    5  A    between atoms: C_3  and  C_4 
REMARK    6  A    between atoms: C_3  and  N_20 
REMARK    7  A    between atoms: C_4  and  C_13 
REMARK    8  A    between atoms: C_8  and  C_9 
REMARK    9  A    between atoms: C_9  and  Se_10 
ROOT
HETATM    1  C           1     -21.747  -5.785  -5.497  0.00  0.00     0.249 C 
HETATM    2  N           1     -20.945  -6.590  -4.734  0.00  0.00    -0.345 N 
HETATM    3  H           1     -19.939  -6.495  -4.783  0.00  0.00     0.163 HD
HETATM    4  O           1     -22.948  -5.899  -5.439  0.00  0.00    -0.271 OA
ENDROOT
BRANCH   1   5
HETATM    5  C           1     -21.130  -4.755  -6.411  0.00  0.00     0.278 C 
BRANCH   5   6
HETATM    6  C           1     -21.398  -5.135  -7.862  0.00  0.00     0.021 C 
HETATM    7  C           1     -22.482  -4.230  -8.433  0.00  0.00     0.012 C 
BRANCH   6   8
HETATM    8  C           1     -20.120  -4.968  -8.674  0.00  0.00     0.002 C 
HETATM    9  C           1     -20.450  -4.323 -10.013  0.00  0.00     0.005 C 
ENDBRANCH   6   8
ENDBRANCH   5   6
BRANCH   5  10
HETATM   10  N           1     -19.649  -4.701  -6.176  0.00  0.00    -0.066 N 
HETATM   11  H           1     -19.211  -5.593  -6.499  0.00  0.00     0.275 HD
HETATM   12  H           1     -19.463  -4.571  -5.155  0.00  0.00     0.275 HD
HETATM   13  H           1     -19.241  -3.899  -6.709  0.00  0.00     0.275 HD
ENDBRANCH   5  10
ENDBRANCH   1   5
BRANCH   2  14
HETATM   14  C           1     -21.538  -7.580  -3.856  0.00  0.00     0.185 C 
BRANCH  14  15
HETATM   15  C           1     -20.808  -8.906  -4.019  0.00  0.00     0.036 C 
BRANCH  15  16
HETATM   16  C           1     -21.803 -10.052  -3.896  0.00  0.00     0.003 C 
BRANCH  16  17
HETATM   17 Se           1     -21.349 -11.143  -2.345  0.00  0.00     0.000 Se
HETATM   18  C           1     -22.796 -10.458  -1.234  0.00  0.00     0.000 C 
ENDBRANCH  16  17
ENDBRANCH  15  16
ENDBRANCH  14  15
BRANCH  14  19
HETATM   19  C           1     -21.424  -7.115  -2.425  0.00  0.00     0.196 C 
HETATM   20  O           1     -20.558  -7.612  -1.673  0.00  0.00    -0.646 OA
HETATM   21  O           1     -22.195  -6.231  -1.991  0.00  0.00    -0.646 OA
ENDBRANCH  14  19
ENDBRANCH   2  14
TORSDOF 9
ENDMDL
MODEL 5
REMARK VINA RESULT:      -5.0      2.671      5.996
REMARK  9 active torsions:
REMARK  status: ('A' for Active; 'I' for Inactive)
REMARK       I    between atoms: C_1  and  N_7 
REMARK    1  A    between atoms: C_1  and  C_3 
REMARK    2  A    between atoms: C_2  and  C_8 
REMARK    3  A    between atoms: C_2  and  C_17 
REMARK    4  A    between atoms: C_2  and  N_7 
REMARK    5  A    between atoms: C_3  and  C_4 
REMARK    6  A    between atoms: C_3  and  N_20 
REMARK    7  A    between atoms: C_4  and  C_13 
REMARK    8  A    between atoms: C_8  and  C_9 
REMARK    9  A    between atoms: C_9  and  Se_10 
ROOT
HETATM    1  C           1     -27.986  -6.175 -16.452  0.00  0.00     0.249 C 
HETATM    2  N           1     -26.926  -5.921 -17.280  0.00  0.00    -0.345 N 
HETATM    3  H           1     -26.853  -5.026 -17.748  0.00  0.00     0.163 HD
HETATM    4  O           1     -28.074  -7.242 -15.893  0.00  0.00    -0.271 OA
ENDROOT
BRANCH   1   5
HETATM    5  C           1     -29.045  -5.121 -16.236  0.00  0.00     0.278 C 
BRANCH   5   6
HETATM    6  C           1     -30.377  -5.619 -16.782  0.00  0.00     0.021 C 
HETATM    7  C           1     -31.377  -4.469 -16.807  0.00  0.00     0.012 C 
BRANCH   6   8
HETATM    8  C           1     -30.180  -6.149 -18.196  0.00  0.00     0.002 C 
HETATM    9  C           1     -30.740  -7.562 -18.290  0.00  0.00     0.005 C 
ENDBRANCH   6   8
ENDBRANCH   5   6
BRANCH   5  10
HETATM   10  N           1     -28.651  -3.864 -16.954  0.00  0.00    -0.066 N 
HETATM   11  H           1     -28.969  -3.034 -16.404  0.00  0.00     0.275 HD
HETATM   12  H           1     -29.097  -3.848 -17.899  0.00  0.00     0.275 HD
HETATM   13  H           1     -27.611  -3.834 -17.058  0.00  0.00     0.275 HD
ENDBRANCH   5  10
ENDBRANCH   1   5
BRANCH   2  14
HETATM   14  C           1     -25.909  -6.933 -17.486  0.00  0.00     0.185 C 
BRANCH  14  15
HETATM   15  C           1     -25.178  -6.658 -18.794  0.00  0.00     0.036 C 
BRANCH  15  16
HETATM   16  C           1     -26.184  -6.603 -19.936  0.00  0.00     0.003 C 
BRANCH  16  17
HETATM   17 Se           1     -25.819  -8.048 -21.194  0.00  0.00     0.000 Se
HETATM   18  C           1     -23.897  -8.066 -20.868  0.00  0.00     0.000 C 
ENDBRANCH  16  17
ENDBRANCH  15  16
ENDBRANCH  14  15
BRANCH  14  19
HETATM   19  C           1     -24.926  -6.899 -16.343  0.00  0.00     0.196 C 
HETATM   20  O           1     -24.253  -7.916 -16.066  0.00  0.00    -0.646 OA
HETATM   21  O           1     -24.783  -5.853 -15.672  0.00  0.00    -0.646 OA
ENDBRANCH  14  19
ENDBRANCH   2  14
TORSDOF 9
ENDMDL
MODEL 6
REMARK VINA RESULT:      -4.9     16.712     18.314
REMARK  9 active torsions:
REMARK  status: ('A' for Active; 'I' for Inactive)
REMARK       I    between atoms: C_1  and  N_7 
REMARK    1  A    between atoms: C_1  and  C_3 
REMARK    2  A    between atoms: C_2  and  C_8 
REMARK    3  A    between atoms: C_2  and  C_17 
REMARK    4  A    between atoms: C_2  and  N_7 
REMARK    5  A    between atoms: C_3  and  C_4 
REMARK    6  A    between atoms: C_3  and  N_20 
REMARK    7  A    between atoms: C_4  and  C_13 
REMARK    8  A    between atoms: C_8  and  C_9 
REMARK    9  A    between atoms: C_9  and  Se_10 
ROOT
HETATM    1  C           1     -21.030  -9.600  -2.031  0.00  0.00     0.249 C 
HETATM    2  N           1     -21.701  -8.803  -2.919  0.00  0.00    -0.345 N 
HETATM    3  H           1     -22.695  -8.930  -3.062  0.00  0.00     0.163 HD
HETATM    4  O           1     -19.844  -9.448  -1.860  0.00  0.00    -0.271 OA
ENDROOT
BRANCH   1   5
HETATM    5  C           1     -21.772 -10.668  -1.266  0.00  0.00     0.278 C 
BRANCH   5   6
HETATM    6  C           1     -23.002 -10.060  -0.605  0.00  0.00     0.021 C 
HETATM    7  C           1     -23.910 -11.174  -0.099  0.00  0.00     0.012 C 
BRANCH   6   8
HETATM    8  C           1     -22.569  -9.188   0.566  0.00  0.00     0.002 C 
HETATM    9  C           1     -23.150  -7.790   0.401  0.00  0.00     0.005 C 
ENDBRANCH   6   8
ENDBRANCH   5   6
BRANCH   5  10
HETATM   10  N           1     -20.873 -11.243  -0.213  0.00  0.00    -0.066 N 
HETATM   11  H           1     -21.235 -10.986   0.734  0.00  0.00     0.275 HD
HETATM   12  H           1     -19.907 -10.861  -0.332  0.00  0.00     0.275 HD
HETATM   13  H           1     -20.850 -12.285  -0.306  0.00  0.00     0.275 HD
ENDBRANCH   5  10
ENDBRANCH   1   5
BRANCH   2  14
HETATM   14  C           1     -20.988  -7.776  -3.653  0.00  0.00     0.185 C 
BRANCH  14  15
HETATM   15  C           1     -20.735  -8.254  -5.077  0.00  0.00     0.036 C 
BRANCH  15  16
HETATM   16  C           1     -19.281  -8.684  -5.218  0.00  0.00     0.003 C 
BRANCH  16  17
HETATM   17 Se           1     -19.183 -10.630  -5.287  0.00  0.00     0.000 Se
HETATM   18  C           1     -21.053 -10.870  -5.782  0.00  0.00     0.000 C 
ENDBRANCH  16  17
ENDBRANCH  15  16
ENDBRANCH  14  15
BRANCH  14  19
HETATM   19  C           1     -21.813  -6.514  -3.684  0.00  0.00     0.196 C 
HETATM   20  O           1     -22.067  -5.959  -4.776  0.00  0.00    -0.646 OA
HETATM   21  O           1     -22.245  -6.023  -2.618  0.00  0.00    -0.646 OA
ENDBRANCH  14  19
ENDBRANCH   2  14
TORSDOF 9
ENDMDL
MODEL 7
REMARK VINA RESULT:      -4.9     16.621     18.323
REMARK  9 active torsions:
REMARK  status: ('A' for Active; 'I' for Inactive)
REMARK       I    between atoms: C_1  and  N_7 
REMARK    1  A    between atoms: C_1  and  C_3 
REMARK    2  A    between atoms: C_2  and  C_8 
REMARK    3  A    between atoms: C_2  and  C_17 
REMARK    4  A    between atoms: C_2  and  N_7 
REMARK    5  A    between atoms: C_3  and  C_4 
REMARK    6  A    between atoms: C_3  and  N_20 
REMARK    7  A    between atoms: C_4  and  C_13 
REMARK    8  A    between atoms: C_8  and  C_9 
REMARK    9  A    between atoms: C_9  and  Se_10 
ROOT
HETATM    1  C           1     -20.550  -8.181  -2.091  0.00  0.00     0.249 C 
HETATM    2  N           1     -21.194  -7.824  -3.245  0.00  0.00    -0.345 N 
HETATM    3  H           1     -22.126  -7.433  -3.204  0.00  0.00     0.163 HD
HETATM    4  O           1     -19.437  -8.647  -2.139  0.00  0.00    -0.271 OA
ENDROOT
BRANCH   1   5
HETATM    5  C           1     -21.231  -7.992  -0.757  0.00  0.00     0.278 C 
BRANCH   5   6
HETATM    6  C           1     -21.710  -9.340  -0.234  0.00  0.00     0.021 C 
HETATM    7  C           1     -20.952  -9.687   1.042  0.00  0.00     0.012 C 
BRANCH   6   8
HETATM    8  C           1     -23.201  -9.266   0.067  0.00  0.00     0.002 C 
HETATM    9  C           1     -23.842 -10.620  -0.208  0.00  0.00     0.005 C 
ENDBRANCH   6   8
ENDBRANCH   5   6
BRANCH   5  10
HETATM   10  N           1     -22.408  -7.076  -0.923  0.00  0.00    -0.066 N 
HETATM   11  H           1     -22.729  -6.747   0.015  0.00  0.00     0.275 HD
HETATM   12  H           1     -23.185  -7.589  -1.398  0.00  0.00     0.275 HD
HETATM   13  H           1     -22.128  -6.252  -1.504  0.00  0.00     0.275 HD
ENDBRANCH   5  10
ENDBRANCH   1   5
BRANCH   2  14
HETATM   14  C           1     -20.539  -8.005  -4.525  0.00  0.00     0.185 C 
BRANCH  14  15
HETATM   15  C           1     -21.120  -9.228  -5.224  0.00  0.00     0.036 C 
BRANCH  15  16
HETATM   16  C           1     -20.127 -10.379  -5.140  0.00  0.00     0.003 C 
BRANCH  16  17
HETATM   17 Se           1     -18.323  -9.706  -5.443  0.00  0.00     0.000 Se
HETATM   18  C           1     -17.488 -10.885  -4.135  0.00  0.00     0.000 C 
ENDBRANCH  16  17
ENDBRANCH  15  16
ENDBRANCH  14  15
BRANCH  14  19
HETATM   19  C           1     -20.760  -6.783  -5.381  0.00  0.00     0.196 C 
HETATM   20  O           1     -20.817  -6.893  -6.626  0.00  0.00    -0.646 OA
HETATM   21  O           1     -20.889  -5.660  -4.847  0.00  0.00    -0.646 OA
ENDBRANCH  14  19
ENDBRANCH   2  14
TORSDOF 9
ENDMDL
MODEL 8
REMARK VINA RESULT:      -4.9     18.519     19.911
REMARK  9 active torsions:
REMARK  status: ('A' for Active; 'I' for Inactive)
REMARK       I    between atoms: C_1  and  N_7 
REMARK    1  A    between atoms: C_1  and  C_3 
REMARK    2  A    between atoms: C_2  and  C_8 
REMARK    3  A    between atoms: C_2  and  C_17 
REMARK    4  A    between atoms: C_2  and  N_7 
REMARK    5  A    between atoms: C_3  and  C_4 
REMARK    6  A    between atoms: C_3  and  N_20 
REMARK    7  A    between atoms: C_4  and  C_13 
REMARK    8  A    between atoms: C_8  and  C_9 
REMARK    9  A    between atoms: C_9  and  Se_10 
ROOT
HETATM    1  C           1     -21.245 -10.500   0.025  0.00  0.00     0.249 C 
HETATM    2  N           1     -21.476  -9.611  -0.989  0.00  0.00    -0.345 N 
HETATM    3  H           1     -21.900  -9.927  -1.852  0.00  0.00     0.163 HD
HETATM    4  O           1     -20.739 -10.123   1.055  0.00  0.00    -0.271 OA
ENDROOT
BRANCH   1   5
HETATM    5  C           1     -21.622 -11.952  -0.143  0.00  0.00     0.278 C 
BRANCH   5   6
HETATM    6  C           1     -22.939 -12.222   0.574  0.00  0.00     0.021 C 
HETATM    7  C           1     -24.094 -11.702  -0.272  0.00  0.00     0.012 C 
BRANCH   6   8
HETATM    8  C           1     -23.101 -13.722   0.787  0.00  0.00     0.002 C 
HETATM    9  C           1     -23.455 -13.992   2.243  0.00  0.00     0.005 C 
ENDBRANCH   6   8
ENDBRANCH   5   6
BRANCH   5  10
HETATM   10  N           1     -20.548 -12.818   0.444  0.00  0.00    -0.066 N 
HETATM   11  H           1     -19.644 -12.635  -0.048  0.00  0.00     0.275 HD
HETATM   12  H           1     -20.810 -13.824   0.330  0.00  0.00     0.275 HD
HETATM   13  H           1     -20.441 -12.599   1.461  0.00  0.00     0.275 HD
ENDBRANCH   5  10
ENDBRANCH   1   5
BRANCH   2  14
HETATM   14  C           1     -21.114  -8.216  -0.827  0.00  0.00     0.185 C 
BRANCH  14  15
HETATM   15  C           1     -20.412  -7.725  -2.086  0.00  0.00     0.036 C 
BRANCH  15  16
HETATM   16  C           1     -19.662  -8.880  -2.734  0.00  0.00     0.003 C 
BRANCH  16  17
HETATM   17 Se           1     -19.828  -8.758  -4.673  0.00  0.00     0.000 Se
HETATM   18  C           1     -21.610  -7.968  -4.634  0.00  0.00     0.000 C 
ENDBRANCH  16  17
ENDBRANCH  15  16
ENDBRANCH  14  15
BRANCH  14  19
HETATM   19  C           1     -22.358  -7.397  -0.590  0.00  0.00     0.196 C 
HETATM   20  O           1     -23.169  -7.735   0.299  0.00  0.00    -0.646 OA
HETATM   21  O           1     -22.578  -6.380  -1.283  0.00  0.00    -0.646 OA
ENDBRANCH  14  19
ENDBRANCH   2  14
TORSDOF 9
ENDMDL
MODEL 9
REMARK VINA RESULT:      -4.9      2.742      6.020
REMARK  9 active torsions:
REMARK  status: ('A' for Active; 'I' for Inactive)
REMARK       I    between atoms: C_1  and  N_7 
REMARK    1  A    between atoms: C_1  and  C_3 
REMARK    2  A    between atoms: C_2  and  C_8 
REMARK    3  A    between atoms: C_2  and  C_17 
REMARK    4  A    between atoms: C_2  and  N_7 
REMARK    5  A    between atoms: C_3  and  C_4 
REMARK    6  A    between atoms: C_3  and  N_20 
REMARK    7  A    between atoms: C_4  and  C_13 
REMARK    8  A    between atoms: C_8  and  C_9 
REMARK    9  A    between atoms: C_9  and  Se_10 
ROOT
HETATM    1  C           1     -28.927  -6.413 -17.657  0.00  0.00     0.249 C 
HETATM    2  N           1     -27.721  -6.064 -17.110  0.00  0.00    -0.345 N 
HETATM    3  H           1     -27.658  -5.267 -16.491  0.00  0.00     0.163 HD
HETATM    4  O           1     -29.002  -7.365 -18.396  0.00  0.00    -0.271 OA
ENDROOT
BRANCH   1   5
HETATM    5  C           1     -30.161  -5.607 -17.337  0.00  0.00     0.278 C 
BRANCH   5   6
HETATM    6  C           1     -30.024  -4.208 -17.925  0.00  0.00     0.021 C 
HETATM    7  C           1     -31.321  -3.437 -17.711  0.00  0.00     0.012 C 
BRANCH   6   8
HETATM    8  C           1     -28.880  -3.478 -17.233  0.00  0.00     0.002 C 
HETATM    9  C           1     -29.176  -1.984 -17.203  0.00  0.00     0.005 C 
ENDBRANCH   6   8
ENDBRANCH   5   6
BRANCH   5  10
HETATM   10  N           1     -30.321  -5.508 -15.849  0.00  0.00    -0.066 N 
HETATM   11  H           1     -29.695  -4.757 -15.480  0.00  0.00     0.275 HD
HETATM   12  H           1     -30.066  -6.422 -15.410  0.00  0.00     0.275 HD
HETATM   13  H           1     -31.315  -5.276 -15.620  0.00  0.00     0.275 HD
ENDBRANCH   5  10
ENDBRANCH   1   5
BRANCH   2  14
HETATM   14  C           1     -26.535  -6.840 -17.418  0.00  0.00     0.185 C 
BRANCH  14  15
HETATM   15  C           1     -25.901  -6.310 -18.697  0.00  0.00     0.036 C 
BRANCH  15  16
HETATM   16  C           1     -24.704  -7.176 -19.067  0.00  0.00     0.003 C 
BRANCH  16  17
HETATM   17 Se           1     -24.747  -7.562 -20.978  0.00  0.00     0.000 Se
HETATM   18  C           1     -26.621  -8.098 -20.994  0.00  0.00     0.000 C 
ENDBRANCH  16  17
ENDBRANCH  15  16
ENDBRANCH  14  15
BRANCH  14  19
HETATM   19  C           1     -25.550  -6.724 -16.281  0.00  0.00     0.196 C 
HETATM   20  O           1     -25.131  -5.600 -15.929  0.00  0.00    -0.646 OA
HETATM   21  O           1     -25.153  -7.752 -15.691  0.00  0.00    -0.646 OA
ENDBRANCH  14  19
ENDBRANCH   2  14
TORSDOF 9
ENDMDL
