MODEL 1
REMARK VINA RESULT:      -7.1      0.000      0.000
REMARK  11 active torsions:
REMARK  status: ('A' for Active; 'I' for Inactive)
REMARK    1  A    between atoms: S_1  and  C_2 
REMARK    2  A    between atoms: C_2  and  C_3 
REMARK    3  A    between atoms: C_3  and  C_4 
REMARK    4  A    between atoms: C_3  and  N_7 
REMARK       I    between atoms: N_7  and  C_8 
REMARK    5  A    between atoms: C_8  and  C_9 
REMARK    6  A    between atoms: C_9  and  C_10 
REMARK    7  A    between atoms: C_9  and  N_22 
REMARK    8  A    between atoms: C_10  and  C_11 
REMARK    9  A    between atoms: C_14  and  O_15 
REMARK   10  A    between atoms: O_15  and  P_16 
REMARK   11  A    between atoms: P_16  and  O_17 
ROOT
HETATM    1  C           1     -33.733  -4.849 -15.432  0.00  0.00     0.278 C 
ENDROOT
BRANCH   1   2
HETATM    2  C           1     -34.209  -3.957 -14.311  0.00  0.00     0.249 C 
HETATM    3  N           1     -34.174  -4.405 -13.018  0.00  0.00    -0.344 N 
HETATM    4  H           1     -33.829  -5.334 -12.814  0.00  0.00     0.163 HD
HETATM    5  O           1     -34.621  -2.847 -14.556  0.00  0.00    -0.271 OA
BRANCH   3   6
HETATM    6  C           1     -34.631  -3.549 -11.942  0.00  0.00     0.194 C 
BRANCH   6   7
HETATM    7  C           1     -35.342  -4.389 -10.889  0.00  0.00     0.106 C 
BRANCH   7   8
HETATM    8  S           1     -34.445  -5.948 -10.650  0.00  0.00    -0.180 SA
HETATM    9  H           1     -33.353  -5.398 -10.092  0.00  0.00     0.101 HD
ENDBRANCH   7   8
ENDBRANCH   6   7
BRANCH   6  10
HETATM   10  C           1     -33.447  -2.854 -11.314  0.00  0.00     0.197 C 
HETATM   11  O           1     -33.615  -1.799 -10.663  0.00  0.00    -0.646 OA
HETATM   12  O           1     -32.300  -3.331 -11.446  0.00  0.00    -0.646 OA
ENDBRANCH   6  10
ENDBRANCH   3   6
ENDBRANCH   1   2
BRANCH   1  13
HETATM   13  C           1     -33.210  -3.991 -16.577  0.00  0.00     0.081 C 
BRANCH  13  14
HETATM   14  C           1     -31.887  -4.521 -17.035  0.00  0.00    -0.056 A 
HETATM   15  C           1     -30.940  -3.654 -17.581  0.00  0.00     0.010 A 
HETATM   16  C           1     -29.708  -4.147 -18.008  0.00  0.00     0.038 A 
HETATM   17  C           1     -29.421  -5.507 -17.889  0.00  0.00     0.081 A 
HETATM   18  C           1     -30.368  -6.374 -17.342  0.00  0.00     0.038 A 
HETATM   19  C           1     -31.601  -5.881 -16.916  0.00  0.00     0.010 A 
BRANCH  17  20
HETATM   20  O           1     -28.224  -5.987 -18.303  0.00  0.00    -0.247 OA
BRANCH  20  21
HETATM   21  P           1     -27.033  -6.095 -17.218  0.00  0.00     0.411 P 
HETATM   22  O           1     -25.754  -6.358 -17.916  0.00  0.00    -0.624 OA
HETATM   23  O           1     -26.934  -4.823 -16.468  0.00  0.00    -0.624 OA
BRANCH  21  24
HETATM   24  O           1     -27.344  -7.302 -16.193  0.00  0.00    -0.300 OA
HETATM   25  H           1     -28.285  -7.343 -16.144  0.00  0.00     0.223 HD
ENDBRANCH  21  24
ENDBRANCH  20  21
ENDBRANCH  17  20
ENDBRANCH  13  14
ENDBRANCH   1  13
BRANCH   1  26
HETATM   26  N           1     -34.875  -5.690 -15.920  0.00  0.00    -0.066 N 
HETATM   27  H           1     -34.570  -6.687 -15.989  0.00  0.00     0.275 HD
HETATM   28  H           1     -35.673  -5.616 -15.249  0.00  0.00     0.275 HD
HETATM   29  H           1     -35.178  -5.353 -16.861  0.00  0.00     0.275 HD
ENDBRANCH   1  26
TORSDOF 11
ENDMDL
MODEL 2
REMARK VINA RESULT:      -7.1     13.044     14.383
REMARK  11 active torsions:
REMARK  status: ('A' for Active; 'I' for Inactive)
REMARK    1  A    between atoms: S_1  and  C_2 
REMARK    2  A    between atoms: C_2  and  C_3 
REMARK    3  A    between atoms: C_3  and  C_4 
REMARK    4  A    between atoms: C_3  and  N_7 
REMARK       I    between atoms: N_7  and  C_8 
REMARK    5  A    between atoms: C_8  and  C_9 
REMARK    6  A    between atoms: C_9  and  C_10 
REMARK    7  A    between atoms: C_9  and  N_22 
REMARK    8  A    between atoms: C_10  and  C_11 
REMARK    9  A    between atoms: C_14  and  O_15 
REMARK   10  A    between atoms: O_15  and  P_16 
REMARK   11  A    between atoms: P_16  and  O_17 
ROOT
HETATM    1  C           1     -21.113  -6.116  -5.013  0.00  0.00     0.278 C 
ENDROOT
BRANCH   1   2
HETATM    2  C           1     -20.493  -7.489  -5.101  0.00  0.00     0.249 C 
HETATM    3  N           1     -20.890  -8.476  -4.239  0.00  0.00    -0.344 N 
HETATM    4  H           1     -21.600  -8.284  -3.544  0.00  0.00     0.163 HD
HETATM    5  O           1     -19.645  -7.717  -5.932  0.00  0.00    -0.271 OA
BRANCH   3   6
HETATM    6  C           1     -20.294  -9.794  -4.323  0.00  0.00     0.194 C 
BRANCH   6   7
HETATM    7  C           1     -20.111 -10.361  -2.921  0.00  0.00     0.106 C 
BRANCH   7   8
HETATM    8  S           1     -20.589  -9.111  -1.694  0.00  0.00    -0.180 SA
HETATM    9  H           1     -20.424  -8.050  -2.503  0.00  0.00     0.101 HD
ENDBRANCH   7   8
ENDBRANCH   6   7
BRANCH   6  10
HETATM   10  C           1     -21.197 -10.705  -5.118  0.00  0.00     0.197 C 
HETATM   11  O           1     -21.044 -10.813  -6.354  0.00  0.00    -0.646 OA
HETATM   12  O           1     -22.098 -11.351  -4.541  0.00  0.00    -0.646 OA
ENDBRANCH   6  10
ENDBRANCH   3   6
ENDBRANCH   1   2
BRANCH   1  13
HETATM   13  C           1     -20.194  -5.100  -5.678  0.00  0.00     0.081 C 
BRANCH  13  14
HETATM   14  C           1     -20.754  -4.715  -7.012  0.00  0.00    -0.056 A 
HETATM   15  C           1     -22.035  -4.168  -7.098  0.00  0.00     0.010 A 
HETATM   16  C           1     -22.557  -3.809  -8.341  0.00  0.00     0.038 A 
HETATM   17  C           1     -21.799  -3.997  -9.497  0.00  0.00     0.081 A 
HETATM   18  C           1     -20.518  -4.543  -9.410  0.00  0.00     0.038 A 
HETATM   19  C           1     -19.996  -4.902  -8.168  0.00  0.00     0.010 A 
BRANCH  17  20
HETATM   20  O           1     -22.306  -3.648 -10.704  0.00  0.00    -0.247 OA
BRANCH  20  21
HETATM   21  P           1     -23.701  -4.319 -11.165  0.00  0.00     0.411 P 
HETATM   22  O           1     -23.958  -5.527 -10.350  0.00  0.00    -0.624 OA
HETATM   23  O           1     -24.801  -3.348 -10.972  0.00  0.00    -0.624 OA
BRANCH  21  24
HETATM   24  O           1     -23.612  -4.729 -12.723  0.00  0.00    -0.300 OA
HETATM   25  H           1     -23.921  -5.619 -12.758  0.00  0.00     0.223 HD
ENDBRANCH  21  24
ENDBRANCH  20  21
ENDBRANCH  17  20
ENDBRANCH  13  14
ENDBRANCH   1  13
BRANCH   1  26
HETATM   26  N           1     -21.308  -5.746  -3.573  0.00  0.00    -0.066 N 
HETATM   27  H           1     -21.657  -4.764  -3.509  0.00  0.00     0.275 HD
HETATM   28  H           1     -22.005  -6.393  -3.140  0.00  0.00     0.275 HD
HETATM   29  H           1     -20.397  -5.826  -3.067  0.00  0.00     0.275 HD
ENDBRANCH   1  26
TORSDOF 11
ENDMDL
MODEL 3
REMARK VINA RESULT:      -7.0     13.519     15.200
REMARK  11 active torsions:
REMARK  status: ('A' for Active; 'I' for Inactive)
REMARK    1  A    between atoms: S_1  and  C_2 
REMARK    2  A    between atoms: C_2  and  C_3 
REMARK    3  A    between atoms: C_3  and  C_4 
REMARK    4  A    between atoms: C_3  and  N_7 
REMARK       I    between atoms: N_7  and  C_8 
REMARK    5  A    between atoms: C_8  and  C_9 
REMARK    6  A    between atoms: C_9  and  C_10 
REMARK    7  A    between atoms: C_9  and  N_22 
REMARK    8  A    between atoms: C_10  and  C_11 
REMARK    9  A    between atoms: C_14  and  O_15 
REMARK   10  A    between atoms: O_15  and  P_16 
REMARK   11  A    between atoms: P_16  and  O_17 
ROOT
HETATM    1  C           1     -22.442  -5.118  -6.151  0.00  0.00     0.278 C 
ENDROOT
BRANCH   1   2
HETATM    2  C           1     -22.302  -4.336  -7.434  0.00  0.00     0.249 C 
HETATM    3  N           1     -23.270  -4.422  -8.398  0.00  0.00    -0.344 N 
HETATM    4  H           1     -24.080  -5.010  -8.250  0.00  0.00     0.163 HD
HETATM    5  O           1     -21.334  -3.633  -7.610  0.00  0.00    -0.271 OA
BRANCH   3   6
HETATM    6  C           1     -23.135  -3.671  -9.630  0.00  0.00     0.194 C 
BRANCH   6   7
HETATM    7  C           1     -22.345  -4.490 -10.642  0.00  0.00     0.106 C 
BRANCH   7   8
HETATM    8  S           1     -20.929  -3.522 -11.234  0.00  0.00    -0.180 SA
HETATM    9  H           1     -21.647  -2.469 -11.661  0.00  0.00     0.101 HD
ENDBRANCH   7   8
ENDBRANCH   6   7
BRANCH   6  10
HETATM   10  C           1     -24.504  -3.369 -10.188  0.00  0.00     0.197 C 
HETATM   11  O           1     -25.347  -2.769  -9.485  0.00  0.00    -0.646 OA
HETATM   12  O           1     -24.796  -3.719 -11.351  0.00  0.00    -0.646 OA
ENDBRANCH   6  10
ENDBRANCH   3   6
ENDBRANCH   1   2
BRANCH   1  13
HETATM   13  C           1     -21.613  -6.393  -6.240  0.00  0.00     0.081 C 
BRANCH  13  14
HETATM   14  C           1     -21.438  -6.973  -4.871  0.00  0.00    -0.056 A 
HETATM   15  C           1     -21.205  -6.131  -3.783  0.00  0.00     0.010 A 
HETATM   16  C           1     -21.042  -6.670  -2.507  0.00  0.00     0.038 A 
HETATM   17  C           1     -21.112  -8.051  -2.319  0.00  0.00     0.081 A 
HETATM   18  C           1     -21.347  -8.892  -3.407  0.00  0.00     0.038 A 
HETATM   19  C           1     -21.509  -8.353  -4.683  0.00  0.00     0.010 A 
BRANCH  17  20
HETATM   20  O           1     -20.955  -8.576  -1.080  0.00  0.00    -0.247 OA
BRANCH  20  21
HETATM   21  P           1     -22.181  -8.443  -0.037  0.00  0.00     0.411 P 
HETATM   22  O           1     -23.049  -9.638  -0.144  0.00  0.00    -0.624 OA
HETATM   23  O           1     -21.648  -8.339   1.339  0.00  0.00    -0.624 OA
BRANCH  21  24
HETATM   24  O           1     -23.041  -7.122  -0.383  0.00  0.00    -0.300 OA
HETATM   25  H           1     -22.590  -6.417   0.051  0.00  0.00     0.223 HD
ENDBRANCH  21  24
ENDBRANCH  20  21
ENDBRANCH  17  20
ENDBRANCH  13  14
ENDBRANCH   1  13
BRANCH   1  26
HETATM   26  N           1     -23.884  -5.473  -5.937  0.00  0.00    -0.066 N 
HETATM   27  H           1     -24.031  -6.484  -6.159  0.00  0.00     0.275 HD
HETATM   28  H           1     -24.141  -5.294  -4.941  0.00  0.00     0.275 HD
HETATM   29  H           1     -24.482  -4.889  -6.563  0.00  0.00     0.275 HD
ENDBRANCH   1  26
TORSDOF 11
ENDMDL
MODEL 4
REMARK VINA RESULT:      -6.9     13.509     14.754
REMARK  11 active torsions:
REMARK  status: ('A' for Active; 'I' for Inactive)
REMARK    1  A    between atoms: S_1  and  C_2 
REMARK    2  A    between atoms: C_2  and  C_3 
REMARK    3  A    between atoms: C_3  and  C_4 
REMARK    4  A    between atoms: C_3  and  N_7 
REMARK       I    between atoms: N_7  and  C_8 
REMARK    5  A    between atoms: C_8  and  C_9 
REMARK    6  A    between atoms: C_9  and  C_10 
REMARK    7  A    between atoms: C_9  and  N_22 
REMARK    8  A    between atoms: C_10  and  C_11 
REMARK    9  A    between atoms: C_14  and  O_15 
REMARK   10  A    between atoms: O_15  and  P_16 
REMARK   11  A    between atoms: P_16  and  O_17 
ROOT
HETATM    1  C           1     -21.435  -6.270  -4.894  0.00  0.00     0.278 C 
ENDROOT
BRANCH   1   2
HETATM    2  C           1     -20.929  -7.685  -5.023  0.00  0.00     0.249 C 
HETATM    3  N           1     -20.162  -8.232  -4.030  0.00  0.00    -0.344 N 
HETATM    4  H           1     -19.935  -7.687  -3.209  0.00  0.00     0.163 HD
HETATM    5  O           1     -21.201  -8.336  -6.005  0.00  0.00    -0.271 OA
BRANCH   3   6
HETATM    6  C           1     -19.676  -9.592  -4.155  0.00  0.00     0.194 C 
BRANCH   6   7
HETATM    7  C           1     -18.154  -9.585  -4.220  0.00  0.00     0.106 C 
BRANCH   7   8
HETATM    8  S           1     -17.615 -10.054  -5.888  0.00  0.00    -0.180 SA
HETATM    9  H           1     -18.628  -9.453  -6.536  0.00  0.00     0.101 HD
ENDBRANCH   7   8
ENDBRANCH   6   7
BRANCH   6  10
HETATM   10  C           1     -20.123 -10.398  -2.960  0.00  0.00     0.197 C 
HETATM   11  O           1     -19.317 -11.159  -2.382  0.00  0.00    -0.646 OA
HETATM   12  O           1     -21.300 -10.307  -2.550  0.00  0.00    -0.646 OA
ENDBRANCH   6  10
ENDBRANCH   3   6
ENDBRANCH   1   2
BRANCH   1  13
HETATM   13  C           1     -20.435  -5.312  -5.529  0.00  0.00     0.081 C 
BRANCH  13  14
HETATM   14  C           1     -20.943  -4.872  -6.866  0.00  0.00    -0.056 A 
HETATM   15  C           1     -22.239  -4.370  -6.989  0.00  0.00     0.010 A 
HETATM   16  C           1     -22.713  -3.960  -8.234  0.00  0.00     0.038 A 
HETATM   17  C           1     -21.891  -4.050  -9.358  0.00  0.00     0.081 A 
HETATM   18  C           1     -20.595  -4.551  -9.235  0.00  0.00     0.038 A 
HETATM   19  C           1     -20.121  -4.962  -7.989  0.00  0.00     0.010 A 
BRANCH  17  20
HETATM   20  O           1     -22.351  -3.651 -10.568  0.00  0.00    -0.247 OA
BRANCH  20  21
HETATM   21  P           1     -23.713  -4.319 -11.121  0.00  0.00     0.411 P 
HETATM   22  O           1     -24.017  -5.537 -10.337  0.00  0.00    -0.624 OA
HETATM   23  O           1     -24.826  -3.353 -10.984  0.00  0.00    -0.624 OA
BRANCH  21  24
HETATM   24  O           1     -23.529  -4.711 -12.676  0.00  0.00    -0.300 OA
HETATM   25  H           1     -22.755  -5.248 -12.701  0.00  0.00     0.223 HD
ENDBRANCH  21  24
ENDBRANCH  20  21
ENDBRANCH  17  20
ENDBRANCH  13  14
ENDBRANCH   1  13
BRANCH   1  26
HETATM   26  N           1     -21.600  -5.929  -3.442  0.00  0.00    -0.066 N 
HETATM   27  H           1     -21.888  -4.929  -3.350  0.00  0.00     0.275 HD
HETATM   28  H           1     -22.334  -6.543  -3.023  0.00  0.00     0.275 HD
HETATM   29  H           1     -20.694  -6.078  -2.945  0.00  0.00     0.275 HD
ENDBRANCH   1  26
TORSDOF 11
ENDMDL
MODEL 5
REMARK VINA RESULT:      -6.8     13.985     15.587
REMARK  11 active torsions:
REMARK  status: ('A' for Active; 'I' for Inactive)
REMARK    1  A    between atoms: S_1  and  C_2 
REMARK    2  A    between atoms: C_2  and  C_3 
REMARK    3  A    between atoms: C_3  and  C_4 
REMARK    4  A    between atoms: C_3  and  N_7 
REMARK       I    between atoms: N_7  and  C_8 
REMARK    5  A    between atoms: C_8  and  C_9 
REMARK    6  A    between atoms: C_9  and  C_10 
REMARK    7  A    between atoms: C_9  and  N_22 
REMARK    8  A    between atoms: C_10  and  C_11 
REMARK    9  A    between atoms: C_14  and  O_15 
REMARK   10  A    between atoms: O_15  and  P_16 
REMARK   11  A    between atoms: P_16  and  O_17 
ROOT
HETATM    1  C           1     -21.196  -5.521  -6.499  0.00  0.00     0.278 C 
ENDROOT
BRANCH   1   2
HETATM    2  C           1     -21.665  -4.487  -7.493  0.00  0.00     0.249 C 
HETATM    3  N           1     -22.304  -4.878  -8.638  0.00  0.00    -0.344 N 
HETATM    4  H           1     -22.461  -5.861  -8.818  0.00  0.00     0.163 HD
HETATM    5  O           1     -21.477  -3.312  -7.277  0.00  0.00    -0.271 OA
BRANCH   3   6
HETATM    6  C           1     -22.754  -3.885  -9.593  0.00  0.00     0.194 C 
BRANCH   6   7
HETATM    7  C           1     -22.204  -4.219 -10.973  0.00  0.00     0.106 C 
BRANCH   7   8
HETATM    8  S           1     -20.407  -3.965 -10.988  0.00  0.00    -0.180 SA
HETATM    9  H           1     -20.374  -3.260 -12.133  0.00  0.00     0.101 HD
ENDBRANCH   7   8
ENDBRANCH   6   7
BRANCH   6  10
HETATM   10  C           1     -24.263  -3.881  -9.642  0.00  0.00     0.197 C 
HETATM   11  O           1     -24.884  -4.951  -9.822  0.00  0.00    -0.646 OA
HETATM   12  O           1     -24.889  -2.809  -9.503  0.00  0.00    -0.646 OA
ENDBRANCH   6  10
ENDBRANCH   3   6
ENDBRANCH   1   2
BRANCH   1  13
HETATM   13  C           1     -22.365  -5.952  -5.623  0.00  0.00     0.081 C 
BRANCH  13  14
HETATM   14  C           1     -21.859  -6.789  -4.490  0.00  0.00    -0.056 A 
HETATM   15  C           1     -21.425  -8.094  -4.727  0.00  0.00     0.010 A 
HETATM   16  C           1     -20.954  -8.874  -3.672  0.00  0.00     0.038 A 
HETATM   17  C           1     -20.916  -8.351  -2.379  0.00  0.00     0.081 A 
HETATM   18  C           1     -21.348  -7.046  -2.143  0.00  0.00     0.038 A 
HETATM   19  C           1     -21.820  -6.265  -3.198  0.00  0.00     0.010 A 
BRANCH  17  20
HETATM   20  O           1     -20.457  -9.108  -1.353  0.00  0.00    -0.247 OA
BRANCH  20  21
HETATM   21  P           1     -21.506  -9.549  -0.208  0.00  0.00     0.411 P 
HETATM   22  O           1     -21.586  -8.488   0.822  0.00  0.00    -0.624 OA
HETATM   23  O           1     -22.841  -9.752  -0.814  0.00  0.00    -0.624 OA
BRANCH  21  24
HETATM   24  O           1     -21.011 -10.925   0.475  0.00  0.00    -0.300 OA
HETATM   25  H           1     -20.131 -10.751   0.763  0.00  0.00     0.223 HD
ENDBRANCH  21  24
ENDBRANCH  20  21
ENDBRANCH  17  20
ENDBRANCH  13  14
ENDBRANCH   1  13
BRANCH   1  26
HETATM   26  N           1     -20.117  -4.933  -5.638  0.00  0.00    -0.066 N 
HETATM   27  H           1     -20.509  -4.145  -5.076  0.00  0.00     0.275 HD
HETATM   28  H           1     -19.746  -5.669  -4.996  0.00  0.00     0.275 HD
HETATM   29  H           1     -19.344  -4.578  -6.244  0.00  0.00     0.275 HD
ENDBRANCH   1  26
TORSDOF 11
ENDMDL
MODEL 6
REMARK VINA RESULT:      -6.7      1.700      2.452
REMARK  11 active torsions:
REMARK  status: ('A' for Active; 'I' for Inactive)
REMARK    1  A    between atoms: S_1  and  C_2 
REMARK    2  A    between atoms: C_2  and  C_3 
REMARK    3  A    between atoms: C_3  and  C_4 
REMARK    4  A    between atoms: C_3  and  N_7 
REMARK       I    between atoms: N_7  and  C_8 
REMARK    5  A    between atoms: C_8  and  C_9 
REMARK    6  A    between atoms: C_9  and  C_10 
REMARK    7  A    between atoms: C_9  and  N_22 
REMARK    8  A    between atoms: C_10  and  C_11 
REMARK    9  A    between atoms: C_14  and  O_15 
REMARK   10  A    between atoms: O_15  and  P_16 
REMARK   11  A    between atoms: P_16  and  O_17 
ROOT
HETATM    1  C           1     -32.822  -4.651 -16.919  0.00  0.00     0.278 C 
ENDROOT
BRANCH   1   2
HETATM    2  C           1     -33.693  -4.586 -15.688  0.00  0.00     0.249 C 
HETATM    3  N           1     -33.171  -4.140 -14.504  0.00  0.00    -0.344 N 
HETATM    4  H           1     -32.202  -3.853 -14.454  0.00  0.00     0.163 HD
HETATM    5  O           1     -34.850  -4.929 -15.748  0.00  0.00    -0.271 OA
BRANCH   3   6
HETATM    6  C           1     -34.007  -4.079 -13.321  0.00  0.00     0.194 C 
BRANCH   6   7
HETATM    7  C           1     -33.202  -4.518 -12.105  0.00  0.00     0.106 C 
BRANCH   7   8
HETATM    8  S           1     -34.218  -5.604 -11.065  0.00  0.00    -0.180 SA
HETATM    9  H           1     -33.257  -5.877 -10.165  0.00  0.00     0.101 HD
ENDBRANCH   7   8
ENDBRANCH   6   7
BRANCH   6  10
HETATM   10  C           1     -34.489  -2.663 -13.119  0.00  0.00     0.197 C 
HETATM   11  O           1     -35.065  -2.060 -14.051  0.00  0.00    -0.646 OA
HETATM   12  O           1     -34.312  -2.094 -12.021  0.00  0.00    -0.646 OA
ENDBRANCH   6  10
ENDBRANCH   3   6
ENDBRANCH   1   2
BRANCH   1  13
HETATM   13  C           1     -32.124  -6.003 -16.978  0.00  0.00     0.081 C 
BRANCH  13  14
HETATM   14  C           1     -30.643  -5.806 -16.880  0.00  0.00    -0.056 A 
HETATM   15  C           1     -30.052  -5.576 -15.637  0.00  0.00     0.010 A 
HETATM   16  C           1     -28.672  -5.394 -15.544  0.00  0.00     0.038 A 
HETATM   17  C           1     -27.884  -5.440 -16.694  0.00  0.00     0.081 A 
HETATM   18  C           1     -28.475  -5.670 -17.937  0.00  0.00     0.038 A 
HETATM   19  C           1     -29.854  -5.853 -18.029  0.00  0.00     0.010 A 
BRANCH  17  20
HETATM   20  O           1     -26.543  -5.262 -16.605  0.00  0.00    -0.247 OA
BRANCH  20  21
HETATM   21  P           1     -25.656  -6.471 -16.005  0.00  0.00     0.411 P 
HETATM   22  O           1     -26.550  -7.564 -15.560  0.00  0.00    -0.624 OA
HETATM   23  O           1     -24.741  -6.976 -17.052  0.00  0.00    -0.624 OA
BRANCH  21  24
HETATM   24  O           1     -24.794  -5.935 -14.750  0.00  0.00    -0.300 OA
HETATM   25  H           1     -24.035  -5.527 -15.132  0.00  0.00     0.223 HD
ENDBRANCH  21  24
ENDBRANCH  20  21
ENDBRANCH  17  20
ENDBRANCH  13  14
ENDBRANCH   1  13
BRANCH   1  26
HETATM   26  N           1     -31.795  -3.560 -16.863  0.00  0.00    -0.066 N 
HETATM   27  H           1     -30.960  -3.837 -17.426  0.00  0.00     0.275 HD
HETATM   28  H           1     -32.201  -2.679 -17.253  0.00  0.00     0.275 HD
HETATM   29  H           1     -31.509  -3.402 -15.870  0.00  0.00     0.275 HD
ENDBRANCH   1  26
TORSDOF 11
ENDMDL
MODEL 7
REMARK VINA RESULT:      -6.5     13.706     14.869
REMARK  11 active torsions:
REMARK  status: ('A' for Active; 'I' for Inactive)
REMARK    1  A    between atoms: S_1  and  C_2 
REMARK    2  A    between atoms: C_2  and  C_3 
REMARK    3  A    between atoms: C_3  and  C_4 
REMARK    4  A    between atoms: C_3  and  N_7 
REMARK       I    between atoms: N_7  and  C_8 
REMARK    5  A    between atoms: C_8  and  C_9 
REMARK    6  A    between atoms: C_9  and  C_10 
REMARK    7  A    between atoms: C_9  and  N_22 
REMARK    8  A    between atoms: C_10  and  C_11 
REMARK    9  A    between atoms: C_14  and  O_15 
REMARK   10  A    between atoms: O_15  and  P_16 
REMARK   11  A    between atoms: P_16  and  O_17 
ROOT
HETATM    1  C           1     -20.288  -7.700  -5.307  0.00  0.00     0.278 C 
ENDROOT
BRANCH   1   2
HETATM    2  C           1     -20.038  -8.406  -3.997  0.00  0.00     0.249 C 
HETATM    3  N           1     -21.038  -8.493  -3.066  0.00  0.00    -0.344 N 
HETATM    4  H           1     -21.944  -8.085  -3.256  0.00  0.00     0.163 HD
HETATM    5  O           1     -18.956  -8.893  -3.770  0.00  0.00    -0.271 OA
BRANCH   3   6
HETATM    6  C           1     -20.798  -9.171  -1.807  0.00  0.00     0.194 C 
BRANCH   6   7
HETATM    7  C           1     -20.883  -8.167  -0.664  0.00  0.00     0.106 C 
BRANCH   7   8
HETATM    8  S           1     -22.282  -7.047  -0.943  0.00  0.00    -0.180 SA
HETATM    9  H           1     -22.890  -7.809  -1.869  0.00  0.00     0.101 HD
ENDBRANCH   7   8
ENDBRANCH   6   7
BRANCH   6  10
HETATM   10  C           1     -21.838 -10.246  -1.608  0.00  0.00     0.197 C 
HETATM   11  O           1     -22.591 -10.570  -2.553  0.00  0.00    -0.646 OA
HETATM   12  O           1     -21.948 -10.812  -0.500  0.00  0.00    -0.646 OA
ENDBRANCH   6  10
ENDBRANCH   3   6
ENDBRANCH   1   2
BRANCH   1  13
HETATM   13  C           1     -20.790  -6.288  -5.037  0.00  0.00     0.081 C 
BRANCH  13  14
HETATM   14  C           1     -21.056  -5.593  -6.336  0.00  0.00    -0.056 A 
HETATM   15  C           1     -22.262  -4.919  -6.532  0.00  0.00     0.010 A 
HETATM   16  C           1     -22.510  -4.272  -7.742  0.00  0.00     0.038 A 
HETATM   17  C           1     -21.553  -4.298  -8.756  0.00  0.00     0.081 A 
HETATM   18  C           1     -20.347  -4.971  -8.560  0.00  0.00     0.038 A 
HETATM   19  C           1     -20.099  -5.619  -7.350  0.00  0.00     0.010 A 
BRANCH  17  20
HETATM   20  O           1     -21.793  -3.669  -9.932  0.00  0.00    -0.247 OA
BRANCH  20  21
HETATM   21  P           1     -23.091  -4.117 -10.782  0.00  0.00     0.411 P 
HETATM   22  O           1     -23.637  -5.373 -10.220  0.00  0.00    -0.624 OA
HETATM   23  O           1     -24.119  -3.055 -10.708  0.00  0.00    -0.624 OA
BRANCH  21  24
HETATM   24  O           1     -22.672  -4.354 -12.322  0.00  0.00    -0.300 OA
HETATM   25  H           1     -21.736  -4.465 -12.305  0.00  0.00     0.223 HD
ENDBRANCH  21  24
ENDBRANCH  20  21
ENDBRANCH  17  20
ENDBRANCH  13  14
ENDBRANCH   1  13
BRANCH   1  26
HETATM   26  N           1     -21.319  -8.454  -6.094  0.00  0.00    -0.066 N 
HETATM   27  H           1     -21.966  -8.947  -5.438  0.00  0.00     0.275 HD
HETATM   28  H           1     -21.862  -7.786  -6.685  0.00  0.00     0.275 HD
HETATM   29  H           1     -20.844  -9.155  -6.706  0.00  0.00     0.275 HD
ENDBRANCH   1  26
TORSDOF 11
ENDMDL
MODEL 8
REMARK VINA RESULT:      -6.5      2.699      3.504
REMARK  11 active torsions:
REMARK  status: ('A' for Active; 'I' for Inactive)
REMARK    1  A    between atoms: S_1  and  C_2 
REMARK    2  A    between atoms: C_2  and  C_3 
REMARK    3  A    between atoms: C_3  and  C_4 
REMARK    4  A    between atoms: C_3  and  N_7 
REMARK       I    between atoms: N_7  and  C_8 
REMARK    5  A    between atoms: C_8  and  C_9 
REMARK    6  A    between atoms: C_9  and  C_10 
REMARK    7  A    between atoms: C_9  and  N_22 
REMARK    8  A    between atoms: C_10  and  C_11 
REMARK    9  A    between atoms: C_14  and  O_15 
REMARK   10  A    between atoms: O_15  and  P_16 
REMARK   11  A    between atoms: P_16  and  O_17 
ROOT
HETATM    1  C           1     -33.825  -4.093 -15.664  0.00  0.00     0.278 C 
ENDROOT
BRANCH   1   2
HETATM    2  C           1     -34.548  -2.934 -15.021  0.00  0.00     0.249 C 
HETATM    3  N           1     -35.036  -1.917 -15.796  0.00  0.00    -0.344 N 
HETATM    4  H           1     -34.911  -1.942 -16.800  0.00  0.00     0.163 HD
HETATM    5  O           1     -34.697  -2.905 -13.822  0.00  0.00    -0.271 OA
BRANCH   3   6
HETATM    6  C           1     -35.729  -0.804 -15.179  0.00  0.00     0.194 C 
BRANCH   6   7
HETATM    7  C           1     -34.754   0.344 -14.955  0.00  0.00     0.106 C 
BRANCH   7   8
HETATM    8  S           1     -34.763   0.815 -13.202  0.00  0.00    -0.180 SA
HETATM    9  H           1     -35.126   2.094 -13.403  0.00  0.00     0.101 HD
ENDBRANCH   7   8
ENDBRANCH   6   7
BRANCH   6  10
HETATM   10  C           1     -36.847  -0.343 -16.084  0.00  0.00     0.197 C 
HETATM   11  O           1     -37.176   0.863 -16.105  0.00  0.00    -0.646 OA
HETATM   12  O           1     -37.443  -1.167 -16.809  0.00  0.00    -0.646 OA
ENDBRANCH   6  10
ENDBRANCH   3   6
ENDBRANCH   1   2
BRANCH   1  13
HETATM   13  C           1     -33.282  -3.664 -17.021  0.00  0.00     0.081 C 
BRANCH  13  14
HETATM   14  C           1     -31.931  -4.271 -17.234  0.00  0.00    -0.056 A 
HETATM   15  C           1     -30.861  -3.468 -17.631  0.00  0.00     0.010 A 
HETATM   16  C           1     -29.601  -4.032 -17.829  0.00  0.00     0.038 A 
HETATM   17  C           1     -29.410  -5.400 -17.630  0.00  0.00     0.081 A 
HETATM   18  C           1     -30.480  -6.202 -17.232  0.00  0.00     0.038 A 
HETATM   19  C           1     -31.740  -5.638 -17.034  0.00  0.00     0.010 A 
BRANCH  17  20
HETATM   20  O           1     -28.187  -5.949 -17.822  0.00  0.00    -0.247 OA
BRANCH  20  21
HETATM   21  P           1     -27.220  -6.115 -16.539  0.00  0.00     0.411 P 
HETATM   22  O           1     -25.807  -6.010 -16.971  0.00  0.00    -0.624 OA
HETATM   23  O           1     -27.517  -5.049 -15.557  0.00  0.00    -0.624 OA
BRANCH  21  24
HETATM   24  O           1     -27.468  -7.558 -15.860  0.00  0.00    -0.300 OA
HETATM   25  H           1     -26.681  -8.047 -16.031  0.00  0.00     0.223 HD
ENDBRANCH  21  24
ENDBRANCH  20  21
ENDBRANCH  17  20
ENDBRANCH  13  14
ENDBRANCH   1  13
BRANCH   1  26
HETATM   26  N           1     -34.778  -5.237 -15.846  0.00  0.00    -0.066 N 
HETATM   27  H           1     -35.654  -4.893 -16.300  0.00  0.00     0.275 HD
HETATM   28  H           1     -34.334  -5.965 -16.451  0.00  0.00     0.275 HD
HETATM   29  H           1     -35.007  -5.651 -14.915  0.00  0.00     0.275 HD
ENDBRANCH   1  26
TORSDOF 11
ENDMDL
MODEL 9
REMARK VINA RESULT:      -6.5     13.184     14.253
REMARK  11 active torsions:
REMARK  status: ('A' for Active; 'I' for Inactive)
REMARK    1  A    between atoms: S_1  and  C_2 
REMARK    2  A    between atoms: C_2  and  C_3 
REMARK    3  A    between atoms: C_3  and  C_4 
REMARK    4  A    between atoms: C_3  and  N_7 
REMARK       I    between atoms: N_7  and  C_8 
REMARK    5  A    between atoms: C_8  and  C_9 
REMARK    6  A    between atoms: C_9  and  C_10 
REMARK    7  A    between atoms: C_9  and  N_22 
REMARK    8  A    between atoms: C_10  and  C_11 
REMARK    9  A    between atoms: C_14  and  O_15 
REMARK   10  A    between atoms: O_15  and  P_16 
REMARK   11  A    between atoms: P_16  and  O_17 
ROOT
HETATM    1  C           1     -20.354  -6.515  -5.341  0.00  0.00     0.278 C 
ENDROOT
BRANCH   1   2
HETATM    2  C           1     -21.279  -6.919  -4.219  0.00  0.00     0.249 C 
HETATM    3  N           1     -21.051  -8.078  -3.527  0.00  0.00    -0.344 N 
HETATM    4  H           1     -20.262  -8.664  -3.769  0.00  0.00     0.163 HD
HETATM    5  O           1     -22.221  -6.219  -3.931  0.00  0.00    -0.271 OA
BRANCH   3   6
HETATM    6  C           1     -21.940  -8.466  -2.451  0.00  0.00     0.194 C 
BRANCH   6   7
HETATM    7  C           1     -21.880  -9.976  -2.260  0.00  0.00     0.106 C 
BRANCH   7   8
HETATM    8  S           1     -23.099 -10.479  -1.013  0.00  0.00    -0.180 SA
HETATM    9  H           1     -23.358  -9.238  -0.562  0.00  0.00     0.101 HD
ENDBRANCH   7   8
ENDBRANCH   6   7
BRANCH   6  10
HETATM   10  C           1     -21.513  -7.782  -1.174  0.00  0.00     0.197 C 
HETATM   11  O           1     -20.421  -8.077  -0.642  0.00  0.00    -0.646 OA
HETATM   12  O           1     -22.252  -6.922  -0.650  0.00  0.00    -0.646 OA
ENDBRANCH   6  10
ENDBRANCH   3   6
ENDBRANCH   1   2
BRANCH   1  13
HETATM   13  C           1     -20.353  -4.998  -5.478  0.00  0.00     0.081 C 
BRANCH  13  14
HETATM   14  C           1     -20.895  -4.616  -6.820  0.00  0.00    -0.056 A 
HETATM   15  C           1     -22.243  -4.284  -6.958  0.00  0.00     0.010 A 
HETATM   16  C           1     -22.749  -3.927  -8.208  0.00  0.00     0.038 A 
HETATM   17  C           1     -21.907  -3.903  -9.320  0.00  0.00     0.081 A 
HETATM   18  C           1     -20.559  -4.235  -9.181  0.00  0.00     0.038 A 
HETATM   19  C           1     -20.053  -4.591  -7.932  0.00  0.00     0.010 A 
BRANCH  17  20
HETATM   20  O           1     -22.398  -3.557 -10.534  0.00  0.00    -0.247 OA
BRANCH  20  21
HETATM   21  P           1     -23.752  -4.277 -11.040  0.00  0.00     0.411 P 
HETATM   22  O           1     -24.896  -3.354 -10.862  0.00  0.00    -0.624 OA
HETATM   23  O           1     -23.618  -4.629 -12.471  0.00  0.00    -0.624 OA
BRANCH  21  24
HETATM   24  O           1     -24.004  -5.617 -10.176  0.00  0.00    -0.300 OA
HETATM   25  H           1     -24.857  -5.920 -10.439  0.00  0.00     0.223 HD
ENDBRANCH  21  24
ENDBRANCH  20  21
ENDBRANCH  17  20
ENDBRANCH  13  14
ENDBRANCH   1  13
BRANCH   1  26
HETATM   26  N           1     -20.825  -7.132  -6.624  0.00  0.00    -0.066 N 
HETATM   27  H           1     -20.350  -6.667  -7.430  0.00  0.00     0.275 HD
HETATM   28  H           1     -20.595  -8.151  -6.625  0.00  0.00     0.275 HD
HETATM   29  H           1     -21.859  -7.008  -6.710  0.00  0.00     0.275 HD
ENDBRANCH   1  26
TORSDOF 11
ENDMDL
