MODEL 1
REMARK VINA RESULT:      -6.3      0.000      0.000
REMARK  6 active torsions:
REMARK  status: ('A' for Active; 'I' for Inactive)
REMARK    1  A    between atoms: C_1  and  C_15 
REMARK    2  A    between atoms: N_6  and  C_13 
REMARK    3  A    between atoms: N_7  and  C_15 
REMARK       I    between atoms: N_7  and  C_17 
REMARK    4  A    between atoms: C_13  and  C_17 
REMARK    5  A    between atoms: C_13  and  C_14 
REMARK    6  A    between atoms: C_14  and  C_16 
ROOT
HETATM    1  C           1     -34.436  -2.160 -11.886  0.00  0.00     0.275 C 
ENDROOT
BRANCH   1   2
HETATM    2  N           1     -34.389  -1.419 -10.582  0.00  0.00    -0.066 N 
HETATM    3  H           1     -34.277  -0.396 -10.767  0.00  0.00     0.275 HD
HETATM    4  H           1     -35.275  -1.583 -10.056  0.00  0.00     0.275 HD
HETATM    5  H           1     -33.578  -1.761 -10.018  0.00  0.00     0.275 HD
ENDBRANCH   1   2
BRANCH   1   6
HETATM    6  C           1     -35.404  -1.473 -12.819  0.00  0.00     0.248 C 
HETATM    7  O           1     -36.560  -1.336 -12.495  0.00  0.00    -0.271 OA
HETATM    8  N           1     -34.973  -1.006 -14.031  0.00  0.00    -0.349 N 
HETATM    9  H           1     -34.004  -1.121 -14.302  0.00  0.00     0.163 HD
BRANCH   8  10
HETATM   10  C           1     -35.903  -0.346 -14.926  0.00  0.00     0.235 C 
BRANCH  10  11
HETATM   11  C           1     -35.799  -0.960 -16.302  0.00  0.00     0.191 C 
HETATM   12  O           1     -34.822  -1.684 -16.591  0.00  0.00    -0.647 OA
HETATM   13  O           1     -36.689  -0.743 -17.151  0.00  0.00    -0.647 OA
ENDBRANCH  10  11
ENDBRANCH   8  10
ENDBRANCH   1   6
BRANCH   1  14
HETATM   14  C           1     -34.894  -3.591 -11.641  0.00  0.00     0.046 C 
BRANCH  14  15
HETATM   15  C           1     -33.756  -4.388 -11.018  0.00  0.00    -0.020 C 
HETATM   16  C           1     -32.548  -4.358 -11.945  0.00  0.00     0.009 C 
HETATM   17  C           1     -34.199  -5.831 -10.810  0.00  0.00     0.009 C 
ENDBRANCH  14  15
ENDBRANCH   1  14
TORSDOF 6
ENDMDL
MODEL 2
REMARK VINA RESULT:      -6.0      2.994      4.917
REMARK  6 active torsions:
REMARK  status: ('A' for Active; 'I' for Inactive)
REMARK    1  A    between atoms: C_1  and  C_15 
REMARK    2  A    between atoms: N_6  and  C_13 
REMARK    3  A    between atoms: N_7  and  C_15 
REMARK       I    between atoms: N_7  and  C_17 
REMARK    4  A    between atoms: C_13  and  C_17 
REMARK    5  A    between atoms: C_13  and  C_14 
REMARK    6  A    between atoms: C_14  and  C_16 
ROOT
HETATM    1  C           1     -35.053  -2.100 -11.828  0.00  0.00     0.275 C 
ENDROOT
BRANCH   1   2
HETATM    2  N           1     -34.774  -1.783 -13.268  0.00  0.00    -0.066 N 
HETATM    3  H           1     -34.014  -2.407 -13.622  0.00  0.00     0.275 HD
HETATM    4  H           1     -35.639  -1.933 -13.832  0.00  0.00     0.275 HD
HETATM    5  H           1     -34.471  -0.785 -13.351  0.00  0.00     0.275 HD
ENDBRANCH   1   2
BRANCH   1   6
HETATM    6  C           1     -35.829  -0.965 -11.205  0.00  0.00     0.248 C 
HETATM    7  O           1     -35.576   0.177 -11.508  0.00  0.00    -0.271 OA
HETATM    8  N           1     -36.818  -1.230 -10.297  0.00  0.00    -0.349 N 
HETATM    9  H           1     -37.030  -2.186 -10.043  0.00  0.00     0.163 HD
BRANCH   8  10
HETATM   10  C           1     -37.563  -0.139  -9.698  0.00  0.00     0.235 C 
BRANCH  10  11
HETATM   11  C           1     -37.131   0.038  -8.263  0.00  0.00     0.191 C 
HETATM   12  O           1     -36.042   0.592  -8.001  0.00  0.00    -0.647 OA
HETATM   13  O           1     -37.863  -0.371  -7.336  0.00  0.00    -0.647 OA
ENDBRANCH  10  11
ENDBRANCH   8  10
ENDBRANCH   1   6
BRANCH   1  14
HETATM   14  C           1     -33.737  -2.286 -11.085  0.00  0.00     0.046 C 
BRANCH  14  15
HETATM   15  C           1     -33.492  -3.771 -10.849  0.00  0.00    -0.020 C 
HETATM   16  C           1     -32.620  -4.325 -11.969  0.00  0.00     0.009 C 
HETATM   17  C           1     -34.824  -4.509 -10.832  0.00  0.00     0.009 C 
ENDBRANCH  14  15
ENDBRANCH   1  14
TORSDOF 6
ENDMDL
MODEL 3
REMARK VINA RESULT:      -5.6     12.854     14.388
REMARK  6 active torsions:
REMARK  status: ('A' for Active; 'I' for Inactive)
REMARK    1  A    between atoms: C_1  and  C_15 
REMARK    2  A    between atoms: N_6  and  C_13 
REMARK    3  A    between atoms: N_7  and  C_15 
REMARK       I    between atoms: N_7  and  C_17 
REMARK    4  A    between atoms: C_13  and  C_17 
REMARK    5  A    between atoms: C_13  and  C_14 
REMARK    6  A    between atoms: C_14  and  C_16 
ROOT
HETATM    1  C           1     -21.147  -5.762  -6.899  0.00  0.00     0.275 C 
ENDROOT
BRANCH   1   2
HETATM    2  N           1     -19.845  -6.047  -7.586  0.00  0.00    -0.066 N 
HETATM    3  H           1     -19.253  -5.186  -7.583  0.00  0.00     0.275 HD
HETATM    4  H           1     -19.346  -6.814  -7.083  0.00  0.00     0.275 HD
HETATM    5  H           1     -20.030  -6.339  -8.573  0.00  0.00     0.275 HD
ENDBRANCH   1   2
BRANCH   1   6
HETATM    6  C           1     -21.795  -4.554  -7.532  0.00  0.00     0.248 C 
HETATM    7  O           1     -21.501  -3.444  -7.156  0.00  0.00    -0.271 OA
HETATM    8  N           1     -22.715  -4.717  -8.532  0.00  0.00    -0.349 N 
HETATM    9  H           1     -22.962  -5.647  -8.847  0.00  0.00     0.163 HD
BRANCH   8  10
HETATM   10  C           1     -23.338  -3.557  -9.140  0.00  0.00     0.235 C 
BRANCH  10  11
HETATM   11  C           1     -24.120  -3.985 -10.358  0.00  0.00     0.191 C 
HETATM   12  O           1     -23.875  -5.083 -10.904  0.00  0.00    -0.647 OA
HETATM   13  O           1     -25.013  -3.243 -10.820  0.00  0.00    -0.647 OA
ENDBRANCH  10  11
ENDBRANCH   8  10
ENDBRANCH   1   6
BRANCH   1  14
HETATM   14  C           1     -20.892  -5.487  -5.423  0.00  0.00     0.046 C 
BRANCH  14  15
HETATM   15  C           1     -21.791  -6.379  -4.577  0.00  0.00    -0.020 C 
HETATM   16  C           1     -21.451  -6.192  -3.104  0.00  0.00     0.009 C 
HETATM   17  C           1     -21.573  -7.836  -4.966  0.00  0.00     0.009 C 
ENDBRANCH  14  15
ENDBRANCH   1  14
TORSDOF 6
ENDMDL
MODEL 4
REMARK VINA RESULT:      -5.4     15.541     17.696
REMARK  6 active torsions:
REMARK  status: ('A' for Active; 'I' for Inactive)
REMARK    1  A    between atoms: C_1  and  C_15 
REMARK    2  A    between atoms: N_6  and  C_13 
REMARK    3  A    between atoms: N_7  and  C_15 
REMARK       I    between atoms: N_7  and  C_17 
REMARK    4  A    between atoms: C_13  and  C_17 
REMARK    5  A    between atoms: C_13  and  C_14 
REMARK    6  A    between atoms: C_14  and  C_16 
ROOT
HETATM    1  C           1     -20.475  -6.301  -5.293  0.00  0.00     0.275 C 
ENDROOT
BRANCH   1   2
HETATM    2  N           1     -20.953  -7.097  -6.471  0.00  0.00    -0.066 N 
HETATM    3  H           1     -20.510  -6.729  -7.343  0.00  0.00     0.275 HD
HETATM    4  H           1     -20.690  -8.100  -6.344  0.00  0.00     0.275 HD
HETATM    5  H           1     -21.993  -7.015  -6.547  0.00  0.00     0.275 HD
ENDBRANCH   1   2
BRANCH   1   6
HETATM    6  C           1     -21.562  -6.253  -4.246  0.00  0.00     0.248 C 
HETATM    7  O           1     -22.721  -6.197  -4.581  0.00  0.00    -0.271 OA
HETATM    8  N           1     -21.234  -6.272  -2.918  0.00  0.00    -0.349 N 
HETATM    9  H           1     -20.263  -6.319  -2.636  0.00  0.00     0.163 HD
BRANCH   8  10
HETATM   10  C           1     -22.278  -6.225  -1.912  0.00  0.00     0.235 C 
BRANCH  10  11
HETATM   11  C           1     -22.045  -7.314  -0.893  0.00  0.00     0.191 C 
HETATM   12  O           1     -22.935  -7.592  -0.060  0.00  0.00    -0.647 OA
HETATM   13  O           1     -20.963  -7.938  -0.883  0.00  0.00    -0.647 OA
ENDBRANCH  10  11
ENDBRANCH   8  10
ENDBRANCH   1   6
BRANCH   1  14
HETATM   14  C           1     -20.136  -4.886  -5.740  0.00  0.00     0.046 C 
BRANCH  14  15
HETATM   15  C           1     -20.522  -4.709  -7.203  0.00  0.00    -0.020 C 
HETATM   16  C           1     -19.303  -4.258  -7.998  0.00  0.00     0.009 C 
HETATM   17  C           1     -21.618  -3.659  -7.316  0.00  0.00     0.009 C 
ENDBRANCH  14  15
ENDBRANCH   1  14
TORSDOF 6
ENDMDL
MODEL 5
REMARK VINA RESULT:      -5.3     13.982     15.806
REMARK  6 active torsions:
REMARK  status: ('A' for Active; 'I' for Inactive)
REMARK    1  A    between atoms: C_1  and  C_15 
REMARK    2  A    between atoms: N_6  and  C_13 
REMARK    3  A    between atoms: N_7  and  C_15 
REMARK       I    between atoms: N_7  and  C_17 
REMARK    4  A    between atoms: C_13  and  C_17 
REMARK    5  A    between atoms: C_13  and  C_14 
REMARK    6  A    between atoms: C_14  and  C_16 
ROOT
HETATM    1  C           1     -22.361  -4.840  -8.278  0.00  0.00     0.275 C 
ENDROOT
BRANCH   1   2
HETATM    2  N           1     -23.564  -4.175  -7.679  0.00  0.00    -0.066 N 
HETATM    3  H           1     -23.298  -3.722  -6.775  0.00  0.00     0.275 HD
HETATM    4  H           1     -23.926  -3.450  -8.338  0.00  0.00     0.275 HD
HETATM    5  H           1     -24.306  -4.890  -7.503  0.00  0.00     0.275 HD
ENDBRANCH   1   2
BRANCH   1   6
HETATM    6  C           1     -21.511  -5.426  -7.178  0.00  0.00     0.248 C 
HETATM    7  O           1     -20.649  -6.230  -7.443  0.00  0.00    -0.271 OA
HETATM    8  N           1     -21.716  -5.046  -5.879  0.00  0.00    -0.349 N 
HETATM    9  H           1     -22.437  -4.373  -5.656  0.00  0.00     0.163 HD
BRANCH   8  10
HETATM   10  C           1     -20.898  -5.610  -4.821  0.00  0.00     0.235 C 
BRANCH  10  11
HETATM   11  C           1     -21.743  -6.521  -3.963  0.00  0.00     0.191 C 
HETATM   12  O           1     -21.882  -7.723  -4.277  0.00  0.00    -0.647 OA
HETATM   13  O           1     -22.302  -6.073  -2.939  0.00  0.00    -0.647 OA
ENDBRANCH  10  11
ENDBRANCH   8  10
ENDBRANCH   1   6
BRANCH   1  14
HETATM   14  C           1     -21.549  -3.815  -9.058  0.00  0.00     0.046 C 
BRANCH  14  15
HETATM   15  C           1     -21.345  -4.307 -10.485  0.00  0.00    -0.020 C 
HETATM   16  C           1     -20.560  -3.266 -11.272  0.00  0.00     0.009 C 
HETATM   17  C           1     -22.699  -4.527 -11.146  0.00  0.00     0.009 C 
ENDBRANCH  14  15
ENDBRANCH   1  14
TORSDOF 6
ENDMDL
MODEL 6
REMARK VINA RESULT:      -5.1     25.516     26.572
REMARK  6 active torsions:
REMARK  status: ('A' for Active; 'I' for Inactive)
REMARK    1  A    between atoms: C_1  and  C_15 
REMARK    2  A    between atoms: N_6  and  C_13 
REMARK    3  A    between atoms: N_7  and  C_15 
REMARK       I    between atoms: N_7  and  C_17 
REMARK    4  A    between atoms: C_13  and  C_17 
REMARK    5  A    between atoms: C_13  and  C_14 
REMARK    6  A    between atoms: C_14  and  C_16 
ROOT
HETATM    1  C           1     -10.249   6.480 -19.555  0.00  0.00     0.275 C 
ENDROOT
BRANCH   1   2
HETATM    2  N           1      -9.374   5.526 -18.798  0.00  0.00    -0.066 N 
HETATM    3  H           1      -9.970   4.820 -18.308  0.00  0.00     0.275 HD
HETATM    4  H           1      -8.733   5.039 -19.463  0.00  0.00     0.275 HD
HETATM    5  H           1      -8.811   6.055 -18.093  0.00  0.00     0.275 HD
ENDBRANCH   1   2
BRANCH   1   6
HETATM    6  C           1     -11.490   5.759 -20.024  0.00  0.00     0.248 C 
HETATM    7  O           1     -12.514   5.842 -19.388  0.00  0.00    -0.271 OA
HETATM    8  N           1     -11.454   5.012 -21.170  0.00  0.00    -0.349 N 
HETATM    9  H           1     -10.597   4.942 -21.703  0.00  0.00     0.163 HD
BRANCH   8  10
HETATM   10  C           1     -12.646   4.319 -21.621  0.00  0.00     0.235 C 
BRANCH  10  11
HETATM   11  C           1     -12.557   2.862 -21.239  0.00  0.00     0.191 C 
HETATM   12  O           1     -11.476   2.390 -20.824  0.00  0.00    -0.647 OA
HETATM   13  O           1     -13.563   2.128 -21.337  0.00  0.00    -0.647 OA
ENDBRANCH  10  11
ENDBRANCH   8  10
ENDBRANCH   1   6
BRANCH   1  14
HETATM   14  C           1      -9.489   7.021 -20.758  0.00  0.00     0.046 C 
BRANCH  14  15
HETATM   15  C           1      -9.840   8.489 -20.962  0.00  0.00    -0.020 C 
HETATM   16  C           1      -8.617   9.236 -21.477  0.00  0.00     0.009 C 
HETATM   17  C           1     -10.284   9.095 -19.638  0.00  0.00     0.009 C 
ENDBRANCH  14  15
ENDBRANCH   1  14
TORSDOF 6
ENDMDL
MODEL 7
REMARK VINA RESULT:      -5.1     13.524     14.974
REMARK  6 active torsions:
REMARK  status: ('A' for Active; 'I' for Inactive)
REMARK    1  A    between atoms: C_1  and  C_15 
REMARK    2  A    between atoms: N_6  and  C_13 
REMARK    3  A    between atoms: N_7  and  C_15 
REMARK       I    between atoms: N_7  and  C_17 
REMARK    4  A    between atoms: C_13  and  C_17 
REMARK    5  A    between atoms: C_13  and  C_14 
REMARK    6  A    between atoms: C_14  and  C_16 
ROOT
HETATM    1  C           1     -21.282  -4.331  -6.525  0.00  0.00     0.275 C 
ENDROOT
BRANCH   1   2
HETATM    2  N           1     -22.724  -4.727  -6.647  0.00  0.00    -0.066 N 
HETATM    3  H           1     -23.095  -4.983  -5.704  0.00  0.00     0.275 HD
HETATM    4  H           1     -23.274  -3.927  -7.032  0.00  0.00     0.275 HD
HETATM    5  H           1     -22.806  -5.548  -7.288  0.00  0.00     0.275 HD
ENDBRANCH   1   2
BRANCH   1   6
HETATM    6  C           1     -20.676  -4.213  -7.903  0.00  0.00     0.248 C 
HETATM    7  O           1     -19.532  -3.845  -8.030  0.00  0.00    -0.271 OA
HETATM    8  N           1     -21.422  -4.522  -9.008  0.00  0.00    -0.349 N 
HETATM    9  H           1     -22.380  -4.830  -8.902  0.00  0.00     0.163 HD
BRANCH   8  10
HETATM   10  C           1     -20.839  -4.408 -10.331  0.00  0.00     0.235 C 
BRANCH  10  11
HETATM   11  C           1     -21.838  -3.774 -11.268  0.00  0.00     0.191 C 
HETATM   12  O           1     -21.608  -2.647 -11.757  0.00  0.00    -0.647 OA
HETATM   13  O           1     -22.895  -4.375 -11.555  0.00  0.00    -0.647 OA
ENDBRANCH  10  11
ENDBRANCH   8  10
ENDBRANCH   1   6
BRANCH   1  14
HETATM   14  C           1     -20.531  -5.388  -5.728  0.00  0.00     0.046 C 
BRANCH  14  15
HETATM   15  C           1     -21.528  -6.273  -4.992  0.00  0.00    -0.020 C 
HETATM   16  C           1     -21.323  -6.129  -3.490  0.00  0.00     0.009 C 
HETATM   17  C           1     -21.312  -7.726  -5.395  0.00  0.00     0.009 C 
ENDBRANCH  14  15
ENDBRANCH   1  14
TORSDOF 6
ENDMDL
MODEL 8
REMARK VINA RESULT:      -5.0     16.533     17.833
REMARK  6 active torsions:
REMARK  status: ('A' for Active; 'I' for Inactive)
REMARK    1  A    between atoms: C_1  and  C_15 
REMARK    2  A    between atoms: N_6  and  C_13 
REMARK    3  A    between atoms: N_7  and  C_15 
REMARK       I    between atoms: N_7  and  C_17 
REMARK    4  A    between atoms: C_13  and  C_17 
REMARK    5  A    between atoms: C_13  and  C_14 
REMARK    6  A    between atoms: C_14  and  C_16 
ROOT
HETATM    1  C           1     -21.318  -6.966  -2.014  0.00  0.00     0.275 C 
ENDROOT
BRANCH   1   2
HETATM    2  N           1     -22.344  -5.874  -1.946  0.00  0.00    -0.066 N 
HETATM    3  H           1     -23.196  -6.162  -2.480  0.00  0.00     0.275 HD
HETATM    4  H           1     -22.602  -5.699  -0.949  0.00  0.00     0.275 HD
HETATM    5  H           1     -21.951  -5.000  -2.364  0.00  0.00     0.275 HD
ENDBRANCH   1   2
BRANCH   1   6
HETATM    6  C           1     -21.065  -7.328  -3.458  0.00  0.00     0.248 C 
HETATM    7  O           1     -20.378  -8.283  -3.729  0.00  0.00    -0.271 OA
HETATM    8  N           1     -21.615  -6.574  -4.459  0.00  0.00    -0.349 N 
HETATM    9  H           1     -22.191  -5.773  -4.232  0.00  0.00     0.163 HD
BRANCH   8  10
HETATM   10  C           1     -21.372  -6.922  -5.846  0.00  0.00     0.235 C 
BRANCH  10  11
HETATM   11  C           1     -20.391  -5.944  -6.446  0.00  0.00     0.191 C 
HETATM   12  O           1     -19.865  -6.187  -7.553  0.00  0.00    -0.647 OA
HETATM   13  O           1     -20.105  -4.893  -5.835  0.00  0.00    -0.647 OA
ENDBRANCH  10  11
ENDBRANCH   8  10
ENDBRANCH   1   6
BRANCH   1  14
HETATM   14  C           1     -21.828  -8.189  -1.265  0.00  0.00     0.046 C 
BRANCH  14  15
HETATM   15  C           1     -22.034  -7.836   0.202  0.00  0.00    -0.020 C 
HETATM   16  C           1     -21.085  -8.663   1.061  0.00  0.00     0.009 C 
HETATM   17  C           1     -23.472  -8.140   0.601  0.00  0.00     0.009 C 
ENDBRANCH  14  15
ENDBRANCH   1  14
TORSDOF 6
ENDMDL
MODEL 9
REMARK VINA RESULT:      -5.0     25.029     26.064
REMARK  6 active torsions:
REMARK  status: ('A' for Active; 'I' for Inactive)
REMARK    1  A    between atoms: C_1  and  C_15 
REMARK    2  A    between atoms: N_6  and  C_13 
REMARK    3  A    between atoms: N_7  and  C_15 
REMARK       I    between atoms: N_7  and  C_17 
REMARK    4  A    between atoms: C_13  and  C_17 
REMARK    5  A    between atoms: C_13  and  C_14 
REMARK    6  A    between atoms: C_14  and  C_16 
ROOT
HETATM    1  C           1     -10.205   6.145 -19.490  0.00  0.00     0.275 C 
ENDROOT
BRANCH   1   2
HETATM    2  N           1      -9.212   5.450 -18.605  0.00  0.00    -0.066 N 
HETATM    3  H           1      -9.515   5.535 -17.608  0.00  0.00     0.275 HD
HETATM    4  H           1      -9.158   4.441 -18.868  0.00  0.00     0.275 HD
HETATM    5  H           1      -8.273   5.893 -18.722  0.00  0.00     0.275 HD
ENDBRANCH   1   2
BRANCH   1   6
HETATM    6  C           1     -11.217   5.145 -19.991  0.00  0.00     0.248 C 
HETATM    7  O           1     -10.986   3.962 -19.916  0.00  0.00    -0.271 OA
HETATM    8  N           1     -12.398   5.578 -20.531  0.00  0.00    -0.349 N 
HETATM    9  H           1     -12.593   6.569 -20.594  0.00  0.00     0.163 HD
BRANCH   8  10
HETATM   10  C           1     -13.371   4.616 -21.013  0.00  0.00     0.235 C 
BRANCH  10  11
HETATM   11  C           1     -14.763   5.109 -20.701  0.00  0.00     0.191 C 
HETATM   12  O           1     -15.102   5.317 -19.516  0.00  0.00    -0.647 OA
HETATM   13  O           1     -15.577   5.310 -21.628  0.00  0.00    -0.647 OA
ENDBRANCH  10  11
ENDBRANCH   8  10
ENDBRANCH   1   6
BRANCH   1  14
HETATM   14  C           1      -9.479   6.772 -20.673  0.00  0.00     0.046 C 
BRANCH  14  15
HETATM   15  C           1      -9.948   8.209 -20.854  0.00  0.00    -0.020 C 
HETATM   16  C           1      -8.784   9.065 -21.337  0.00  0.00     0.009 C 
HETATM   17  C           1     -10.457   8.749 -19.525  0.00  0.00     0.009 C 
ENDBRANCH  14  15
ENDBRANCH   1  14
TORSDOF 6
ENDMDL
