MODEL 1
REMARK VINA RESULT:      -7.6      0.000      0.000
REMARK  11 active torsions:
REMARK  status: ('A' for Active; 'I' for Inactive)
REMARK    1  A    between atoms: C_2  and  C_17 
REMARK    2  A    between atoms: C_2  and  C_14 
REMARK    3  A    between atoms: C_7  and  C_18 
REMARK    4  A    between atoms: C_7  and  C_17 
REMARK    5  A    between atoms: N_8  and  C_30 
REMARK       I    between atoms: N_8  and  C_19 
REMARK    6  A    between atoms: N_12  and  C_14 
REMARK    7  A    between atoms: N_13  and  C_18 
REMARK    8  A    between atoms: C_16  and  C_30 
REMARK    9  A    between atoms: C_18  and  C_19 
REMARK   10  A    between atoms: C_26  and  C_27 
REMARK   11  A    between atoms: C_27  and  C_30 
ROOT
HETATM    1  H           1     -23.380  -6.000  -4.126  0.00  0.00     0.163 HD
HETATM    2  N           1     -22.424  -6.331  -4.152  0.00  0.00    -0.344 N 
HETATM    3  O           1     -21.000  -5.338  -2.748  0.00  0.00    -0.271 OA
HETATM    4  C           1     -21.663  -6.311  -3.014  0.00  0.00     0.249 C 
ENDROOT
BRANCH   2   5
HETATM    5  C           1     -21.861  -6.826  -5.392  0.00  0.00     0.190 C 
BRANCH   5   6
HETATM    6  C           1     -20.976  -8.013  -5.103  0.00  0.00     0.197 C 
HETATM    7  O           1     -19.741  -7.860  -4.993  0.00  0.00    -0.646 OA
HETATM    8  O           1     -21.479  -9.151  -4.974  0.00  0.00    -0.646 OA
ENDBRANCH   5   6
BRANCH   5   9
HETATM    9  C           1     -21.036  -5.726  -6.050  0.00  0.00     0.077 C 
BRANCH   9  10
HETATM   10  C           1     -21.861  -5.042  -7.096  0.00  0.00    -0.021 A 
HETATM   11  C           1     -21.435  -4.706  -8.411  0.00  0.00     0.005 A 
HETATM   12  C           1     -22.512  -4.084  -9.045  0.00  0.00     0.132 A 
HETATM   13  C           1     -20.233  -4.874  -9.125  0.00  0.00     0.014 A 
HETATM   14  N           1     -23.548  -4.048  -8.139  0.00  0.00    -0.077 N 
HETATM   15  C           1     -22.445  -3.618 -10.363  0.00  0.00     0.037 A 
HETATM   16  C           1     -23.165  -4.624  -6.957  0.00  0.00     0.195 A 
HETATM   17  H           1     -24.495  -3.637  -8.328  0.00  0.00     0.271 HD
HETATM   18  C           1     -21.241  -3.796 -11.051  0.00  0.00     0.002 A 
HETATM   19  C           1     -20.150  -4.414 -10.444  0.00  0.00     0.001 A 
ENDBRANCH   9  10
ENDBRANCH   5   9
ENDBRANCH   2   5
BRANCH   4  20
HETATM   20  C           1     -21.654  -7.506  -2.091  0.00  0.00     0.274 C 
BRANCH  20  21
HETATM   21  C           1     -22.372  -7.153  -0.796  0.00  0.00     0.043 C 
BRANCH  21  22
HETATM   22  C           1     -22.119  -8.240   0.240  0.00  0.00     0.006 C 
BRANCH  22  23
HETATM   23  C           1     -23.014  -9.437  -0.051  0.00  0.00     0.420 C 
BRANCH  23  24
HETATM   24  C           1     -22.187 -10.715   0.004  0.00  0.00     0.231 C 
BRANCH  24  25
HETATM   25  N           1     -20.883 -10.439   0.692  0.00  0.00    -0.079 N 
HETATM   26  H           1     -21.020 -10.484   1.727  0.00  0.00     0.274 HD
HETATM   27  H           1     -20.178 -11.154   0.403  0.00  0.00     0.274 HD
HETATM   28  H           1     -20.544  -9.488   0.425  0.00  0.00     0.274 HD
ENDBRANCH  24  25
ENDBRANCH  23  24
ENDBRANCH  22  23
ENDBRANCH  21  22
ENDBRANCH  20  21
BRANCH  20  29
HETATM   29  N           1     -20.236  -7.890  -1.787  0.00  0.00    -0.067 N 
HETATM   30  H           1     -20.056  -8.861  -2.129  0.00  0.00     0.275 HD
HETATM   31  H           1     -19.586  -7.227  -2.265  0.00  0.00     0.275 HD
HETATM   32  H           1     -20.079  -7.850  -0.754  0.00  0.00     0.275 HD
ENDBRANCH  20  29
ENDBRANCH   4  20
TORSDOF 11
ENDMDL
MODEL 2
REMARK VINA RESULT:      -7.5      2.036      7.775
REMARK  11 active torsions:
REMARK  status: ('A' for Active; 'I' for Inactive)
REMARK    1  A    between atoms: C_2  and  C_17 
REMARK    2  A    between atoms: C_2  and  C_14 
REMARK    3  A    between atoms: C_7  and  C_18 
REMARK    4  A    between atoms: C_7  and  C_17 
REMARK    5  A    between atoms: N_8  and  C_30 
REMARK       I    between atoms: N_8  and  C_19 
REMARK    6  A    between atoms: N_12  and  C_14 
REMARK    7  A    between atoms: N_13  and  C_18 
REMARK    8  A    between atoms: C_16  and  C_30 
REMARK    9  A    between atoms: C_18  and  C_19 
REMARK   10  A    between atoms: C_26  and  C_27 
REMARK   11  A    between atoms: C_27  and  C_30 
ROOT
HETATM    1  H           1     -19.883  -7.615  -7.416  0.00  0.00     0.163 HD
HETATM    2  N           1     -19.990  -6.965  -6.648  0.00  0.00    -0.344 N 
HETATM    3  O           1     -19.157  -4.918  -6.966  0.00  0.00    -0.271 OA
HETATM    4  C           1     -20.133  -5.626  -6.899  0.00  0.00     0.249 C 
ENDROOT
BRANCH   2   5
HETATM    5  C           1     -19.994  -7.450  -5.282  0.00  0.00     0.190 C 
BRANCH   5   6
HETATM    6  C           1     -19.080  -8.645  -5.171  0.00  0.00     0.197 C 
HETATM    7  O           1     -18.632  -8.988  -4.056  0.00  0.00    -0.646 OA
HETATM    8  O           1     -18.769  -9.292  -6.195  0.00  0.00    -0.646 OA
ENDBRANCH   5   6
BRANCH   5   9
HETATM    9  C           1     -21.410  -7.855  -4.891  0.00  0.00     0.077 C 
BRANCH   9  10
HETATM   10  C           1     -21.726  -7.316  -3.531  0.00  0.00    -0.021 A 
HETATM   11  C           1     -21.762  -8.062  -2.321  0.00  0.00     0.005 A 
HETATM   12  C           1     -22.097  -7.172  -1.299  0.00  0.00     0.132 A 
HETATM   13  C           1     -21.538  -9.414  -1.995  0.00  0.00     0.014 A 
HETATM   14  N           1     -22.258  -5.934  -1.879  0.00  0.00    -0.077 N 
HETATM   15  C           1     -22.222  -7.570   0.038  0.00  0.00     0.037 A 
HETATM   16  C           1     -22.036  -6.009  -3.228  0.00  0.00     0.195 A 
HETATM   17  H           1     -22.514  -5.058  -1.360  0.00  0.00     0.271 HD
HETATM   18  C           1     -21.996  -8.916   0.335  0.00  0.00     0.002 A 
HETATM   19  C           1     -21.659  -9.828  -0.664  0.00  0.00     0.001 A 
ENDBRANCH   9  10
ENDBRANCH   5   9
ENDBRANCH   2   5
BRANCH   4  20
HETATM   20  C           1     -21.508  -5.037  -7.095  0.00  0.00     0.274 C 
BRANCH  20  21
HETATM   21  C           1     -21.960  -5.267  -8.531  0.00  0.00     0.043 C 
BRANCH  21  22
HETATM   22  C           1     -21.682  -4.019  -9.358  0.00  0.00     0.006 C 
BRANCH  22  23
HETATM   23  C           1     -22.745  -3.880 -10.440  0.00  0.00     0.420 C 
BRANCH  23  24
HETATM   24  C           1     -24.094  -4.318  -9.886  0.00  0.00     0.231 C 
BRANCH  24  25
HETATM   25  N           1     -24.705  -3.193  -9.105  0.00  0.00    -0.079 N 
HETATM   26  H           1     -25.745  -3.296  -9.103  0.00  0.00     0.274 HD
HETATM   27  H           1     -24.351  -3.217  -8.122  0.00  0.00     0.274 HD
HETATM   28  H           1     -24.445  -2.282  -9.546  0.00  0.00     0.274 HD
ENDBRANCH  24  25
ENDBRANCH  23  24
ENDBRANCH  22  23
ENDBRANCH  21  22
ENDBRANCH  20  21
BRANCH  20  29
HETATM   29  N           1     -21.465  -3.564  -6.816  0.00  0.00    -0.067 N 
HETATM   30  H           1     -21.779  -3.384  -5.835  0.00  0.00     0.275 HD
HETATM   31  H           1     -20.486  -3.216  -6.937  0.00  0.00     0.275 HD
HETATM   32  H           1     -22.097  -3.065  -7.481  0.00  0.00     0.275 HD
ENDBRANCH  20  29
ENDBRANCH   4  20
TORSDOF 11
ENDMDL
MODEL 3
REMARK VINA RESULT:      -7.5      3.120      7.294
REMARK  11 active torsions:
REMARK  status: ('A' for Active; 'I' for Inactive)
REMARK    1  A    between atoms: C_2  and  C_17 
REMARK    2  A    between atoms: C_2  and  C_14 
REMARK    3  A    between atoms: C_7  and  C_18 
REMARK    4  A    between atoms: C_7  and  C_17 
REMARK    5  A    between atoms: N_8  and  C_30 
REMARK       I    between atoms: N_8  and  C_19 
REMARK    6  A    between atoms: N_12  and  C_14 
REMARK    7  A    between atoms: N_13  and  C_18 
REMARK    8  A    between atoms: C_16  and  C_30 
REMARK    9  A    between atoms: C_18  and  C_19 
REMARK   10  A    between atoms: C_26  and  C_27 
REMARK   11  A    between atoms: C_27  and  C_30 
ROOT
HETATM    1  H           1     -21.154  -5.676  -2.318  0.00  0.00     0.163 HD
HETATM    2  N           1     -21.351  -6.458  -2.928  0.00  0.00    -0.344 N 
HETATM    3  O           1     -22.731  -6.056  -4.636  0.00  0.00    -0.271 OA
HETATM    4  C           1     -21.600  -6.245  -4.257  0.00  0.00     0.249 C 
ENDROOT
BRANCH   2   5
HETATM    5  C           1     -21.367  -7.807  -2.396  0.00  0.00     0.190 C 
BRANCH   5   6
HETATM    6  C           1     -22.154  -7.829  -1.109  0.00  0.00     0.197 C 
HETATM    7  O           1     -22.694  -6.783  -0.689  0.00  0.00    -0.646 OA
HETATM    8  O           1     -22.265  -8.894  -0.462  0.00  0.00    -0.646 OA
ENDBRANCH   5   6
BRANCH   5   9
HETATM    9  C           1     -19.938  -8.263  -2.126  0.00  0.00     0.077 C 
BRANCH   9  10
HETATM   10  C           1     -19.493  -9.183  -3.220  0.00  0.00    -0.021 A 
HETATM   11  C           1     -18.158  -9.608  -3.465  0.00  0.00     0.005 A 
HETATM   12  C           1     -18.194 -10.456  -4.574  0.00  0.00     0.132 A 
HETATM   13  C           1     -16.919  -9.355  -2.847  0.00  0.00     0.014 A 
HETATM   14  N           1     -19.508 -10.533  -4.980  0.00  0.00    -0.077 N 
HETATM   15  C           1     -17.047 -11.062  -5.099  0.00  0.00     0.037 A 
HETATM   16  C           1     -20.302  -9.768  -4.168  0.00  0.00     0.195 A 
HETATM   17  H           1     -19.850 -11.099  -5.796  0.00  0.00     0.271 HD
HETATM   18  C           1     -15.828 -10.794  -4.469  0.00  0.00     0.002 A 
HETATM   19  C           1     -15.762  -9.953  -3.359  0.00  0.00     0.001 A 
ENDBRANCH   9  10
ENDBRANCH   5   9
ENDBRANCH   2   5
BRANCH   4  20
HETATM   20  C           1     -20.462  -6.243  -5.249  0.00  0.00     0.274 C 
BRANCH  20  21
HETATM   21  C           1     -20.154  -4.812  -5.666  0.00  0.00     0.043 C 
BRANCH  21  22
HETATM   22  C           1     -20.392  -4.655  -7.162  0.00  0.00     0.006 C 
BRANCH  22  23
HETATM   23  C           1     -21.595  -3.750  -7.393  0.00  0.00     0.420 C 
BRANCH  23  24
HETATM   24  C           1     -22.522  -4.388  -8.419  0.00  0.00     0.231 C 
BRANCH  24  25
HETATM   25  N           1     -23.892  -3.792  -8.297  0.00  0.00    -0.079 N 
HETATM   26  H           1     -24.002  -3.024  -8.997  0.00  0.00     0.274 HD
HETATM   27  H           1     -24.611  -4.529  -8.473  0.00  0.00     0.274 HD
HETATM   28  H           1     -24.019  -3.406  -7.334  0.00  0.00     0.274 HD
ENDBRANCH  24  25
ENDBRANCH  23  24
ENDBRANCH  22  23
ENDBRANCH  21  22
ENDBRANCH  20  21
BRANCH  20  29
HETATM   29  N           1     -20.852  -7.042  -6.457  0.00  0.00    -0.067 N 
HETATM   30  H           1     -20.585  -6.521  -7.322  0.00  0.00     0.275 HD
HETATM   31  H           1     -20.357  -7.963  -6.440  0.00  0.00     0.275 HD
HETATM   32  H           1     -21.885  -7.201  -6.452  0.00  0.00     0.275 HD
ENDBRANCH  20  29
ENDBRANCH   4  20
TORSDOF 11
ENDMDL
MODEL 4
REMARK VINA RESULT:      -7.2      1.984      8.043
REMARK  11 active torsions:
REMARK  status: ('A' for Active; 'I' for Inactive)
REMARK    1  A    between atoms: C_2  and  C_17 
REMARK    2  A    between atoms: C_2  and  C_14 
REMARK    3  A    between atoms: C_7  and  C_18 
REMARK    4  A    between atoms: C_7  and  C_17 
REMARK    5  A    between atoms: N_8  and  C_30 
REMARK       I    between atoms: N_8  and  C_19 
REMARK    6  A    between atoms: N_12  and  C_14 
REMARK    7  A    between atoms: N_13  and  C_18 
REMARK    8  A    between atoms: C_16  and  C_30 
REMARK    9  A    between atoms: C_18  and  C_19 
REMARK   10  A    between atoms: C_26  and  C_27 
REMARK   11  A    between atoms: C_27  and  C_30 
ROOT
HETATM    1  H           1     -21.899  -8.356  -6.425  0.00  0.00     0.163 HD
HETATM    2  N           1     -21.156  -7.947  -5.874  0.00  0.00    -0.344 N 
HETATM    3  O           1     -19.689  -6.680  -6.982  0.00  0.00    -0.271 OA
HETATM    4  C           1     -20.630  -6.733  -6.227  0.00  0.00     0.249 C 
ENDROOT
BRANCH   2   5
HETATM    5  C           1     -20.648  -8.646  -4.709  0.00  0.00     0.190 C 
BRANCH   5   6
HETATM    6  C           1     -19.468  -9.496  -5.109  0.00  0.00     0.197 C 
HETATM    7  O           1     -18.349  -9.296  -4.590  0.00  0.00    -0.646 OA
HETATM    8  O           1     -19.609 -10.402  -5.960  0.00  0.00    -0.646 OA
ENDBRANCH   5   6
BRANCH   5   9
HETATM    9  C           1     -21.743  -9.535  -4.133  0.00  0.00     0.077 C 
BRANCH   9  10
HETATM   10  C           1     -21.377  -9.937  -2.738  0.00  0.00    -0.021 A 
HETATM   11  C           1     -21.582  -9.164  -1.562  0.00  0.00     0.005 A 
HETATM   12  C           1     -21.098  -9.913  -0.488  0.00  0.00     0.132 A 
HETATM   13  C           1     -22.137  -7.895  -1.307  0.00  0.00     0.014 A 
HETATM   14  N           1     -20.617 -11.095  -1.005  0.00  0.00    -0.077 N 
HETATM   15  C           1     -21.139  -9.452   0.833  0.00  0.00     0.037 A 
HETATM   16  C           1     -20.781 -11.120  -2.365  0.00  0.00     0.195 A 
HETATM   17  H           1     -20.187 -11.866  -0.437  0.00  0.00     0.271 HD
HETATM   18  C           1     -21.694  -8.190   1.061  0.00  0.00     0.002 A 
HETATM   19  C           1     -22.186  -7.420   0.008  0.00  0.00     0.001 A 
ENDBRANCH   9  10
ENDBRANCH   5   9
ENDBRANCH   2   5
BRANCH   4  20
HETATM   20  C           1     -21.228  -5.462  -5.674  0.00  0.00     0.274 C 
BRANCH  20  21
HETATM   21  C           1     -22.252  -4.913  -6.659  0.00  0.00     0.043 C 
BRANCH  21  22
HETATM   22  C           1     -21.648  -3.738  -7.419  0.00  0.00     0.006 C 
BRANCH  22  23
HETATM   23  C           1     -22.049  -3.823  -8.885  0.00  0.00     0.420 C 
BRANCH  23  24
HETATM   24  C           1     -23.458  -4.390  -8.995  0.00  0.00     0.231 C 
BRANCH  24  25
HETATM   25  N           1     -24.450  -3.266  -9.028  0.00  0.00    -0.079 N 
HETATM   26  H           1     -24.887  -3.160  -8.085  0.00  0.00     0.274 HD
HETATM   27  H           1     -23.964  -2.378  -9.288  0.00  0.00     0.274 HD
HETATM   28  H           1     -25.191  -3.477  -9.734  0.00  0.00     0.274 HD
ENDBRANCH  24  25
ENDBRANCH  23  24
ENDBRANCH  22  23
ENDBRANCH  21  22
ENDBRANCH  20  21
BRANCH  20  29
HETATM   29  N           1     -20.141  -4.449  -5.467  0.00  0.00    -0.067 N 
HETATM   30  H           1     -19.224  -4.937  -5.361  0.00  0.00     0.275 HD
HETATM   31  H           1     -20.101  -3.809  -6.293  0.00  0.00     0.275 HD
HETATM   32  H           1     -20.343  -3.894  -4.605  0.00  0.00     0.275 HD
ENDBRANCH  20  29
ENDBRANCH   4  20
TORSDOF 11
ENDMDL
MODEL 5
REMARK VINA RESULT:      -7.2     13.755     15.237
REMARK  11 active torsions:
REMARK  status: ('A' for Active; 'I' for Inactive)
REMARK    1  A    between atoms: C_2  and  C_17 
REMARK    2  A    between atoms: C_2  and  C_14 
REMARK    3  A    between atoms: C_7  and  C_18 
REMARK    4  A    between atoms: C_7  and  C_17 
REMARK    5  A    between atoms: N_8  and  C_30 
REMARK       I    between atoms: N_8  and  C_19 
REMARK    6  A    between atoms: N_12  and  C_14 
REMARK    7  A    between atoms: N_13  and  C_18 
REMARK    8  A    between atoms: C_16  and  C_30 
REMARK    9  A    between atoms: C_18  and  C_19 
REMARK   10  A    between atoms: C_26  and  C_27 
REMARK   11  A    between atoms: C_27  and  C_30 
ROOT
HETATM    1  H           1     -34.305  -5.154 -16.095  0.00  0.00     0.163 HD
HETATM    2  N           1     -33.664  -4.545 -15.605  0.00  0.00    -0.344 N 
HETATM    3  O           1     -34.584  -2.904 -14.403  0.00  0.00    -0.271 OA
HETATM    4  C           1     -34.032  -3.977 -14.415  0.00  0.00     0.249 C 
ENDROOT
BRANCH   2   5
HETATM    5  C           1     -32.353  -4.272 -16.163  0.00  0.00     0.190 C 
BRANCH   5   6
HETATM    6  C           1     -32.485  -3.283 -17.294  0.00  0.00     0.197 C 
HETATM    7  O           1     -33.592  -2.757 -17.538  0.00  0.00    -0.646 OA
HETATM    8  O           1     -31.487  -2.989 -17.988  0.00  0.00    -0.646 OA
ENDBRANCH   5   6
BRANCH   5   9
HETATM    9  C           1     -31.746  -5.567 -16.689  0.00  0.00     0.077 C 
BRANCH   9  10
HETATM   10  C           1     -30.298  -5.628 -16.314  0.00  0.00    -0.021 A 
HETATM   11  C           1     -29.210  -5.840 -17.204  0.00  0.00     0.005 A 
HETATM   12  C           1     -28.043  -5.824 -16.439  0.00  0.00     0.132 A 
HETATM   13  C           1     -29.105  -6.042 -18.594  0.00  0.00     0.014 A 
HETATM   14  N           1     -28.421  -5.611 -15.132  0.00  0.00    -0.077 N 
HETATM   15  C           1     -26.772  -6.003 -16.996  0.00  0.00     0.037 A 
HETATM   16  C           1     -29.782  -5.492 -15.045  0.00  0.00     0.195 A 
HETATM   17  H           1     -27.759  -5.550 -14.319  0.00  0.00     0.271 HD
HETATM   18  C           1     -26.694  -6.203 -18.377  0.00  0.00     0.002 A 
HETATM   19  C           1     -27.842  -6.223 -19.168  0.00  0.00     0.001 A 
ENDBRANCH   9  10
ENDBRANCH   5   9
ENDBRANCH   2   5
BRANCH   4  20
HETATM   20  C           1     -33.748  -4.695 -13.117  0.00  0.00     0.274 C 
BRANCH  20  21
HETATM   21  C           1     -34.602  -4.094 -12.008  0.00  0.00     0.043 C 
BRANCH  21  22
HETATM   22  C           1     -33.721  -3.762 -10.811  0.00  0.00     0.006 C 
BRANCH  22  23
HETATM   23  C           1     -33.797  -2.269 -10.524  0.00  0.00     0.420 C 
BRANCH  23  24
HETATM   24  C           1     -35.063  -1.695 -11.144  0.00  0.00     0.231 C 
BRANCH  24  25
HETATM   25  N           1     -34.702  -0.596 -12.098  0.00  0.00    -0.079 N 
HETATM   26  H           1     -35.409  -0.556 -12.867  0.00  0.00     0.274 HD
HETATM   27  H           1     -34.687   0.317 -11.590  0.00  0.00     0.274 HD
HETATM   28  H           1     -33.756  -0.784 -12.502  0.00  0.00     0.274 HD
ENDBRANCH  24  25
ENDBRANCH  23  24
ENDBRANCH  22  23
ENDBRANCH  21  22
ENDBRANCH  20  21
BRANCH  20  29
HETATM   29  N           1     -32.297  -4.541 -12.769  0.00  0.00    -0.067 N 
HETATM   30  H           1     -32.111  -4.988 -11.843  0.00  0.00     0.275 HD
HETATM   31  H           1     -31.713  -5.003 -13.502  0.00  0.00     0.275 HD
HETATM   32  H           1     -32.057  -3.525 -12.719  0.00  0.00     0.275 HD
ENDBRANCH  20  29
ENDBRANCH   4  20
TORSDOF 11
ENDMDL
MODEL 6
REMARK VINA RESULT:      -7.1     13.558     14.888
REMARK  11 active torsions:
REMARK  status: ('A' for Active; 'I' for Inactive)
REMARK    1  A    between atoms: C_2  and  C_17 
REMARK    2  A    between atoms: C_2  and  C_14 
REMARK    3  A    between atoms: C_7  and  C_18 
REMARK    4  A    between atoms: C_7  and  C_17 
REMARK    5  A    between atoms: N_8  and  C_30 
REMARK       I    between atoms: N_8  and  C_19 
REMARK    6  A    between atoms: N_12  and  C_14 
REMARK    7  A    between atoms: N_13  and  C_18 
REMARK    8  A    between atoms: C_16  and  C_30 
REMARK    9  A    between atoms: C_18  and  C_19 
REMARK   10  A    between atoms: C_26  and  C_27 
REMARK   11  A    between atoms: C_27  and  C_30 
ROOT
HETATM    1  H           1     -34.205  -5.274 -15.948  0.00  0.00     0.163 HD
HETATM    2  N           1     -33.600  -4.557 -15.571  0.00  0.00    -0.344 N 
HETATM    3  O           1     -34.614  -2.832 -14.581  0.00  0.00    -0.271 OA
HETATM    4  C           1     -33.982  -3.854 -14.460  0.00  0.00     0.249 C 
ENDROOT
BRANCH   2   5
HETATM    5  C           1     -32.327  -4.274 -16.205  0.00  0.00     0.190 C 
BRANCH   5   6
HETATM    6  C           1     -32.540  -3.318 -17.353  0.00  0.00     0.197 C 
HETATM    7  O           1     -31.593  -3.044 -18.121  0.00  0.00    -0.646 OA
HETATM    8  O           1     -33.663  -2.801 -17.536  0.00  0.00    -0.646 OA
ENDBRANCH   5   6
BRANCH   5   9
HETATM    9  C           1     -31.721  -5.570 -16.728  0.00  0.00     0.077 C 
BRANCH   9  10
HETATM   10  C           1     -30.277  -5.640 -16.340  0.00  0.00    -0.021 A 
HETATM   11  C           1     -29.180  -5.843 -17.222  0.00  0.00     0.005 A 
HETATM   12  C           1     -28.021  -5.838 -16.445  0.00  0.00     0.132 A 
HETATM   13  C           1     -29.063  -6.028 -18.613  0.00  0.00     0.014 A 
HETATM   14  N           1     -28.411  -5.641 -15.139  0.00  0.00    -0.077 N 
HETATM   15  C           1     -26.745  -6.014 -16.992  0.00  0.00     0.037 A 
HETATM   16  C           1     -29.774  -5.520 -15.064  0.00  0.00     0.195 A 
HETATM   17  H           1     -27.757  -5.592 -14.319  0.00  0.00     0.271 HD
HETATM   18  C           1     -26.653  -6.197 -18.375  0.00  0.00     0.002 A 
HETATM   19  C           1     -27.794  -6.204 -19.176  0.00  0.00     0.001 A 
ENDBRANCH   9  10
ENDBRANCH   5   9
ENDBRANCH   2   5
BRANCH   4  20
HETATM   20  C           1     -33.615  -4.357 -13.085  0.00  0.00     0.274 C 
BRANCH  20  21
HETATM   21  C           1     -34.802  -5.098 -12.482  0.00  0.00     0.043 C 
BRANCH  21  22
HETATM   22  C           1     -34.637  -5.180 -10.971  0.00  0.00     0.006 C 
BRANCH  22  23
HETATM   23  C           1     -33.918  -6.472 -10.607  0.00  0.00     0.420 C 
BRANCH  23  24
HETATM   24  C           1     -34.918  -7.467 -10.036  0.00  0.00     0.231 C 
BRANCH  24  25
HETATM   25  N           1     -34.187  -8.664  -9.505  0.00  0.00    -0.079 N 
HETATM   26  H           1     -33.708  -8.411  -8.612  0.00  0.00     0.274 HD
HETATM   27  H           1     -34.866  -9.438  -9.329  0.00  0.00     0.274 HD
HETATM   28  H           1     -33.478  -8.977 -10.205  0.00  0.00     0.274 HD
ENDBRANCH  24  25
ENDBRANCH  23  24
ENDBRANCH  22  23
ENDBRANCH  21  22
ENDBRANCH  20  21
BRANCH  20  29
HETATM   29  N           1     -33.256  -3.194 -12.207  0.00  0.00    -0.067 N 
HETATM   30  H           1     -33.593  -2.308 -12.646  0.00  0.00     0.275 HD
HETATM   31  H           1     -33.708  -3.313 -11.272  0.00  0.00     0.275 HD
HETATM   32  H           1     -32.219  -3.153 -12.091  0.00  0.00     0.275 HD
ENDBRANCH  20  29
ENDBRANCH   4  20
TORSDOF 11
ENDMDL
MODEL 7
REMARK VINA RESULT:      -6.9      2.112      8.463
REMARK  11 active torsions:
REMARK  status: ('A' for Active; 'I' for Inactive)
REMARK    1  A    between atoms: C_2  and  C_17 
REMARK    2  A    between atoms: C_2  and  C_14 
REMARK    3  A    between atoms: C_7  and  C_18 
REMARK    4  A    between atoms: C_7  and  C_17 
REMARK    5  A    between atoms: N_8  and  C_30 
REMARK       I    between atoms: N_8  and  C_19 
REMARK    6  A    between atoms: N_12  and  C_14 
REMARK    7  A    between atoms: N_13  and  C_18 
REMARK    8  A    between atoms: C_16  and  C_30 
REMARK    9  A    between atoms: C_18  and  C_19 
REMARK   10  A    between atoms: C_26  and  C_27 
REMARK   11  A    between atoms: C_27  and  C_30 
ROOT
HETATM    1  H           1     -20.076  -4.093  -4.484  0.00  0.00     0.163 HD
HETATM    2  N           1     -20.472  -4.760  -5.134  0.00  0.00    -0.344 N 
HETATM    3  O           1     -21.746  -3.914  -6.760  0.00  0.00    -0.271 OA
HETATM    4  C           1     -20.689  -4.400  -6.437  0.00  0.00     0.249 C 
ENDROOT
BRANCH   2   5
HETATM    5  C           1     -20.808  -6.097  -4.686  0.00  0.00     0.190 C 
BRANCH   5   6
HETATM    6  C           1     -21.968  -6.621  -5.496  0.00  0.00     0.197 C 
HETATM    7  O           1     -23.135  -6.277  -5.212  0.00  0.00    -0.646 OA
HETATM    8  O           1     -21.761  -7.399  -6.453  0.00  0.00    -0.646 OA
ENDBRANCH   5   6
BRANCH   5   9
HETATM    9  C           1     -21.194  -6.057  -3.213  0.00  0.00     0.077 C 
BRANCH   9  10
HETATM   10  C           1     -20.849  -7.365  -2.570  0.00  0.00    -0.021 A 
HETATM   11  C           1     -21.322  -7.831  -1.313  0.00  0.00     0.005 A 
HETATM   12  C           1     -20.754  -9.088  -1.101  0.00  0.00     0.132 A 
HETATM   13  C           1     -22.185  -7.304  -0.333  0.00  0.00     0.014 A 
HETATM   14  N           1     -19.964  -9.364  -2.195  0.00  0.00    -0.077 N 
HETATM   15  C           1     -21.005  -9.846   0.049  0.00  0.00     0.037 A 
HETATM   16  C           1     -20.014  -8.328  -3.089  0.00  0.00     0.195 A 
HETATM   17  H           1     -19.405 -10.243  -2.323  0.00  0.00     0.271 HD
HETATM   18  C           1     -21.864  -9.301   1.007  0.00  0.00     0.002 A 
HETATM   19  C           1     -22.447  -8.049   0.822  0.00  0.00     0.001 A 
ENDBRANCH   9  10
ENDBRANCH   5   9
ENDBRANCH   2   5
BRANCH   4  20
HETATM   20  C           1     -19.606  -4.607  -7.468  0.00  0.00     0.274 C 
BRANCH  20  21
HETATM   21  C           1     -19.853  -3.686  -8.655  0.00  0.00     0.043 C 
BRANCH  21  22
HETATM   22  C           1     -20.270  -4.513  -9.864  0.00  0.00     0.006 C 
BRANCH  22  23
HETATM   23  C           1     -21.683  -4.127 -10.280  0.00  0.00     0.420 C 
BRANCH  23  24
HETATM   24  C           1     -21.866  -4.395 -11.767  0.00  0.00     0.231 C 
BRANCH  24  25
HETATM   25  N           1     -23.234  -4.960 -12.011  0.00  0.00    -0.079 N 
HETATM   26  H           1     -23.750  -5.024 -11.104  0.00  0.00     0.274 HD
HETATM   27  H           1     -23.758  -4.338 -12.666  0.00  0.00     0.274 HD
HETATM   28  H           1     -23.147  -5.913 -12.431  0.00  0.00     0.274 HD
ENDBRANCH  24  25
ENDBRANCH  23  24
ENDBRANCH  22  23
ENDBRANCH  21  22
ENDBRANCH  20  21
BRANCH  20  29
HETATM   29  N           1     -19.626  -6.034  -7.931  0.00  0.00    -0.067 N 
HETATM   30  H           1     -18.710  -6.269  -8.376  0.00  0.00     0.275 HD
HETATM   31  H           1     -19.785  -6.663  -7.112  0.00  0.00     0.275 HD
HETATM   32  H           1     -20.395  -6.164  -8.627  0.00  0.00     0.275 HD
ENDBRANCH  20  29
ENDBRANCH   4  20
TORSDOF 11
ENDMDL
MODEL 8
REMARK VINA RESULT:      -6.9      3.425      7.219
REMARK  11 active torsions:
REMARK  status: ('A' for Active; 'I' for Inactive)
REMARK    1  A    between atoms: C_2  and  C_17 
REMARK    2  A    between atoms: C_2  and  C_14 
REMARK    3  A    between atoms: C_7  and  C_18 
REMARK    4  A    between atoms: C_7  and  C_17 
REMARK    5  A    between atoms: N_8  and  C_30 
REMARK       I    between atoms: N_8  and  C_19 
REMARK    6  A    between atoms: N_12  and  C_14 
REMARK    7  A    between atoms: N_13  and  C_18 
REMARK    8  A    between atoms: C_16  and  C_30 
REMARK    9  A    between atoms: C_18  and  C_19 
REMARK   10  A    between atoms: C_26  and  C_27 
REMARK   11  A    between atoms: C_27  and  C_30 
ROOT
HETATM    1  H           1     -21.295  -9.285  -6.100  0.00  0.00     0.163 HD
HETATM    2  N           1     -20.569  -8.854  -5.544  0.00  0.00    -0.344 N 
HETATM    3  O           1     -19.713  -6.953  -6.342  0.00  0.00    -0.271 OA
HETATM    4  C           1     -20.431  -7.492  -5.535  0.00  0.00     0.249 C 
ENDROOT
BRANCH   2   5
HETATM    5  C           1     -19.674  -9.677  -4.755  0.00  0.00     0.190 C 
BRANCH   5   6
HETATM    6  C           1     -18.454 -10.021  -5.574  0.00  0.00     0.197 C 
HETATM    7  O           1     -18.582 -10.618  -6.665  0.00  0.00    -0.646 OA
HETATM    8  O           1     -17.316  -9.710  -5.162  0.00  0.00    -0.646 OA
ENDBRANCH   5   6
BRANCH   5   9
HETATM    9  C           1     -20.390 -10.959  -4.347  0.00  0.00     0.077 C 
BRANCH   9  10
HETATM   10  C           1     -20.450 -11.045  -2.853  0.00  0.00    -0.021 A 
HETATM   11  C           1     -21.629 -11.156  -2.067  0.00  0.00     0.005 A 
HETATM   12  C           1     -21.229 -11.207  -0.731  0.00  0.00     0.132 A 
HETATM   13  C           1     -23.004 -11.222  -2.365  0.00  0.00     0.014 A 
HETATM   14  N           1     -19.854 -11.126  -0.718  0.00  0.00    -0.077 N 
HETATM   15  C           1     -22.139 -11.318   0.327  0.00  0.00     0.037 A 
HETATM   16  C           1     -19.373 -11.028  -1.997  0.00  0.00     0.195 A 
HETATM   17  H           1     -19.261 -11.138   0.148  0.00  0.00     0.271 HD
HETATM   18  C           1     -23.498 -11.380   0.006  0.00  0.00     0.002 A 
HETATM   19  C           1     -23.928 -11.333  -1.320  0.00  0.00     0.001 A 
ENDBRANCH   9  10
ENDBRANCH   5   9
ENDBRANCH   2   5
BRANCH   4  20
HETATM   20  C           1     -21.178  -6.664  -4.518  0.00  0.00     0.274 C 
BRANCH  20  21
HETATM   21  C           1     -21.827  -7.584  -3.493  0.00  0.00     0.043 C 
BRANCH  21  22
HETATM   22  C           1     -21.197  -7.349  -2.126  0.00  0.00     0.006 C 
BRANCH  22  23
HETATM   23  C           1     -22.265  -6.878  -1.149  0.00  0.00     0.420 C 
BRANCH  23  24
HETATM   24  C           1     -22.181  -7.700   0.130  0.00  0.00     0.231 C 
BRANCH  24  25
HETATM   25  N           1     -23.559  -7.908   0.685  0.00  0.00    -0.079 N 
HETATM   26  H           1     -23.497  -8.084   1.713  0.00  0.00     0.274 HD
HETATM   27  H           1     -24.138  -7.056   0.511  0.00  0.00     0.274 HD
HETATM   28  H           1     -24.002  -8.731   0.216  0.00  0.00     0.274 HD
ENDBRANCH  24  25
ENDBRANCH  23  24
ENDBRANCH  22  23
ENDBRANCH  21  22
ENDBRANCH  20  21
BRANCH  20  29
HETATM   29  N           1     -22.240  -5.862  -5.211  0.00  0.00    -0.067 N 
HETATM   30  H           1     -22.207  -4.873  -4.873  0.00  0.00     0.275 HD
HETATM   31  H           1     -22.073  -5.882  -6.243  0.00  0.00     0.275 HD
HETATM   32  H           1     -23.178  -6.270  -5.001  0.00  0.00     0.275 HD
ENDBRANCH  20  29
ENDBRANCH   4  20
TORSDOF 11
ENDMDL
MODEL 9
REMARK VINA RESULT:      -6.8      2.203      7.931
REMARK  11 active torsions:
REMARK  status: ('A' for Active; 'I' for Inactive)
REMARK    1  A    between atoms: C_2  and  C_17 
REMARK    2  A    between atoms: C_2  and  C_14 
REMARK    3  A    between atoms: C_7  and  C_18 
REMARK    4  A    between atoms: C_7  and  C_17 
REMARK    5  A    between atoms: N_8  and  C_30 
REMARK       I    between atoms: N_8  and  C_19 
REMARK    6  A    between atoms: N_12  and  C_14 
REMARK    7  A    between atoms: N_13  and  C_18 
REMARK    8  A    between atoms: C_16  and  C_30 
REMARK    9  A    between atoms: C_18  and  C_19 
REMARK   10  A    between atoms: C_26  and  C_27 
REMARK   11  A    between atoms: C_27  and  C_30 
ROOT
HETATM    1  H           1     -21.347  -3.355  -6.034  0.00  0.00     0.163 HD
HETATM    2  N           1     -21.565  -4.311  -6.278  0.00  0.00    -0.344 N 
HETATM    3  O           1     -23.719  -4.889  -6.170  0.00  0.00    -0.271 OA
HETATM    4  C           1     -22.768  -4.611  -6.860  0.00  0.00     0.249 C 
ENDROOT
BRANCH   2   5
HETATM    5  C           1     -20.606  -5.365  -6.014  0.00  0.00     0.190 C 
BRANCH   5   6
HETATM    6  C           1     -19.598  -5.420  -7.136  0.00  0.00     0.197 C 
HETATM    7  O           1     -19.461  -6.469  -7.801  0.00  0.00    -0.646 OA
HETATM    8  O           1     -18.901  -4.417  -7.399  0.00  0.00    -0.646 OA
ENDBRANCH   5   6
BRANCH   5   9
HETATM    9  C           1     -21.332  -6.701  -5.917  0.00  0.00     0.077 C 
BRANCH   9  10
HETATM   10  C           1     -20.800  -7.476  -4.752  0.00  0.00    -0.021 A 
HETATM   11  C           1     -21.212  -7.342  -3.398  0.00  0.00     0.005 A 
HETATM   12  C           1     -20.463  -8.250  -2.648  0.00  0.00     0.132 A 
HETATM   13  C           1     -22.156  -6.534  -2.735  0.00  0.00     0.014 A 
HETATM   14  N           1     -19.627  -8.905  -3.525  0.00  0.00    -0.077 N 
HETATM   15  C           1     -20.609  -8.388  -1.263  0.00  0.00     0.037 A 
HETATM   16  C           1     -19.823  -8.445  -4.800  0.00  0.00     0.195 A 
HETATM   17  H           1     -18.939  -9.650  -3.254  0.00  0.00     0.271 HD
HETATM   18  C           1     -21.552  -7.575  -0.628  0.00  0.00     0.002 A 
HETATM   19  C           1     -22.316  -6.660  -1.351  0.00  0.00     0.001 A 
ENDBRANCH   9  10
ENDBRANCH   5   9
ENDBRANCH   2   5
BRANCH   4  20
HETATM   20  C           1     -22.905  -4.594  -8.363  0.00  0.00     0.274 C 
BRANCH  20  21
HETATM   21  C           1     -22.087  -3.442  -8.934  0.00  0.00     0.043 C 
BRANCH  21  22
HETATM   22  C           1     -22.464  -3.224 -10.393  0.00  0.00     0.006 C 
BRANCH  22  23
HETATM   23  C           1     -21.869  -4.338 -11.243  0.00  0.00     0.420 C 
BRANCH  23  24
HETATM   24  C           1     -20.370  -4.115 -11.396  0.00  0.00     0.231 C 
BRANCH  24  25
HETATM   25  N           1     -19.629  -5.032 -10.469  0.00  0.00    -0.079 N 
HETATM   26  H           1     -20.246  -5.834 -10.208  0.00  0.00     0.274 HD
HETATM   27  H           1     -18.772  -5.392 -10.945  0.00  0.00     0.274 HD
HETATM   28  H           1     -19.355  -4.508  -9.608  0.00  0.00     0.274 HD
ENDBRANCH  24  25
ENDBRANCH  23  24
ENDBRANCH  22  23
ENDBRANCH  21  22
ENDBRANCH  20  21
BRANCH  20  29
HETATM   29  N           1     -24.347  -4.411  -8.731  0.00  0.00    -0.067 N 
HETATM   30  H           1     -24.415  -3.868  -9.621  0.00  0.00     0.275 HD
HETATM   31  H           1     -24.794  -5.347  -8.860  0.00  0.00     0.275 HD
HETATM   32  H           1     -24.838  -3.892  -7.968  0.00  0.00     0.275 HD
ENDBRANCH  20  29
ENDBRANCH   4  20
TORSDOF 11
ENDMDL
