MODEL 1
REMARK VINA RESULT:      -7.3      0.000      0.000
REMARK  9 active torsions:
REMARK  status: ('A' for Active; 'I' for Inactive)
REMARK    1  A    between atoms: C_2  and  C_3 
REMARK    2  A    between atoms: C_2  and  N_6 
REMARK       I    between atoms: N_6  and  C_7 
REMARK    3  A    between atoms: C_7  and  C_8 
REMARK    4  A    between atoms: C_8  and  C_9 
REMARK    5  A    between atoms: C_8  and  N_21 
REMARK    6  A    between atoms: C_9  and  C_10 
REMARK    7  A    between atoms: C_13  and  O_14 
REMARK    8  A    between atoms: O_14  and  P_15 
REMARK    9  A    between atoms: P_15  and  O_16 
ROOT
HETATM    1  C           1     -33.835  -4.830 -15.455  0.00  0.00     0.278 C 
ENDROOT
BRANCH   1   2
HETATM    2  C           1     -34.268  -3.904 -14.345  0.00  0.00     0.249 C 
HETATM    3  N           1     -34.237  -4.332 -13.045  0.00  0.00    -0.345 N 
HETATM    4  H           1     -33.924  -5.270 -12.828  0.00  0.00     0.163 HD
HETATM    5  O           1     -34.641  -2.784 -14.603  0.00  0.00    -0.271 OA
BRANCH   3   6
HETATM    6  C           1     -34.653  -3.442 -11.978  0.00  0.00     0.181 C 
HETATM    7  C           1     -35.477  -4.220 -10.961  0.00  0.00     0.043 C 
BRANCH   6   8
HETATM    8  C           1     -33.434  -2.865 -11.301  0.00  0.00     0.196 C 
HETATM    9  O           1     -32.313  -3.388 -11.482  0.00  0.00    -0.646 OA
HETATM   10  O           1     -33.545  -1.865 -10.559  0.00  0.00    -0.646 OA
ENDBRANCH   6   8
ENDBRANCH   3   6
ENDBRANCH   1   2
BRANCH   1  11
HETATM   11  C           1     -33.337  -4.009 -16.637  0.00  0.00     0.081 C 
BRANCH  11  12
HETATM   12  C           1     -31.994  -4.512 -17.065  0.00  0.00    -0.056 A 
HETATM   13  C           1     -31.029  -3.619 -17.528  0.00  0.00     0.010 A 
HETATM   14  C           1     -29.776  -4.088 -17.926  0.00  0.00     0.038 A 
HETATM   15  C           1     -29.490  -5.452 -17.859  0.00  0.00     0.081 A 
HETATM   16  C           1     -30.455  -6.346 -17.394  0.00  0.00     0.038 A 
HETATM   17  C           1     -31.707  -5.876 -16.997  0.00  0.00     0.010 A 
BRANCH  15  18
HETATM   18  O           1     -28.274  -5.908 -18.245  0.00  0.00    -0.247 OA
BRANCH  18  19
HETATM   19  P           1     -27.144  -6.108 -17.109  0.00  0.00     0.411 P 
HETATM   20  O           1     -25.823  -6.276 -17.752  0.00  0.00    -0.624 OA
HETATM   21  O           1     -27.116  -4.919 -16.226  0.00  0.00    -0.624 OA
BRANCH  19  22
HETATM   22  O           1     -27.487  -7.420 -16.231  0.00  0.00    -0.300 OA
HETATM   23  H           1     -27.449  -8.137 -16.841  0.00  0.00     0.223 HD
ENDBRANCH  19  22
ENDBRANCH  18  19
ENDBRANCH  15  18
ENDBRANCH  11  12
ENDBRANCH   1  11
BRANCH   1  24
HETATM   24  N           1     -34.999  -5.670 -15.886  0.00  0.00    -0.066 N 
HETATM   25  H           1     -34.756  -6.682 -15.785  0.00  0.00     0.275 HD
HETATM   26  H           1     -35.828  -5.451 -15.288  0.00  0.00     0.275 HD
HETATM   27  H           1     -35.226  -5.466 -16.885  0.00  0.00     0.275 HD
ENDBRANCH   1  24
TORSDOF 9
ENDMDL
MODEL 2
REMARK VINA RESULT:      -7.1     13.390     14.722
REMARK  9 active torsions:
REMARK  status: ('A' for Active; 'I' for Inactive)
REMARK    1  A    between atoms: C_2  and  C_3 
REMARK    2  A    between atoms: C_2  and  N_6 
REMARK       I    between atoms: N_6  and  C_7 
REMARK    3  A    between atoms: C_7  and  C_8 
REMARK    4  A    between atoms: C_8  and  C_9 
REMARK    5  A    between atoms: C_8  and  N_21 
REMARK    6  A    between atoms: C_9  and  C_10 
REMARK    7  A    between atoms: C_13  and  O_14 
REMARK    8  A    between atoms: O_14  and  P_15 
REMARK    9  A    between atoms: P_15  and  O_16 
ROOT
HETATM    1  C           1     -21.430  -6.451  -4.905  0.00  0.00     0.278 C 
ENDROOT
BRANCH   1   2
HETATM    2  C           1     -20.779  -7.810  -4.821  0.00  0.00     0.249 C 
HETATM    3  N           1     -20.364  -8.296  -3.610  0.00  0.00    -0.345 N 
HETATM    4  H           1     -20.493  -7.744  -2.771  0.00  0.00     0.163 HD
HETATM    5  O           1     -20.624  -8.469  -5.821  0.00  0.00    -0.271 OA
BRANCH   3   6
HETATM    6  C           1     -19.738  -9.602  -3.529  0.00  0.00     0.181 C 
HETATM    7  C           1     -18.243  -9.434  -3.289  0.00  0.00     0.043 C 
BRANCH   6   8
HETATM    8  C           1     -20.345 -10.380  -2.388  0.00  0.00     0.196 C 
HETATM    9  O           1     -21.575 -10.603  -2.369  0.00  0.00    -0.646 OA
HETATM   10  O           1     -19.619 -10.801  -1.462  0.00  0.00    -0.646 OA
ENDBRANCH   6   8
ENDBRANCH   3   6
ENDBRANCH   1   2
BRANCH   1  11
HETATM   11  C           1     -20.446  -5.451  -5.496  0.00  0.00     0.081 C 
BRANCH  11  12
HETATM   12  C           1     -20.950  -4.978  -6.824  0.00  0.00    -0.056 A 
HETATM   13  C           1     -22.235  -4.447  -6.933  0.00  0.00     0.010 A 
HETATM   14  C           1     -22.705  -4.006  -8.170  0.00  0.00     0.038 A 
HETATM   15  C           1     -21.889  -4.096  -9.298  0.00  0.00     0.081 A 
HETATM   16  C           1     -20.603  -4.626  -9.189  0.00  0.00     0.038 A 
HETATM   17  C           1     -20.134  -5.067  -7.951  0.00  0.00     0.010 A 
BRANCH  15  18
HETATM   18  O           1     -22.346  -3.667 -10.500  0.00  0.00    -0.247 OA
BRANCH  18  19
HETATM   19  P           1     -23.708  -4.321 -11.070  0.00  0.00     0.411 P 
HETATM   20  O           1     -24.020  -5.550 -10.308  0.00  0.00    -0.624 OA
HETATM   21  O           1     -24.819  -3.353 -10.923  0.00  0.00    -0.624 OA
BRANCH  19  22
HETATM   22  O           1     -23.518  -4.688 -12.631  0.00  0.00    -0.300 OA
HETATM   23  H           1     -22.619  -4.486 -12.821  0.00  0.00     0.223 HD
ENDBRANCH  19  22
ENDBRANCH  18  19
ENDBRANCH  15  18
ENDBRANCH  11  12
ENDBRANCH   1  11
BRANCH   1  24
HETATM   24  N           1     -21.832  -6.004  -3.532  0.00  0.00    -0.066 N 
HETATM   25  H           1     -22.680  -6.534  -3.226  0.00  0.00     0.275 HD
HETATM   26  H           1     -21.050  -6.184  -2.863  0.00  0.00     0.275 HD
HETATM   27  H           1     -22.049  -4.982  -3.547  0.00  0.00     0.275 HD
ENDBRANCH   1  24
TORSDOF 9
ENDMDL
MODEL 3
REMARK VINA RESULT:      -7.0     13.955     15.733
REMARK  9 active torsions:
REMARK  status: ('A' for Active; 'I' for Inactive)
REMARK    1  A    between atoms: C_2  and  C_3 
REMARK    2  A    between atoms: C_2  and  N_6 
REMARK       I    between atoms: N_6  and  C_7 
REMARK    3  A    between atoms: C_7  and  C_8 
REMARK    4  A    between atoms: C_8  and  C_9 
REMARK    5  A    between atoms: C_8  and  N_21 
REMARK    6  A    between atoms: C_9  and  C_10 
REMARK    7  A    between atoms: C_13  and  O_14 
REMARK    8  A    between atoms: O_14  and  P_15 
REMARK    9  A    between atoms: P_15  and  O_16 
ROOT
HETATM    1  C           1     -21.184  -5.596  -6.585  0.00  0.00     0.278 C 
ENDROOT
BRANCH   1   2
HETATM    2  C           1     -21.576  -4.494  -7.538  0.00  0.00     0.249 C 
HETATM    3  N           1     -22.001  -4.802  -8.802  0.00  0.00    -0.345 N 
HETATM    4  H           1     -22.052  -5.769  -9.098  0.00  0.00     0.163 HD
HETATM    5  O           1     -21.516  -3.340  -7.186  0.00  0.00    -0.271 OA
BRANCH   3   6
HETATM    6  C           1     -22.378  -3.743  -9.719  0.00  0.00     0.181 C 
HETATM    7  C           1     -21.427  -3.739 -10.908  0.00  0.00     0.043 C 
BRANCH   6   8
HETATM    8  C           1     -23.787  -3.977 -10.205  0.00  0.00     0.196 C 
HETATM    9  O           1     -24.268  -5.132 -10.196  0.00  0.00    -0.646 OA
HETATM   10  O           1     -24.475  -3.017 -10.616  0.00  0.00    -0.646 OA
ENDBRANCH   6   8
ENDBRANCH   3   6
ENDBRANCH   1   2
BRANCH   1  11
HETATM   11  C           1     -22.355  -5.913  -5.664  0.00  0.00     0.081 C 
BRANCH  11  12
HETATM   12  C           1     -21.880  -6.761  -4.526  0.00  0.00    -0.056 A 
HETATM   13  C           1     -21.541  -8.095  -4.743  0.00  0.00     0.010 A 
HETATM   14  C           1     -21.097  -8.885  -3.682  0.00  0.00     0.038 A 
HETATM   15  C           1     -20.993  -8.338  -2.403  0.00  0.00     0.081 A 
HETATM   16  C           1     -21.331  -7.003  -2.185  0.00  0.00     0.038 A 
HETATM   17  C           1     -21.775  -6.214  -3.247  0.00  0.00     0.010 A 
BRANCH  15  18
HETATM   18  O           1     -20.562  -9.105  -1.372  0.00  0.00    -0.247 OA
BRANCH  18  19
HETATM   19  P           1     -21.603  -9.425  -0.179  0.00  0.00     0.411 P 
HETATM   20  O           1     -22.957  -9.615  -0.745  0.00  0.00    -0.624 OA
HETATM   21  O           1     -21.183 -10.659   0.524  0.00  0.00    -0.624 OA
BRANCH  19  22
HETATM   22  O           1     -21.623  -8.192   0.864  0.00  0.00    -0.300 OA
HETATM   23  H           1     -21.133  -8.496   1.609  0.00  0.00     0.223 HD
ENDBRANCH  19  22
ENDBRANCH  18  19
ENDBRANCH  15  18
ENDBRANCH  11  12
ENDBRANCH   1  11
BRANCH   1  24
HETATM   24  N           1     -20.010  -5.151  -5.764  0.00  0.00    -0.066 N 
HETATM   25  H           1     -19.224  -5.830  -5.883  0.00  0.00     0.275 HD
HETATM   26  H           1     -19.703  -4.204  -6.080  0.00  0.00     0.275 HD
HETATM   27  H           1     -20.285  -5.111  -4.757  0.00  0.00     0.275 HD
ENDBRANCH   1  24
TORSDOF 9
ENDMDL
MODEL 4
REMARK VINA RESULT:      -6.9      1.757      2.512
REMARK  9 active torsions:
REMARK  status: ('A' for Active; 'I' for Inactive)
REMARK    1  A    between atoms: C_2  and  C_3 
REMARK    2  A    between atoms: C_2  and  N_6 
REMARK       I    between atoms: N_6  and  C_7 
REMARK    3  A    between atoms: C_7  and  C_8 
REMARK    4  A    between atoms: C_8  and  C_9 
REMARK    5  A    between atoms: C_8  and  N_21 
REMARK    6  A    between atoms: C_9  and  C_10 
REMARK    7  A    between atoms: C_13  and  O_14 
REMARK    8  A    between atoms: O_14  and  P_15 
REMARK    9  A    between atoms: P_15  and  O_16 
ROOT
HETATM    1  C           1     -32.851  -4.666 -16.921  0.00  0.00     0.278 C 
ENDROOT
BRANCH   1   2
HETATM    2  C           1     -33.705  -4.605 -15.678  0.00  0.00     0.249 C 
HETATM    3  N           1     -33.175  -4.138 -14.506  0.00  0.00    -0.345 N 
HETATM    4  H           1     -32.211  -3.832 -14.472  0.00  0.00     0.163 HD
HETATM    5  O           1     -34.856  -4.970 -15.717  0.00  0.00    -0.271 OA
BRANCH   3   6
HETATM    6  C           1     -33.996  -4.080 -13.311  0.00  0.00     0.181 C 
HETATM    7  C           1     -33.171  -4.515 -12.107  0.00  0.00     0.043 C 
BRANCH   6   8
HETATM    8  C           1     -34.481  -2.667 -13.103  0.00  0.00     0.196 C 
HETATM    9  O           1     -34.328  -2.111 -11.993  0.00  0.00    -0.646 OA
HETATM   10  O           1     -35.037  -2.052 -14.039  0.00  0.00    -0.646 OA
ENDBRANCH   6   8
ENDBRANCH   3   6
ENDBRANCH   1   2
BRANCH   1  11
HETATM   11  C           1     -32.144  -6.013 -16.988  0.00  0.00     0.081 C 
BRANCH  11  12
HETATM   12  C           1     -30.666  -5.808 -16.873  0.00  0.00    -0.056 A 
HETATM   13  C           1     -29.866  -5.843 -18.014  0.00  0.00     0.010 A 
HETATM   14  C           1     -28.488  -5.651 -17.908  0.00  0.00     0.038 A 
HETATM   15  C           1     -27.911  -5.424 -16.658  0.00  0.00     0.081 A 
HETATM   16  C           1     -28.712  -5.388 -15.516  0.00  0.00     0.038 A 
HETATM   17  C           1     -30.089  -5.580 -15.624  0.00  0.00     0.010 A 
BRANCH  15  18
HETATM   18  O           1     -26.573  -5.237 -16.554  0.00  0.00    -0.247 OA
BRANCH  18  19
HETATM   19  P           1     -25.678  -6.461 -15.997  0.00  0.00     0.411 P 
HETATM   20  O           1     -26.566  -7.563 -15.564  0.00  0.00    -0.624 OA
HETATM   21  O           1     -24.779  -6.944 -17.070  0.00  0.00    -0.624 OA
BRANCH  19  22
HETATM   22  O           1     -24.795  -5.957 -14.742  0.00  0.00    -0.300 OA
HETATM   23  H           1     -24.156  -6.635 -14.607  0.00  0.00     0.223 HD
ENDBRANCH  19  22
ENDBRANCH  18  19
ENDBRANCH  15  18
ENDBRANCH  11  12
ENDBRANCH   1  11
BRANCH   1  24
HETATM   24  N           1     -31.831  -3.568 -16.879  0.00  0.00    -0.066 N 
HETATM   25  H           1     -32.314  -2.644 -16.805  0.00  0.00     0.275 HD
HETATM   26  H           1     -31.207  -3.703 -16.052  0.00  0.00     0.275 HD
HETATM   27  H           1     -31.258  -3.591 -17.754  0.00  0.00     0.275 HD
ENDBRANCH   1  24
TORSDOF 9
ENDMDL
MODEL 5
REMARK VINA RESULT:      -6.7      2.233      3.394
REMARK  9 active torsions:
REMARK  status: ('A' for Active; 'I' for Inactive)
REMARK    1  A    between atoms: C_2  and  C_3 
REMARK    2  A    between atoms: C_2  and  N_6 
REMARK       I    between atoms: N_6  and  C_7 
REMARK    3  A    between atoms: C_7  and  C_8 
REMARK    4  A    between atoms: C_8  and  C_9 
REMARK    5  A    between atoms: C_8  and  N_21 
REMARK    6  A    between atoms: C_9  and  C_10 
REMARK    7  A    between atoms: C_13  and  O_14 
REMARK    8  A    between atoms: O_14  and  P_15 
REMARK    9  A    between atoms: P_15  and  O_16 
ROOT
HETATM    1  C           1     -33.817  -4.065 -15.677  0.00  0.00     0.278 C 
ENDROOT
BRANCH   1   2
HETATM    2  C           1     -34.525  -2.911 -15.012  0.00  0.00     0.249 C 
HETATM    3  N           1     -34.987  -1.865 -15.764  0.00  0.00    -0.345 N 
HETATM    4  H           1     -34.854  -1.865 -16.768  0.00  0.00     0.163 HD
HETATM    5  O           1     -34.685  -2.910 -13.814  0.00  0.00    -0.271 OA
BRANCH   3   6
HETATM    6  C           1     -35.669  -0.756 -15.125  0.00  0.00     0.181 C 
HETATM    7  C           1     -34.712   0.422 -14.997  0.00  0.00     0.043 C 
BRANCH   6   8
HETATM    8  C           1     -36.858  -0.348 -15.959  0.00  0.00     0.196 C 
HETATM    9  O           1     -37.093   0.863 -16.162  0.00  0.00    -0.646 OA
HETATM   10  O           1     -37.609  -1.221 -16.446  0.00  0.00    -0.646 OA
ENDBRANCH   6   8
ENDBRANCH   3   6
ENDBRANCH   1   2
BRANCH   1  11
HETATM   11  C           1     -33.263  -3.614 -17.022  0.00  0.00     0.081 C 
BRANCH  11  12
HETATM   12  C           1     -31.920  -4.236 -17.244  0.00  0.00    -0.056 A 
HETATM   13  C           1     -31.741  -5.603 -17.034  0.00  0.00     0.010 A 
HETATM   14  C           1     -30.489  -6.184 -17.241  0.00  0.00     0.038 A 
HETATM   15  C           1     -29.416  -5.396 -17.658  0.00  0.00     0.081 A 
HETATM   16  C           1     -29.595  -4.028 -17.869  0.00  0.00     0.038 A 
HETATM   17  C           1     -30.847  -3.449 -17.662  0.00  0.00     0.010 A 
BRANCH  15  18
HETATM   18  O           1     -28.200  -5.960 -17.859  0.00  0.00    -0.247 OA
BRANCH  18  19
HETATM   19  P           1     -27.205  -6.085 -16.593  0.00  0.00     0.411 P 
HETATM   20  O           1     -25.806  -5.936 -17.051  0.00  0.00    -0.624 OA
HETATM   21  O           1     -27.520  -5.024 -15.611  0.00  0.00    -0.624 OA
BRANCH  19  22
HETATM   22  O           1     -27.393  -7.532 -15.900  0.00  0.00    -0.300 OA
HETATM   23  H           1     -27.492  -8.134 -16.617  0.00  0.00     0.223 HD
ENDBRANCH  19  22
ENDBRANCH  18  19
ENDBRANCH  15  18
ENDBRANCH  11  12
ENDBRANCH   1  11
BRANCH   1  24
HETATM   24  N           1     -34.784  -5.191 -15.888  0.00  0.00    -0.066 N 
HETATM   25  H           1     -35.227  -5.099 -16.830  0.00  0.00     0.275 HD
HETATM   26  H           1     -34.276  -6.102 -15.829  0.00  0.00     0.275 HD
HETATM   27  H           1     -35.524  -5.157 -15.151  0.00  0.00     0.275 HD
ENDBRANCH   1  24
TORSDOF 9
ENDMDL
MODEL 6
REMARK VINA RESULT:      -6.6      2.767      3.314
REMARK  9 active torsions:
REMARK  status: ('A' for Active; 'I' for Inactive)
REMARK    1  A    between atoms: C_2  and  C_3 
REMARK    2  A    between atoms: C_2  and  N_6 
REMARK       I    between atoms: N_6  and  C_7 
REMARK    3  A    between atoms: C_7  and  C_8 
REMARK    4  A    between atoms: C_8  and  C_9 
REMARK    5  A    between atoms: C_8  and  N_21 
REMARK    6  A    between atoms: C_9  and  C_10 
REMARK    7  A    between atoms: C_13  and  O_14 
REMARK    8  A    between atoms: O_14  and  P_15 
REMARK    9  A    between atoms: P_15  and  O_16 
ROOT
HETATM    1  C           1     -33.467  -4.115 -16.150  0.00  0.00     0.278 C 
ENDROOT
BRANCH   1   2
HETATM    2  C           1     -34.089  -2.804 -16.564  0.00  0.00     0.249 C 
HETATM    3  N           1     -34.931  -2.146 -15.709  0.00  0.00    -0.345 N 
HETATM    4  H           1     -35.136  -2.538 -14.798  0.00  0.00     0.163 HD
HETATM    5  O           1     -33.846  -2.336 -17.651  0.00  0.00    -0.271 OA
BRANCH   3   6
HETATM    6  C           1     -35.530  -0.886 -16.106  0.00  0.00     0.181 C 
HETATM    7  C           1     -36.987  -1.113 -16.483  0.00  0.00     0.043 C 
BRANCH   6   8
HETATM    8  C           1     -35.454   0.091 -14.959  0.00  0.00     0.196 C 
HETATM    9  O           1     -36.484   0.371 -14.308  0.00  0.00    -0.646 OA
HETATM   10  O           1     -34.362   0.621 -14.660  0.00  0.00    -0.646 OA
ENDBRANCH   6   8
ENDBRANCH   3   6
ENDBRANCH   1   2
BRANCH   1  11
HETATM   11  C           1     -32.683  -4.697 -17.319  0.00  0.00     0.081 C 
BRANCH  11  12
HETATM   12  C           1     -31.230  -4.759 -16.964  0.00  0.00    -0.056 A 
HETATM   13  C           1     -30.806  -5.542 -15.891  0.00  0.00     0.010 A 
HETATM   14  C           1     -29.452  -5.600 -15.561  0.00  0.00     0.038 A 
HETATM   15  C           1     -28.522  -4.875 -16.306  0.00  0.00     0.081 A 
HETATM   16  C           1     -28.945  -4.092 -17.380  0.00  0.00     0.038 A 
HETATM   17  C           1     -30.300  -4.035 -17.710  0.00  0.00     0.010 A 
BRANCH  15  18
HETATM   18  O           1     -27.206  -4.931 -15.985  0.00  0.00    -0.247 OA
BRANCH  18  19
HETATM   19  P           1     -26.391  -6.273 -16.362  0.00  0.00     0.411 P 
HETATM   20  O           1     -24.939  -6.011 -16.266  0.00  0.00    -0.624 OA
HETATM   21  O           1     -26.762  -7.356 -15.423  0.00  0.00    -0.624 OA
BRANCH  19  22
HETATM   22  O           1     -26.758  -6.722 -17.870  0.00  0.00    -0.300 OA
HETATM   23  H           1     -27.284  -7.497 -17.772  0.00  0.00     0.223 HD
ENDBRANCH  19  22
ENDBRANCH  18  19
ENDBRANCH  15  18
ENDBRANCH  11  12
ENDBRANCH   1  11
BRANCH   1  24
HETATM   24  N           1     -34.546  -5.074 -15.745  0.00  0.00    -0.066 N 
HETATM   25  H           1     -35.260  -5.138 -16.505  0.00  0.00     0.275 HD
HETATM   26  H           1     -34.129  -6.018 -15.580  0.00  0.00     0.275 HD
HETATM   27  H           1     -35.001  -4.736 -14.868  0.00  0.00     0.275 HD
ENDBRANCH   1  24
TORSDOF 9
ENDMDL
MODEL 7
REMARK VINA RESULT:      -6.5      2.571      3.784
REMARK  9 active torsions:
REMARK  status: ('A' for Active; 'I' for Inactive)
REMARK    1  A    between atoms: C_2  and  C_3 
REMARK    2  A    between atoms: C_2  and  N_6 
REMARK       I    between atoms: N_6  and  C_7 
REMARK    3  A    between atoms: C_7  and  C_8 
REMARK    4  A    between atoms: C_8  and  C_9 
REMARK    5  A    between atoms: C_8  and  N_21 
REMARK    6  A    between atoms: C_9  and  C_10 
REMARK    7  A    between atoms: C_13  and  O_14 
REMARK    8  A    between atoms: O_14  and  P_15 
REMARK    9  A    between atoms: P_15  and  O_16 
ROOT
HETATM    1  C           1     -30.973  -4.036 -17.459  0.00  0.00     0.278 C 
ENDROOT
BRANCH   1   2
HETATM    2  C           1     -32.396  -3.812 -17.011  0.00  0.00     0.249 C 
HETATM    3  N           1     -32.892  -4.500 -15.937  0.00  0.00    -0.345 N 
HETATM    4  H           1     -32.305  -5.161 -15.444  0.00  0.00     0.163 HD
HETATM    5  O           1     -33.098  -3.024 -17.599  0.00  0.00    -0.271 OA
BRANCH   3   6
HETATM    6  C           1     -34.260  -4.285 -15.506  0.00  0.00     0.181 C 
HETATM    7  C           1     -34.998  -5.616 -15.475  0.00  0.00     0.043 C 
BRANCH   6   8
HETATM    8  C           1     -34.262  -3.678 -14.124  0.00  0.00     0.196 C 
HETATM    9  O           1     -33.797  -4.322 -13.159  0.00  0.00    -0.646 OA
HETATM   10  O           1     -34.728  -2.532 -13.945  0.00  0.00    -0.646 OA
ENDBRANCH   6   8
ENDBRANCH   3   6
ENDBRANCH   1   2
BRANCH   1  11
HETATM   11  C           1     -30.284  -5.000 -16.502  0.00  0.00     0.081 C 
BRANCH  11  12
HETATM   12  C           1     -28.975  -5.433 -17.086  0.00  0.00    -0.056 A 
HETATM   13  C           1     -27.860  -5.585 -16.263  0.00  0.00     0.010 A 
HETATM   14  C           1     -26.641  -5.989 -16.807  0.00  0.00     0.038 A 
HETATM   15  C           1     -26.538  -6.243 -18.175  0.00  0.00     0.081 A 
HETATM   16  C           1     -27.654  -6.093 -18.998  0.00  0.00     0.038 A 
HETATM   17  C           1     -28.873  -5.688 -18.453  0.00  0.00     0.010 A 
BRANCH  15  18
HETATM   18  O           1     -25.354  -6.636 -18.703  0.00  0.00    -0.247 OA
BRANCH  18  19
HETATM   19  P           1     -25.331  -7.101 -20.250  0.00  0.00     0.411 P 
HETATM   20  O           1     -25.374  -5.907 -21.123  0.00  0.00    -0.624 OA
HETATM   21  O           1     -24.091  -7.865 -20.518  0.00  0.00    -0.624 OA
BRANCH  19  22
HETATM   22  O           1     -26.614  -8.035 -20.552  0.00  0.00    -0.300 OA
HETATM   23  H           1     -27.359  -7.474 -20.421  0.00  0.00     0.223 HD
ENDBRANCH  19  22
ENDBRANCH  18  19
ENDBRANCH  15  18
ENDBRANCH  11  12
ENDBRANCH   1  11
BRANCH   1  24
HETATM   24  N           1     -30.239  -2.729 -17.466  0.00  0.00    -0.066 N 
HETATM   25  H           1     -30.926  -1.943 -17.529  0.00  0.00     0.275 HD
HETATM   26  H           1     -29.684  -2.636 -16.586  0.00  0.00     0.275 HD
HETATM   27  H           1     -29.596  -2.694 -18.289  0.00  0.00     0.275 HD
ENDBRANCH   1  24
TORSDOF 9
ENDMDL
MODEL 8
REMARK VINA RESULT:      -6.4      1.815      2.367
REMARK  9 active torsions:
REMARK  status: ('A' for Active; 'I' for Inactive)
REMARK    1  A    between atoms: C_2  and  C_3 
REMARK    2  A    between atoms: C_2  and  N_6 
REMARK       I    between atoms: N_6  and  C_7 
REMARK    3  A    between atoms: C_7  and  C_8 
REMARK    4  A    between atoms: C_8  and  C_9 
REMARK    5  A    between atoms: C_8  and  N_21 
REMARK    6  A    between atoms: C_9  and  C_10 
REMARK    7  A    between atoms: C_13  and  O_14 
REMARK    8  A    between atoms: O_14  and  P_15 
REMARK    9  A    between atoms: P_15  and  O_16 
ROOT
HETATM    1  C           1     -32.773  -4.516 -16.617  0.00  0.00     0.278 C 
ENDROOT
BRANCH   1   2
HETATM    2  C           1     -33.740  -4.465 -15.460  0.00  0.00     0.249 C 
HETATM    3  N           1     -33.302  -4.097 -14.217  0.00  0.00    -0.345 N 
HETATM    4  H           1     -32.328  -3.859 -14.073  0.00  0.00     0.163 HD
HETATM    5  O           1     -34.903  -4.749 -15.630  0.00  0.00    -0.271 OA
BRANCH   3   6
HETATM    6  C           1     -34.231  -4.048 -13.104  0.00  0.00     0.181 C 
HETATM    7  C           1     -33.600  -4.709 -11.886  0.00  0.00     0.043 C 
BRANCH   6   8
HETATM    8  C           1     -34.556  -2.610 -12.783  0.00  0.00     0.196 C 
HETATM    9  O           1     -35.032  -1.865 -13.667  0.00  0.00    -0.646 OA
HETATM   10  O           1     -34.347  -2.163 -11.634  0.00  0.00    -0.646 OA
ENDBRANCH   6   8
ENDBRANCH   3   6
ENDBRANCH   1   2
BRANCH   1  11
HETATM   11  C           1     -31.346  -4.545 -16.086  0.00  0.00     0.081 C 
BRANCH  11  12
HETATM   12  C           1     -30.463  -5.253 -17.066  0.00  0.00    -0.056 A 
HETATM   13  C           1     -29.637  -4.520 -17.917  0.00  0.00     0.010 A 
HETATM   14  C           1     -28.813  -5.179 -18.830  0.00  0.00     0.038 A 
HETATM   15  C           1     -28.817  -6.573 -18.890  0.00  0.00     0.081 A 
HETATM   16  C           1     -29.643  -7.307 -18.038  0.00  0.00     0.038 A 
HETATM   17  C           1     -30.466  -6.646 -17.126  0.00  0.00     0.010 A 
BRANCH  15  18
HETATM   18  O           1     -28.017  -7.214 -19.776  0.00  0.00    -0.247 OA
BRANCH  18  19
HETATM   19  P           1     -26.474  -6.749 -19.878  0.00  0.00     0.411 P 
HETATM   20  O           1     -26.359  -5.629 -20.838  0.00  0.00    -0.624 OA
HETATM   21  O           1     -26.002  -6.309 -18.546  0.00  0.00    -0.624 OA
BRANCH  19  22
HETATM   22  O           1     -25.569  -7.987 -20.387  0.00  0.00    -0.300 OA
HETATM   23  H           1     -25.888  -8.733 -19.909  0.00  0.00     0.223 HD
ENDBRANCH  19  22
ENDBRANCH  18  19
ENDBRANCH  15  18
ENDBRANCH  11  12
ENDBRANCH   1  11
BRANCH   1  24
HETATM   24  N           1     -32.961  -3.303 -17.478  0.00  0.00    -0.066 N 
HETATM   25  H           1     -33.200  -3.600 -18.452  0.00  0.00     0.275 HD
HETATM   26  H           1     -33.736  -2.718 -17.093  0.00  0.00     0.275 HD
HETATM   27  H           1     -32.077  -2.745 -17.493  0.00  0.00     0.275 HD
ENDBRANCH   1  24
TORSDOF 9
ENDMDL
MODEL 9
REMARK VINA RESULT:      -6.2     14.710     16.445
REMARK  9 active torsions:
REMARK  status: ('A' for Active; 'I' for Inactive)
REMARK    1  A    between atoms: C_2  and  C_3 
REMARK    2  A    between atoms: C_2  and  N_6 
REMARK       I    between atoms: N_6  and  C_7 
REMARK    3  A    between atoms: C_7  and  C_8 
REMARK    4  A    between atoms: C_8  and  C_9 
REMARK    5  A    between atoms: C_8  and  N_21 
REMARK    6  A    between atoms: C_9  and  C_10 
REMARK    7  A    between atoms: C_13  and  O_14 
REMARK    8  A    between atoms: O_14  and  P_15 
REMARK    9  A    between atoms: P_15  and  O_16 
ROOT
HETATM    1  C           1     -21.485  -5.767  -5.226  0.00  0.00     0.278 C 
ENDROOT
BRANCH   1   2
HETATM    2  C           1     -21.056  -4.937  -6.410  0.00  0.00     0.249 C 
HETATM    3  N           1     -21.890  -4.796  -7.486  0.00  0.00    -0.345 N 
HETATM    4  H           1     -22.795  -5.250  -7.488  0.00  0.00     0.163 HD
HETATM    5  O           1     -19.975  -4.396  -6.410  0.00  0.00    -0.271 OA
BRANCH   3   6
HETATM    6  C           1     -21.477  -3.999  -8.625  0.00  0.00     0.181 C 
HETATM    7  C           1     -20.465  -4.780  -9.452  0.00  0.00     0.043 C 
BRANCH   6   8
HETATM    8  C           1     -22.681  -3.678  -9.477  0.00  0.00     0.196 C 
HETATM    9  O           1     -23.831  -3.792  -9.000  0.00  0.00    -0.646 OA
HETATM   10  O           1     -22.529  -3.299 -10.658  0.00  0.00    -0.646 OA
ENDBRANCH   6   8
ENDBRANCH   3   6
ENDBRANCH   1   2
BRANCH   1  11
HETATM   11  C           1     -20.748  -7.100  -5.245  0.00  0.00     0.081 C 
BRANCH  11  12
HETATM   12  C           1     -21.133  -7.901  -4.041  0.00  0.00    -0.056 A 
HETATM   13  C           1     -21.099  -7.318  -2.775  0.00  0.00     0.010 A 
HETATM   14  C           1     -21.459  -8.064  -1.652  0.00  0.00     0.038 A 
HETATM   15  C           1     -21.853  -9.394  -1.797  0.00  0.00     0.081 A 
HETATM   16  C           1     -21.888  -9.978  -3.064  0.00  0.00     0.038 A 
HETATM   17  C           1     -21.528  -9.231  -4.186  0.00  0.00     0.010 A 
BRANCH  15  18
HETATM   18  O           1     -22.202 -10.119  -0.707  0.00  0.00    -0.247 OA
BRANCH  18  19
HETATM   19  P           1     -21.020 -10.701   0.227  0.00  0.00     0.411 P 
HETATM   20  O           1     -21.442 -11.995   0.807  0.00  0.00    -0.624 OA
HETATM   21  O           1     -19.799 -10.898  -0.587  0.00  0.00    -0.624 OA
BRANCH  19  22
HETATM   22  O           1     -20.708  -9.654   1.418  0.00  0.00    -0.300 OA
HETATM   23  H           1     -20.060  -9.069   1.064  0.00  0.00     0.223 HD
ENDBRANCH  19  22
ENDBRANCH  18  19
ENDBRANCH  15  18
ENDBRANCH  11  12
ENDBRANCH   1  11
BRANCH   1  24
HETATM   24  N           1     -22.962  -6.012  -5.297  0.00  0.00    -0.066 N 
HETATM   25  H           1     -23.141  -6.949  -5.725  0.00  0.00     0.275 HD
HETATM   26  H           1     -23.366  -5.987  -4.333  0.00  0.00     0.275 HD
HETATM   27  H           1     -23.410  -5.271  -5.882  0.00  0.00     0.275 HD
ENDBRANCH   1  24
TORSDOF 9
ENDMDL
