MODEL 1
REMARK VINA RESULT:      -6.2      0.000      0.000
REMARK  5 active torsions:
REMARK  status: ('A' for Active; 'I' for Inactive)
REMARK    1  A    between atoms: C_2  and  C_16 
REMARK       I    between atoms: N_4  and  C_11 
REMARK    2  A    between atoms: C_5  and  C_9 
REMARK    3  A    between atoms: C_11  and  C_15 
REMARK    4  A    between atoms: N_14  and  C_15 
REMARK    5  A    between atoms: C_15  and  C_16 
ROOT
HETATM    1  N           1     -21.643  -4.523  -9.239  0.00  0.00    -0.336 N 
HETATM    2  C           1     -22.506  -3.770 -10.146  0.00  0.00     0.188 C 
HETATM    3  C           1     -21.531  -3.024 -11.038  0.00  0.00     0.038 C 
HETATM    4  C           1     -20.247  -3.844 -10.997  0.00  0.00     0.022 C 
HETATM    5  C           1     -21.818  -4.724  -7.896  0.00  0.00     0.251 C 
HETATM    6  C           1     -20.554  -5.014 -10.078  0.00  0.00     0.127 C 
HETATM    7  O           1     -22.777  -4.250  -7.334  0.00  0.00    -0.271 OA
ENDROOT
BRANCH   5   8
HETATM    8  C           1     -20.812  -5.536  -7.118  0.00  0.00     0.278 C 
BRANCH   8   9
HETATM    9  N           1     -19.667  -4.656  -6.711  0.00  0.00    -0.066 N 
HETATM   10  H           1     -18.994  -4.572  -7.506  0.00  0.00     0.275 HD
HETATM   11  H           1     -20.029  -3.709  -6.459  0.00  0.00     0.275 HD
HETATM   12  H           1     -19.181  -5.076  -5.887  0.00  0.00     0.275 HD
ENDBRANCH   8   9
BRANCH   8  13
HETATM   13  C           1     -21.477  -6.110  -5.874  0.00  0.00     0.021 C 
HETATM   14  C           1     -21.311  -7.624  -5.860  0.00  0.00     0.012 C 
BRANCH  13  15
HETATM   15  C           1     -20.824  -5.517  -4.632  0.00  0.00     0.002 C 
HETATM   16  C           1     -21.424  -6.158  -3.387  0.00  0.00     0.005 C 
ENDBRANCH  13  15
ENDBRANCH   8  13
ENDBRANCH   5   8
BRANCH   2  17
HETATM   17  C           1     -23.373  -4.700 -10.958  0.00  0.00     0.196 C 
HETATM   18  O           1     -23.388  -4.611 -12.205  0.00  0.00    -0.646 OA
HETATM   19  O           1     -24.076  -5.561 -10.385  0.00  0.00    -0.646 OA
ENDBRANCH   2  17
TORSDOF 5
ENDMDL
MODEL 2
REMARK VINA RESULT:      -5.9     12.672     14.689
REMARK  5 active torsions:
REMARK  status: ('A' for Active; 'I' for Inactive)
REMARK    1  A    between atoms: C_2  and  C_16 
REMARK       I    between atoms: N_4  and  C_11 
REMARK    2  A    between atoms: C_5  and  C_9 
REMARK    3  A    between atoms: C_11  and  C_15 
REMARK    4  A    between atoms: N_14  and  C_15 
REMARK    5  A    between atoms: C_15  and  C_16 
ROOT
HETATM    1  N           1     -35.485  -1.210 -13.133  0.00  0.00    -0.336 N 
HETATM    2  C           1     -36.161  -0.667 -14.308  0.00  0.00     0.188 C 
HETATM    3  C           1     -37.497  -0.189 -13.767  0.00  0.00     0.038 C 
HETATM    4  C           1     -37.255   0.072 -12.285  0.00  0.00     0.022 C 
HETATM    5  C           1     -34.725  -2.347 -13.060  0.00  0.00     0.251 C 
HETATM    6  C           1     -35.795  -0.277 -12.055  0.00  0.00     0.127 C 
HETATM    7  O           1     -34.556  -3.025 -14.045  0.00  0.00    -0.271 OA
ENDROOT
BRANCH   5   8
HETATM    8  C           1     -34.099  -2.753 -11.748  0.00  0.00     0.278 C 
BRANCH   8   9
HETATM    9  N           1     -35.077  -2.515 -10.634  0.00  0.00    -0.066 N 
HETATM   10  H           1     -35.033  -3.310  -9.957  0.00  0.00     0.275 HD
HETATM   11  H           1     -34.836  -1.625 -10.144  0.00  0.00     0.275 HD
HETATM   12  H           1     -36.043  -2.447 -11.028  0.00  0.00     0.275 HD
ENDBRANCH   8   9
BRANCH   8  13
HETATM   13  C           1     -33.734  -4.231 -11.795  0.00  0.00     0.021 C 
HETATM   14  C           1     -32.236  -4.378 -12.021  0.00  0.00     0.012 C 
BRANCH  13  15
HETATM   15  C           1     -34.116  -4.888 -10.476  0.00  0.00     0.002 C 
HETATM   16  C           1     -34.303  -6.385 -10.689  0.00  0.00     0.005 C 
ENDBRANCH  13  15
ENDBRANCH   8  13
ENDBRANCH   5   8
BRANCH   2  17
HETATM   17  C           1     -35.378   0.480 -14.897  0.00  0.00     0.196 C 
HETATM   18  O           1     -34.152   0.581 -14.672  0.00  0.00    -0.646 OA
HETATM   19  O           1     -35.955   1.330 -15.609  0.00  0.00    -0.646 OA
ENDBRANCH   2  17
TORSDOF 5
ENDMDL
MODEL 3
REMARK VINA RESULT:      -5.8      1.858      2.602
REMARK  5 active torsions:
REMARK  status: ('A' for Active; 'I' for Inactive)
REMARK    1  A    between atoms: C_2  and  C_16 
REMARK       I    between atoms: N_4  and  C_11 
REMARK    2  A    between atoms: C_5  and  C_9 
REMARK    3  A    between atoms: C_11  and  C_15 
REMARK    4  A    between atoms: N_14  and  C_15 
REMARK    5  A    between atoms: C_15  and  C_16 
ROOT
HETATM    1  N           1     -22.310  -4.480  -9.095  0.00  0.00    -0.336 N 
HETATM    2  C           1     -22.092  -4.631 -10.531  0.00  0.00     0.188 C 
HETATM    3  C           1     -23.496  -4.663 -11.109  0.00  0.00     0.038 C 
HETATM    4  C           1     -24.361  -3.931 -10.090  0.00  0.00     0.022 C 
HETATM    5  C           1     -21.632  -5.098  -8.079  0.00  0.00     0.251 C 
HETATM    6  C           1     -23.408  -3.525  -8.980  0.00  0.00     0.127 C 
HETATM    7  O           1     -20.739  -5.872  -8.331  0.00  0.00    -0.271 OA
ENDROOT
BRANCH   5   8
HETATM    8  C           1     -22.001  -4.814  -6.643  0.00  0.00     0.278 C 
BRANCH   8   9
HETATM    9  N           1     -23.444  -5.163  -6.421  0.00  0.00    -0.066 N 
HETATM   10  H           1     -23.856  -5.522  -7.312  0.00  0.00     0.275 HD
HETATM   11  H           1     -23.515  -5.898  -5.683  0.00  0.00     0.275 HD
HETATM   12  H           1     -23.965  -4.309  -6.116  0.00  0.00     0.275 HD
ENDBRANCH   8   9
BRANCH   8  13
HETATM   13  C           1     -21.129  -5.654  -5.719  0.00  0.00     0.021 C 
HETATM   14  C           1     -20.142  -4.751  -4.992  0.00  0.00     0.012 C 
BRANCH  13  15
HETATM   15  C           1     -22.010  -6.367  -4.702  0.00  0.00     0.002 C 
HETATM   16  C           1     -21.424  -6.187  -3.307  0.00  0.00     0.005 C 
ENDBRANCH  13  15
ENDBRANCH   8  13
ENDBRANCH   5   8
BRANCH   2  17
HETATM   17  C           1     -21.311  -3.464 -11.082  0.00  0.00     0.196 C 
HETATM   18  O           1     -21.894  -2.579 -11.745  0.00  0.00    -0.646 OA
HETATM   19  O           1     -20.081  -3.381 -10.876  0.00  0.00    -0.646 OA
ENDBRANCH   2  17
TORSDOF 5
ENDMDL
MODEL 4
REMARK VINA RESULT:      -5.5      7.465      9.825
REMARK  5 active torsions:
REMARK  status: ('A' for Active; 'I' for Inactive)
REMARK    1  A    between atoms: C_2  and  C_16 
REMARK       I    between atoms: N_4  and  C_11 
REMARK    2  A    between atoms: C_5  and  C_9 
REMARK    3  A    between atoms: C_11  and  C_15 
REMARK    4  A    between atoms: N_14  and  C_15 
REMARK    5  A    between atoms: C_15  and  C_16 
ROOT
HETATM    1  N           1     -21.364  -9.394  -0.973  0.00  0.00    -0.336 N 
HETATM    2  C           1     -21.061  -7.966  -0.948  0.00  0.00     0.188 C 
HETATM    3  C           1     -20.374  -7.719  -2.280  0.00  0.00     0.038 C 
HETATM    4  C           1     -20.871  -8.832  -3.195  0.00  0.00     0.022 C 
HETATM    5  C           1     -21.254 -10.288   0.059  0.00  0.00     0.251 C 
HETATM    6  C           1     -21.810  -9.661  -2.337  0.00  0.00     0.127 C 
HETATM    7  O           1     -20.866  -9.916   1.141  0.00  0.00    -0.271 OA
ENDROOT
BRANCH   5   8
HETATM    8  C           1     -21.617 -11.737  -0.157  0.00  0.00     0.278 C 
BRANCH   8   9
HETATM    9  N           1     -20.504 -12.609   0.346  0.00  0.00    -0.066 N 
HETATM   10  H           1     -20.250 -12.324   1.319  0.00  0.00     0.275 HD
HETATM   11  H           1     -20.815 -13.606   0.344  0.00  0.00     0.275 HD
HETATM   12  H           1     -19.670 -12.503  -0.276  0.00  0.00     0.275 HD
ENDBRANCH   8   9
BRANCH   8  13
HETATM   13  C           1     -22.896 -12.059   0.604  0.00  0.00     0.021 C 
HETATM   14  C           1     -24.091 -11.482  -0.142  0.00  0.00     0.012 C 
BRANCH  13  15
HETATM   15  C           1     -23.050 -13.570   0.718  0.00  0.00     0.002 C 
HETATM   16  C           1     -23.411 -13.938   2.152  0.00  0.00     0.005 C 
ENDBRANCH  13  15
ENDBRANCH   8  13
ENDBRANCH   5   8
BRANCH   2  17
HETATM   17  C           1     -22.325  -7.150  -0.836  0.00  0.00     0.196 C 
HETATM   18  O           1     -23.181  -7.439   0.028  0.00  0.00    -0.646 OA
HETATM   19  O           1     -22.516  -6.184  -1.606  0.00  0.00    -0.646 OA
ENDBRANCH   2  17
TORSDOF 5
ENDMDL
MODEL 5
REMARK VINA RESULT:      -5.5      2.679      6.070
REMARK  5 active torsions:
REMARK  status: ('A' for Active; 'I' for Inactive)
REMARK    1  A    between atoms: C_2  and  C_16 
REMARK       I    between atoms: N_4  and  C_11 
REMARK    2  A    between atoms: C_5  and  C_9 
REMARK    3  A    between atoms: C_11  and  C_15 
REMARK    4  A    between atoms: N_14  and  C_15 
REMARK    5  A    between atoms: C_15  and  C_16 
ROOT
HETATM    1  N           1     -21.146  -6.721  -5.471  0.00  0.00    -0.336 N 
HETATM    2  C           1     -20.496  -7.797  -4.727  0.00  0.00     0.188 C 
HETATM    3  C           1     -20.661  -7.384  -3.275  0.00  0.00     0.038 C 
HETATM    4  C           1     -21.882  -6.471  -3.258  0.00  0.00     0.022 C 
HETATM    5  C           1     -20.722  -6.138  -6.635  0.00  0.00     0.251 C 
HETATM    6  C           1     -22.346  -6.404  -4.703  0.00  0.00     0.127 C 
HETATM    7  O           1     -19.699  -6.509  -7.159  0.00  0.00    -0.271 OA
ENDROOT
BRANCH   5   8
HETATM    8  C           1     -21.533  -5.030  -7.262  0.00  0.00     0.278 C 
BRANCH   8   9
HETATM    9  N           1     -21.001  -3.703  -6.806  0.00  0.00    -0.066 N 
HETATM   10  H           1     -20.937  -3.055  -7.623  0.00  0.00     0.275 HD
HETATM   11  H           1     -21.643  -3.299  -6.089  0.00  0.00     0.275 HD
HETATM   12  H           1     -20.051  -3.833  -6.391  0.00  0.00     0.275 HD
ENDBRANCH   8   9
BRANCH   8  13
HETATM   13  C           1     -21.431  -5.123  -8.779  0.00  0.00     0.021 C 
HETATM   14  C           1     -22.767  -4.744  -9.403  0.00  0.00     0.012 C 
BRANCH  13  15
HETATM   15  C           1     -20.351  -4.170  -9.273  0.00  0.00     0.002 C 
HETATM   16  C           1     -20.526  -3.934 -10.768  0.00  0.00     0.005 C 
ENDBRANCH  13  15
ENDBRANCH   8  13
ENDBRANCH   5   8
BRANCH   2  17
HETATM   17  C           1     -21.175  -9.119  -4.990  0.00  0.00     0.196 C 
HETATM   18  O           1     -21.705  -9.748  -4.048  0.00  0.00    -0.646 OA
HETATM   19  O           1     -21.208  -9.585  -6.150  0.00  0.00    -0.646 OA
ENDBRANCH   2  17
TORSDOF 5
ENDMDL
MODEL 6
REMARK VINA RESULT:      -5.4      8.135     10.913
REMARK  5 active torsions:
REMARK  status: ('A' for Active; 'I' for Inactive)
REMARK    1  A    between atoms: C_2  and  C_16 
REMARK       I    between atoms: N_4  and  C_11 
REMARK    2  A    between atoms: C_5  and  C_9 
REMARK    3  A    between atoms: C_11  and  C_15 
REMARK    4  A    between atoms: N_14  and  C_15 
REMARK    5  A    between atoms: C_15  and  C_16 
ROOT
HETATM    1  N           1     -22.060 -10.972   0.220  0.00  0.00    -0.336 N 
HETATM    2  C           1     -21.469 -12.133   0.880  0.00  0.00     0.188 C 
HETATM    3  C           1     -22.641 -13.082   1.060  0.00  0.00     0.038 C 
HETATM    4  C           1     -23.642 -12.687  -0.019  0.00  0.00     0.022 C 
HETATM    5  C           1     -21.796  -9.651   0.464  0.00  0.00     0.251 C 
HETATM    6  C           1     -22.993 -11.528  -0.755  0.00  0.00     0.127 C 
HETATM    7  O           1     -20.992  -9.342   1.311  0.00  0.00    -0.271 OA
ENDROOT
BRANCH   5   8
HETATM    8  C           1     -22.510  -8.581  -0.325  0.00  0.00     0.278 C 
BRANCH   8   9
HETATM    9  N           1     -23.490  -7.875   0.566  0.00  0.00    -0.066 N 
HETATM   10  H           1     -24.424  -8.340   0.494  0.00  0.00     0.275 HD
HETATM   11  H           1     -23.155  -7.916   1.554  0.00  0.00     0.275 HD
HETATM   12  H           1     -23.575  -6.877   0.267  0.00  0.00     0.275 HD
ENDBRANCH   8   9
BRANCH   8  13
HETATM   13  C           1     -21.495  -7.578  -0.857  0.00  0.00     0.021 C 
HETATM   14  C           1     -20.586  -8.262  -1.869  0.00  0.00     0.012 C 
BRANCH  13  15
HETATM   15  C           1     -22.227  -6.425  -1.530  0.00  0.00     0.002 C 
HETATM   16  C           1     -21.773  -6.311  -2.980  0.00  0.00     0.005 C 
ENDBRANCH  13  15
ENDBRANCH   8  13
ENDBRANCH   5   8
BRANCH   2  17
HETATM   17  C           1     -20.401 -12.757   0.016  0.00  0.00     0.196 C 
HETATM   18  O           1     -20.412 -13.989  -0.200  0.00  0.00    -0.646 OA
HETATM   19  O           1     -19.506 -12.043  -0.485  0.00  0.00    -0.646 OA
ENDBRANCH   2  17
TORSDOF 5
ENDMDL
MODEL 7
REMARK VINA RESULT:      -5.0      6.219      8.624
REMARK  5 active torsions:
REMARK  status: ('A' for Active; 'I' for Inactive)
REMARK    1  A    between atoms: C_2  and  C_16 
REMARK       I    between atoms: N_4  and  C_11 
REMARK    2  A    between atoms: C_5  and  C_9 
REMARK    3  A    between atoms: C_11  and  C_15 
REMARK    4  A    between atoms: N_14  and  C_15 
REMARK    5  A    between atoms: C_15  and  C_16 
ROOT
HETATM    1  N           1     -21.348  -9.077  -2.349  0.00  0.00    -0.336 N 
HETATM    2  C           1     -20.882  -7.716  -2.598  0.00  0.00     0.188 C 
HETATM    3  C           1     -20.382  -7.760  -4.031  0.00  0.00     0.038 C 
HETATM    4  C           1     -21.137  -8.915  -4.679  0.00  0.00     0.022 C 
HETATM    5  C           1     -21.186  -9.818  -1.209  0.00  0.00     0.251 C 
HETATM    6  C           1     -22.024  -9.474  -3.580  0.00  0.00     0.127 C 
HETATM    7  O           1     -20.598  -9.351  -0.263  0.00  0.00    -0.271 OA
ENDROOT
BRANCH   5   8
HETATM    8  C           1     -21.741 -11.219  -1.136  0.00  0.00     0.278 C 
BRANCH   8   9
HETATM    9  N           1     -20.613 -12.207  -1.196  0.00  0.00    -0.066 N 
HETATM   10  H           1     -20.979 -13.135  -1.507  0.00  0.00     0.275 HD
HETATM   11  H           1     -19.893 -11.871  -1.874  0.00  0.00     0.275 HD
HETATM   12  H           1     -20.183 -12.302  -0.249  0.00  0.00     0.275 HD
ENDBRANCH   8   9
BRANCH   8  13
HETATM   13  C           1     -22.500 -11.397   0.173  0.00  0.00     0.021 C 
HETATM   14  C           1     -23.998 -11.330  -0.094  0.00  0.00     0.012 C 
BRANCH  13  15
HETATM   15  C           1     -22.153 -12.750   0.780  0.00  0.00     0.002 C 
HETATM   16  C           1     -23.390 -13.344   1.441  0.00  0.00     0.005 C 
ENDBRANCH  13  15
ENDBRANCH   8  13
ENDBRANCH   5   8
BRANCH   2  17
HETATM   17  C           1     -22.012  -6.726  -2.454  0.00  0.00     0.196 C 
HETATM   18  O           1     -22.578  -6.579  -1.349  0.00  0.00    -0.646 OA
HETATM   19  O           1     -22.383  -6.053  -3.440  0.00  0.00    -0.646 OA
ENDBRANCH   2  17
TORSDOF 5
ENDMDL
MODEL 8
REMARK VINA RESULT:      -5.0      5.285      7.160
REMARK  5 active torsions:
REMARK  status: ('A' for Active; 'I' for Inactive)
REMARK    1  A    between atoms: C_2  and  C_16 
REMARK       I    between atoms: N_4  and  C_11 
REMARK    2  A    between atoms: C_5  and  C_9 
REMARK    3  A    between atoms: C_11  and  C_15 
REMARK    4  A    between atoms: N_14  and  C_15 
REMARK    5  A    between atoms: C_15  and  C_16 
ROOT
HETATM    1  N           1     -21.505  -8.686  -3.458  0.00  0.00    -0.336 N 
HETATM    2  C           1     -21.629  -8.044  -4.764  0.00  0.00     0.188 C 
HETATM    3  C           1     -22.085  -6.635  -4.433  0.00  0.00     0.038 C 
HETATM    4  C           1     -21.607  -6.388  -3.007  0.00  0.00     0.022 C 
HETATM    5  C           1     -21.869  -9.962  -3.118  0.00  0.00     0.251 C 
HETATM    6  C           1     -20.908  -7.672  -2.595  0.00  0.00     0.127 C 
HETATM    7  O           1     -22.356 -10.693  -3.948  0.00  0.00    -0.271 OA
ENDROOT
BRANCH   5   8
HETATM    8  C           1     -21.663 -10.454  -1.707  0.00  0.00     0.278 C 
BRANCH   8   9
HETATM    9  N           1     -20.272 -10.113  -1.257  0.00  0.00    -0.066 N 
HETATM   10  H           1     -19.822 -10.961  -0.845  0.00  0.00     0.275 HD
HETATM   11  H           1     -19.713  -9.784  -2.076  0.00  0.00     0.275 HD
HETATM   12  H           1     -20.316  -9.357  -0.537  0.00  0.00     0.275 HD
ENDBRANCH   8   9
BRANCH   8  13
HETATM   13  C           1     -22.673  -9.785  -0.784  0.00  0.00     0.021 C 
HETATM   14  C           1     -23.729 -10.799  -0.365  0.00  0.00     0.012 C 
BRANCH  13  15
HETATM   15  C           1     -21.956  -9.258   0.453  0.00  0.00     0.002 C 
HETATM   16  C           1     -22.482  -7.870   0.793  0.00  0.00     0.005 C 
ENDBRANCH  13  15
ENDBRANCH   8  13
ENDBRANCH   5   8
BRANCH   2  17
HETATM   17  C           1     -20.301  -8.024  -5.481  0.00  0.00     0.196 C 
HETATM   18  O           1     -19.936  -6.996  -6.092  0.00  0.00    -0.646 OA
HETATM   19  O           1     -19.566  -9.035  -5.465  0.00  0.00    -0.646 OA
ENDBRANCH   2  17
TORSDOF 5
ENDMDL
MODEL 9
REMARK VINA RESULT:      -4.9      5.657      7.920
REMARK  5 active torsions:
REMARK  status: ('A' for Active; 'I' for Inactive)
REMARK    1  A    between atoms: C_2  and  C_16 
REMARK       I    between atoms: N_4  and  C_11 
REMARK    2  A    between atoms: C_5  and  C_9 
REMARK    3  A    between atoms: C_11  and  C_15 
REMARK    4  A    between atoms: N_14  and  C_15 
REMARK    5  A    between atoms: C_15  and  C_16 
ROOT
HETATM    1  N           1     -21.571  -8.650  -3.002  0.00  0.00    -0.336 N 
HETATM    2  C           1     -21.210  -8.786  -4.411  0.00  0.00     0.188 C 
HETATM    3  C           1     -21.773  -7.529  -5.052  0.00  0.00     0.038 C 
HETATM    4  C           1     -21.859  -6.511  -3.920  0.00  0.00     0.022 C 
HETATM    5  C           1     -22.020  -9.630  -2.158  0.00  0.00     0.251 C 
HETATM    6  C           1     -21.347  -7.241  -2.691  0.00  0.00     0.127 C 
HETATM    7  O           1     -22.157 -10.760  -2.563  0.00  0.00    -0.271 OA
ENDROOT
BRANCH   5   8
HETATM    8  C           1     -22.345  -9.298  -0.723  0.00  0.00     0.278 C 
BRANCH   8   9
HETATM    9  N           1     -23.473 -10.169  -0.252  0.00  0.00    -0.066 N 
HETATM   10  H           1     -23.101 -10.906   0.388  0.00  0.00     0.275 HD
HETATM   11  H           1     -24.174  -9.585   0.257  0.00  0.00     0.275 HD
HETATM   12  H           1     -23.929 -10.623  -1.076  0.00  0.00     0.275 HD
ENDBRANCH   8   9
BRANCH   8  13
HETATM   13  C           1     -21.118  -9.545   0.146  0.00  0.00     0.021 C 
HETATM   14  C           1     -21.124  -8.579   1.322  0.00  0.00     0.012 C 
BRANCH  13  15
HETATM   15  C           1     -21.146 -10.977   0.665  0.00  0.00     0.002 C 
HETATM   16  C           1     -19.886 -11.706   0.215  0.00  0.00     0.005 C 
ENDBRANCH  13  15
ENDBRANCH   8  13
ENDBRANCH   5   8
BRANCH   2  17
HETATM   17  C           1     -19.712  -8.849  -4.579  0.00  0.00     0.196 C 
HETATM   18  O           1     -18.993  -9.245  -3.635  0.00  0.00    -0.646 OA
HETATM   19  O           1     -19.189  -8.506  -5.661  0.00  0.00    -0.646 OA
ENDBRANCH   2  17
TORSDOF 5
ENDMDL
