MODEL 1
REMARK VINA RESULT:      -5.3      0.000      0.000
REMARK  6 active torsions:
REMARK  status: ('A' for Active; 'I' for Inactive)
REMARK    1  A    between atoms: N_2  and  C_9 
REMARK       I    between atoms: N_2  and  C_15 
REMARK    2  A    between atoms: C_9  and  C_10 
REMARK    3  A    between atoms: C_13  and  C_14 
REMARK    4  A    between atoms: C_13  and  S_16 
REMARK    5  A    between atoms: C_14  and  C_15 
REMARK    6  A    between atoms: C_14  and  N_17 
ROOT
HETATM    1  O           1     -36.375  -1.487 -12.212  0.00  0.00    -0.271 OA
HETATM    2  N           1     -34.813  -1.260 -13.792  0.00  0.00    -0.345 N 
HETATM    3  H           1     -33.877  -1.476 -14.110  0.00  0.00     0.163 HD
HETATM    4  C           1     -35.258  -1.745 -12.592  0.00  0.00     0.249 C 
ENDROOT
BRANCH   4   5
HETATM    5  C           1     -34.352  -2.603 -11.743  0.00  0.00     0.283 C 
BRANCH   5   6
HETATM    6  C           1     -35.170  -3.704 -11.080  0.00  0.00     0.113 C 
BRANCH   6   7
HETATM    7  S           1     -34.113  -5.149 -10.785  0.00  0.00    -0.180 SA
HETATM    8  H           1     -35.087  -6.067 -10.928  0.00  0.00     0.101 HD
ENDBRANCH   6   7
ENDBRANCH   5   6
BRANCH   5   9
HETATM    9  N           1     -33.707  -1.755 -10.687  0.00  0.00    -0.066 N 
HETATM   10  H           1     -33.766  -2.242  -9.764  0.00  0.00     0.275 HD
HETATM   11  H           1     -32.704  -1.597 -10.933  0.00  0.00     0.275 HD
HETATM   12  H           1     -34.201  -0.836 -10.629  0.00  0.00     0.275 HD
ENDBRANCH   5   9
ENDBRANCH   4   5
BRANCH   2  13
HETATM   13  C           1     -35.684  -0.435 -14.608  0.00  0.00     0.181 C 
HETATM   14  C           1     -35.166   0.997 -14.614  0.00  0.00     0.043 C 
BRANCH  13  15
HETATM   15  C           1     -35.704  -0.970 -16.020  0.00  0.00     0.196 C 
HETATM   16  O           1     -36.336  -0.360 -16.909  0.00  0.00    -0.646 OA
HETATM   17  O           1     -35.089  -2.022 -16.299  0.00  0.00    -0.646 OA
ENDBRANCH  13  15
ENDBRANCH   2  13
TORSDOF 6
ENDMDL
MODEL 2
REMARK VINA RESULT:      -5.0     13.337     14.314
REMARK  6 active torsions:
REMARK  status: ('A' for Active; 'I' for Inactive)
REMARK    1  A    between atoms: N_2  and  C_9 
REMARK       I    between atoms: N_2  and  C_15 
REMARK    2  A    between atoms: C_9  and  C_10 
REMARK    3  A    between atoms: C_13  and  C_14 
REMARK    4  A    between atoms: C_13  and  S_16 
REMARK    5  A    between atoms: C_14  and  C_15 
REMARK    6  A    between atoms: C_14  and  N_17 
ROOT
HETATM    1  O           1     -21.297  -3.527  -7.374  0.00  0.00    -0.271 OA
HETATM    2  N           1     -22.260  -4.822  -8.918  0.00  0.00    -0.345 N 
HETATM    3  H           1     -22.497  -5.756  -9.226  0.00  0.00     0.163 HD
HETATM    4  C           1     -21.580  -4.641  -7.743  0.00  0.00     0.249 C 
ENDROOT
BRANCH   4   5
HETATM    5  C           1     -21.186  -5.835  -6.908  0.00  0.00     0.283 C 
BRANCH   5   6
HETATM    6  C           1     -21.198  -5.451  -5.435  0.00  0.00     0.113 C 
BRANCH   6   7
HETATM    7  S           1     -21.861  -6.827  -4.455  0.00  0.00    -0.180 SA
HETATM    8  H           1     -22.833  -6.117  -3.854  0.00  0.00     0.101 HD
ENDBRANCH   6   7
ENDBRANCH   5   6
BRANCH   5   9
HETATM    9  N           1     -19.808  -6.282  -7.297  0.00  0.00    -0.066 N 
HETATM   10  H           1     -19.850  -6.783  -8.214  0.00  0.00     0.275 HD
HETATM   11  H           1     -19.184  -5.449  -7.385  0.00  0.00     0.275 HD
HETATM   12  H           1     -19.431  -6.926  -6.565  0.00  0.00     0.275 HD
ENDBRANCH   5   9
ENDBRANCH   4   5
BRANCH   2  13
HETATM   13  C           1     -22.639  -3.675  -9.720  0.00  0.00     0.181 C 
HETATM   14  C           1     -21.728  -3.584 -10.937  0.00  0.00     0.043 C 
BRANCH  13  15
HETATM   15  C           1     -24.071  -3.829 -10.172  0.00  0.00     0.196 C 
HETATM   16  O           1     -24.625  -2.912 -10.815  0.00  0.00    -0.646 OA
HETATM   17  O           1     -24.702  -4.875  -9.904  0.00  0.00    -0.646 OA
ENDBRANCH  13  15
ENDBRANCH   2  13
TORSDOF 6
ENDMDL
MODEL 3
REMARK VINA RESULT:      -5.0      2.831      4.625
REMARK  6 active torsions:
REMARK  status: ('A' for Active; 'I' for Inactive)
REMARK    1  A    between atoms: N_2  and  C_9 
REMARK       I    between atoms: N_2  and  C_15 
REMARK    2  A    between atoms: C_9  and  C_10 
REMARK    3  A    between atoms: C_13  and  C_14 
REMARK    4  A    between atoms: C_13  and  S_16 
REMARK    5  A    between atoms: C_14  and  C_15 
REMARK    6  A    between atoms: C_14  and  N_17 
ROOT
HETATM    1  O           1     -35.032  -1.634 -14.261  0.00  0.00    -0.271 OA
HETATM    2  N           1     -34.788  -2.020 -12.075  0.00  0.00    -0.345 N 
HETATM    3  H           1     -34.963  -1.716 -11.126  0.00  0.00     0.163 HD
HETATM    4  C           1     -35.242  -1.272 -13.128  0.00  0.00     0.249 C 
ENDROOT
BRANCH   4   5
HETATM    5  C           1     -36.004   0.006 -12.872  0.00  0.00     0.283 C 
BRANCH   5   6
HETATM    6  C           1     -37.257  -0.304 -12.065  0.00  0.00     0.113 C 
BRANCH   6   7
HETATM    7  S           1     -37.056   0.318 -10.372  0.00  0.00    -0.180 SA
HETATM    8  H           1     -35.712   0.356 -10.394  0.00  0.00     0.101 HD
ENDBRANCH   6   7
ENDBRANCH   5   6
BRANCH   5   9
HETATM    9  N           1     -36.393   0.625 -14.181  0.00  0.00    -0.066 N 
HETATM   10  H           1     -37.146   0.054 -14.627  0.00  0.00     0.275 HD
HETATM   11  H           1     -36.745   1.595 -14.016  0.00  0.00     0.275 HD
HETATM   12  H           1     -35.560   0.659 -14.812  0.00  0.00     0.275 HD
ENDBRANCH   5   9
ENDBRANCH   4   5
BRANCH   2  13
HETATM   13  C           1     -34.055  -3.247 -12.320  0.00  0.00     0.181 C 
HETATM   14  C           1     -32.829  -3.295 -11.418  0.00  0.00     0.043 C 
BRANCH  13  15
HETATM   15  C           1     -34.945  -4.431 -12.024  0.00  0.00     0.196 C 
HETATM   16  O           1     -35.462  -4.555 -10.893  0.00  0.00    -0.646 OA
HETATM   17  O           1     -35.163  -5.286 -12.909  0.00  0.00    -0.646 OA
ENDBRANCH  13  15
ENDBRANCH   2  13
TORSDOF 6
ENDMDL
MODEL 4
REMARK VINA RESULT:      -4.9      1.809      2.237
REMARK  6 active torsions:
REMARK  status: ('A' for Active; 'I' for Inactive)
REMARK    1  A    between atoms: N_2  and  C_9 
REMARK       I    between atoms: N_2  and  C_15 
REMARK    2  A    between atoms: C_9  and  C_10 
REMARK    3  A    between atoms: C_13  and  C_14 
REMARK    4  A    between atoms: C_13  and  S_16 
REMARK    5  A    between atoms: C_14  and  C_15 
REMARK    6  A    between atoms: C_14  and  N_17 
ROOT
HETATM    1  O           1     -34.852  -1.439 -11.127  0.00  0.00    -0.271 OA
HETATM    2  N           1     -35.056  -1.372 -13.349  0.00  0.00    -0.345 N 
HETATM    3  H           1     -34.908  -1.832 -14.238  0.00  0.00     0.163 HD
HETATM    4  C           1     -34.677  -1.989 -12.187  0.00  0.00     0.249 C 
ENDROOT
BRANCH   4   5
HETATM    5  C           1     -34.040  -3.357 -12.233  0.00  0.00     0.283 C 
BRANCH   5   6
HETATM    6  C           1     -34.982  -4.376 -11.606  0.00  0.00     0.113 C 
BRANCH   6   7
HETATM    7  S           1     -34.023  -5.787 -10.987  0.00  0.00    -0.180 SA
HETATM    8  H           1     -34.362  -5.632  -9.695  0.00  0.00     0.101 HD
ENDBRANCH   6   7
ENDBRANCH   5   6
BRANCH   5   9
HETATM    9  N           1     -32.750  -3.332 -11.469  0.00  0.00    -0.066 N 
HETATM   10  H           1     -32.529  -2.349 -11.190  0.00  0.00     0.275 HD
HETATM   11  H           1     -32.842  -3.924 -10.612  0.00  0.00     0.275 HD
HETATM   12  H           1     -31.982  -3.705 -12.071  0.00  0.00     0.275 HD
ENDBRANCH   5   9
ENDBRANCH   4   5
BRANCH   2  13
HETATM   13  C           1     -35.667  -0.057 -13.306  0.00  0.00     0.181 C 
HETATM   14  C           1     -35.242   0.741 -14.532  0.00  0.00     0.043 C 
BRANCH  13  15
HETATM   15  C           1     -37.170  -0.203 -13.297  0.00  0.00     0.196 C 
HETATM   16  O           1     -37.751  -0.745 -14.261  0.00  0.00    -0.646 OA
HETATM   17  O           1     -37.833   0.219 -12.324  0.00  0.00    -0.646 OA
ENDBRANCH  13  15
ENDBRANCH   2  13
TORSDOF 6
ENDMDL
MODEL 5
REMARK VINA RESULT:      -4.4      2.578      4.083
REMARK  6 active torsions:
REMARK  status: ('A' for Active; 'I' for Inactive)
REMARK    1  A    between atoms: N_2  and  C_9 
REMARK       I    between atoms: N_2  and  C_15 
REMARK    2  A    between atoms: C_9  and  C_10 
REMARK    3  A    between atoms: C_13  and  C_14 
REMARK    4  A    between atoms: C_13  and  S_16 
REMARK    5  A    between atoms: C_14  and  C_15 
REMARK    6  A    between atoms: C_14  and  N_17 
ROOT
HETATM    1  O           1     -34.764  -1.111 -13.153  0.00  0.00    -0.271 OA
HETATM    2  N           1     -35.945  -1.392 -11.279  0.00  0.00    -0.345 N 
HETATM    3  H           1     -36.175  -1.983 -10.490  0.00  0.00     0.163 HD
HETATM    4  C           1     -35.037  -1.816 -12.212  0.00  0.00     0.249 C 
ENDROOT
BRANCH   4   5
HETATM    5  C           1     -34.379  -3.166 -12.063  0.00  0.00     0.283 C 
BRANCH   5   6
HETATM    6  C           1     -35.280  -4.083 -11.246  0.00  0.00     0.113 C 
BRANCH   6   7
HETATM    7  S           1     -34.343  -5.548 -10.727  0.00  0.00    -0.180 SA
HETATM    8  H           1     -33.815  -5.813 -11.936  0.00  0.00     0.101 HD
ENDBRANCH   6   7
ENDBRANCH   5   6
BRANCH   5   9
HETATM    9  N           1     -33.062  -3.005 -11.364  0.00  0.00    -0.066 N 
HETATM   10  H           1     -32.291  -2.995 -12.069  0.00  0.00     0.275 HD
HETATM   11  H           1     -33.059  -2.105 -10.833  0.00  0.00     0.275 HD
HETATM   12  H           1     -32.920  -3.801 -10.702  0.00  0.00     0.275 HD
ENDBRANCH   5   9
ENDBRANCH   4   5
BRANCH   2  13
HETATM   13  C           1     -36.579  -0.095 -11.422  0.00  0.00     0.181 C 
HETATM   14  C           1     -37.855  -0.240 -12.240  0.00  0.00     0.043 C 
BRANCH  13  15
HETATM   15  C           1     -36.915   0.453 -10.056  0.00  0.00     0.196 C 
HETATM   16  O           1     -36.206   0.154  -9.071  0.00  0.00    -0.646 OA
HETATM   17  O           1     -37.903   1.205  -9.910  0.00  0.00    -0.646 OA
ENDBRANCH  13  15
ENDBRANCH   2  13
TORSDOF 6
ENDMDL
MODEL 6
REMARK VINA RESULT:      -4.4     25.260     25.969
REMARK  6 active torsions:
REMARK  status: ('A' for Active; 'I' for Inactive)
REMARK    1  A    between atoms: N_2  and  C_9 
REMARK       I    between atoms: N_2  and  C_15 
REMARK    2  A    between atoms: C_9  and  C_10 
REMARK    3  A    between atoms: C_13  and  C_14 
REMARK    4  A    between atoms: C_13  and  S_16 
REMARK    5  A    between atoms: C_14  and  C_15 
REMARK    6  A    between atoms: C_14  and  N_17 
ROOT
HETATM    1  O           1     -12.491   6.386 -19.509  0.00  0.00    -0.271 OA
HETATM    2  N           1     -11.478   4.913 -20.848  0.00  0.00    -0.345 N 
HETATM    3  H           1     -10.612   4.555 -21.229  0.00  0.00     0.163 HD
HETATM    4  C           1     -11.457   5.958 -19.963  0.00  0.00     0.249 C 
ENDROOT
BRANCH   4   5
HETATM    5  C           1     -10.141   6.575 -19.557  0.00  0.00     0.283 C 
BRANCH   5   6
HETATM    6  C           1      -9.363   6.977 -20.803  0.00  0.00     0.113 C 
BRANCH   6   7
HETATM    7  S           1      -9.391   8.783 -20.979  0.00  0.00    -0.180 SA
HETATM    8  H           1      -9.710   9.045 -19.698  0.00  0.00     0.101 HD
ENDBRANCH   6   7
ENDBRANCH   5   6
BRANCH   5   9
HETATM    9  N           1      -9.344   5.578 -18.770  0.00  0.00    -0.066 N 
HETATM   10  H           1      -8.746   6.080 -18.075  0.00  0.00     0.275 HD
HETATM   11  H           1      -9.994   4.933 -18.267  0.00  0.00     0.275 HD
HETATM   12  H           1      -8.738   5.027 -19.418  0.00  0.00     0.275 HD
ENDBRANCH   5   9
ENDBRANCH   4   5
BRANCH   2  13
HETATM   13  C           1     -12.743   4.320 -21.239  0.00  0.00     0.181 C 
HETATM   14  C           1     -13.070   4.722 -22.671  0.00  0.00     0.043 C 
BRANCH  13  15
HETATM   15  C           1     -12.642   2.817 -21.147  0.00  0.00     0.196 C 
HETATM   16  O           1     -13.657   2.111 -21.330  0.00  0.00    -0.646 OA
HETATM   17  O           1     -11.544   2.278 -20.890  0.00  0.00    -0.646 OA
ENDBRANCH  13  15
ENDBRANCH   2  13
TORSDOF 6
ENDMDL
MODEL 7
REMARK VINA RESULT:      -4.4     25.295     26.050
REMARK  6 active torsions:
REMARK  status: ('A' for Active; 'I' for Inactive)
REMARK    1  A    between atoms: N_2  and  C_9 
REMARK       I    between atoms: N_2  and  C_15 
REMARK    2  A    between atoms: C_9  and  C_10 
REMARK    3  A    between atoms: C_13  and  C_14 
REMARK    4  A    between atoms: C_13  and  S_16 
REMARK    5  A    between atoms: C_14  and  C_15 
REMARK    6  A    between atoms: C_14  and  N_17 
ROOT
HETATM    1  O           1     -11.965   5.351 -19.104  0.00  0.00    -0.271 OA
HETATM    2  N           1     -11.557   6.959 -20.598  0.00  0.00    -0.345 N 
HETATM    3  H           1     -11.864   7.465 -21.419  0.00  0.00     0.163 HD
HETATM    4  C           1     -12.332   5.954 -20.083  0.00  0.00     0.249 C 
ENDROOT
BRANCH   4   5
HETATM    5  C           1     -13.643   5.601 -20.740  0.00  0.00     0.283 C 
BRANCH   5   6
HETATM    6  C           1     -14.015   4.165 -20.393  0.00  0.00     0.113 C 
BRANCH   6   7
HETATM    7  S           1     -13.306   3.040 -21.628  0.00  0.00    -0.180 SA
HETATM    8  H           1     -13.787   3.690 -22.703  0.00  0.00     0.101 HD
ENDBRANCH   6   7
ENDBRANCH   5   6
BRANCH   5   9
HETATM    9  N           1     -13.508   5.736 -22.228  0.00  0.00    -0.066 N 
HETATM   10  H           1     -14.203   5.112 -22.699  0.00  0.00     0.275 HD
HETATM   11  H           1     -13.689   6.728 -22.504  0.00  0.00     0.275 HD
HETATM   12  H           1     -12.542   5.463 -22.516  0.00  0.00     0.275 HD
ENDBRANCH   5   9
ENDBRANCH   4   5
BRANCH   2  13
HETATM   13  C           1     -10.296   7.299 -19.967  0.00  0.00     0.181 C 
HETATM   14  C           1      -9.160   7.090 -20.959  0.00  0.00     0.043 C 
BRANCH  13  15
HETATM   15  C           1     -10.326   8.744 -19.531  0.00  0.00     0.196 C 
HETATM   16  O           1     -10.285   9.031 -18.316  0.00  0.00    -0.646 OA
HETATM   17  O           1     -10.391   9.653 -20.386  0.00  0.00    -0.646 OA
ENDBRANCH  13  15
ENDBRANCH   2  13
TORSDOF 6
ENDMDL
MODEL 8
REMARK VINA RESULT:      -4.3      3.188      4.715
REMARK  6 active torsions:
REMARK  status: ('A' for Active; 'I' for Inactive)
REMARK    1  A    between atoms: N_2  and  C_9 
REMARK       I    between atoms: N_2  and  C_15 
REMARK    2  A    between atoms: C_9  and  C_10 
REMARK    3  A    between atoms: C_13  and  C_14 
REMARK    4  A    between atoms: C_13  and  S_16 
REMARK    5  A    between atoms: C_14  and  C_15 
REMARK    6  A    between atoms: C_14  and  N_17 
ROOT
HETATM    1  O           1     -34.505   0.182 -12.383  0.00  0.00    -0.271 OA
HETATM    2  N           1     -35.329  -1.707 -13.241  0.00  0.00    -0.345 N 
HETATM    3  H           1     -35.927  -2.148 -13.929  0.00  0.00     0.163 HD
HETATM    4  C           1     -35.217  -0.343 -13.204  0.00  0.00     0.249 C 
ENDROOT
BRANCH   4   5
HETATM    5  C           1     -35.985   0.503 -14.190  0.00  0.00     0.283 C 
BRANCH   5   6
HETATM    6  C           1     -36.296  -0.321 -15.432  0.00  0.00     0.113 C 
BRANCH   6   7
HETATM    7  S           1     -38.069  -0.211 -15.804  0.00  0.00    -0.180 SA
HETATM    8  H           1     -37.924  -0.036 -17.130  0.00  0.00     0.101 HD
ENDBRANCH   6   7
ENDBRANCH   5   6
BRANCH   5   9
HETATM    9  N           1     -35.160   1.695 -14.574  0.00  0.00    -0.066 N 
HETATM   10  H           1     -34.521   1.438 -15.361  0.00  0.00     0.275 HD
HETATM   11  H           1     -35.790   2.471 -14.877  0.00  0.00     0.275 HD
HETATM   12  H           1     -34.594   2.005 -13.752  0.00  0.00     0.275 HD
ENDBRANCH   5   9
ENDBRANCH   4   5
BRANCH   2  13
HETATM   13  C           1     -34.591  -2.521 -12.294  0.00  0.00     0.181 C 
HETATM   14  C           1     -35.438  -2.742 -11.047  0.00  0.00     0.043 C 
BRANCH  13  15
HETATM   15  C           1     -34.265  -3.854 -12.924  0.00  0.00     0.196 C 
HETATM   16  O           1     -34.564  -4.914 -12.333  0.00  0.00    -0.646 OA
HETATM   17  O           1     -33.696  -3.897 -14.036  0.00  0.00    -0.646 OA
ENDBRANCH  13  15
ENDBRANCH   2  13
TORSDOF 6
ENDMDL
MODEL 9
REMARK VINA RESULT:      -4.3     13.647     14.629
REMARK  6 active torsions:
REMARK  status: ('A' for Active; 'I' for Inactive)
REMARK    1  A    between atoms: N_2  and  C_9 
REMARK       I    between atoms: N_2  and  C_15 
REMARK    2  A    between atoms: C_9  and  C_10 
REMARK    3  A    between atoms: C_13  and  C_14 
REMARK    4  A    between atoms: C_13  and  S_16 
REMARK    5  A    between atoms: C_14  and  C_15 
REMARK    6  A    between atoms: C_14  and  N_17 
ROOT
HETATM    1  O           1     -20.546  -5.376  -8.531  0.00  0.00    -0.271 OA
HETATM    2  N           1     -22.391  -4.302  -9.186  0.00  0.00    -0.345 N 
HETATM    3  H           1     -23.209  -3.766  -8.926  0.00  0.00     0.163 HD
HETATM    4  C           1     -21.522  -4.736  -8.221  0.00  0.00     0.249 C 
ENDROOT
BRANCH   4   5
HETATM    5  C           1     -21.785  -4.415  -6.770  0.00  0.00     0.283 C 
BRANCH   5   6
HETATM    6  C           1     -20.770  -5.143  -5.897  0.00  0.00     0.113 C 
BRANCH   6   7
HETATM    7  S           1     -21.630  -6.339  -4.838  0.00  0.00    -0.180 SA
HETATM    8  H           1     -22.856  -6.125  -5.349  0.00  0.00     0.101 HD
ENDBRANCH   6   7
ENDBRANCH   5   6
BRANCH   5   9
HETATM    9  N           1     -23.170  -4.859  -6.403  0.00  0.00    -0.066 N 
HETATM   10  H           1     -23.565  -4.211  -5.684  0.00  0.00     0.275 HD
HETATM   11  H           1     -23.776  -4.845  -7.254  0.00  0.00     0.275 HD
HETATM   12  H           1     -23.133  -5.829  -6.016  0.00  0.00     0.275 HD
ENDBRANCH   5   9
ENDBRANCH   4   5
BRANCH   2  13
HETATM   13  C           1     -22.139  -4.611 -10.580  0.00  0.00     0.181 C 
HETATM   14  C           1     -23.465  -4.774 -11.311  0.00  0.00     0.043 C 
BRANCH  13  15
HETATM   15  C           1     -21.352  -3.487 -11.209  0.00  0.00     0.196 C 
HETATM   16  O           1     -20.107  -3.563 -11.286  0.00  0.00    -0.646 OA
HETATM   17  O           1     -21.945  -2.480 -11.653  0.00  0.00    -0.646 OA
ENDBRANCH  13  15
ENDBRANCH   2  13
TORSDOF 6
ENDMDL
