MODEL 1
REMARK VINA RESULT:      -7.1      0.000      0.000
REMARK  11 active torsions:
REMARK  status: ('A' for Active; 'I' for Inactive)
REMARK       I    between atoms: C_1  and  N_10 
REMARK    1  A    between atoms: C_1  and  C_2 
REMARK    2  A    between atoms: C_2  and  C_3 
REMARK    3  A    between atoms: C_2  and  N_15 
REMARK    4  A    between atoms: C_3  and  C_23 
REMARK    5  A    between atoms: N_10  and  C_12 
REMARK    6  A    between atoms: C_11  and  C_18 
REMARK    7  A    between atoms: C_11  and  C_12 
REMARK    8  A    between atoms: C_12  and  C_28 
REMARK    9  A    between atoms: C_14  and  O_20 
REMARK   10  A    between atoms: C_16  and  N_25 
REMARK   11  A    between atoms: C_16  and  C_18 
ROOT
HETATM    1  C           1     -21.264  -5.949  -5.530  0.00  0.00     0.249 C 
HETATM    2  O           1     -20.728  -5.220  -4.731  0.00  0.00    -0.271 OA
HETATM    3  N           1     -21.126  -7.307  -5.419  0.00  0.00    -0.345 N 
HETATM    4  H           1     -21.576  -7.918  -6.089  0.00  0.00     0.163 HD
ENDROOT
BRANCH   1   5
HETATM    5  C           1     -22.088  -5.365  -6.652  0.00  0.00     0.278 C 
BRANCH   5   6
HETATM    6  C           1     -21.444  -4.071  -7.134  0.00  0.00     0.081 C 
BRANCH   6   7
HETATM    7  C           1     -21.510  -4.007  -8.628  0.00  0.00    -0.056 A 
HETATM    8  C           1     -22.705  -3.662  -9.260  0.00  0.00     0.010 A 
HETATM    9  C           1     -22.766  -3.603 -10.652  0.00  0.00     0.037 A 
HETATM   10  C           1     -21.632  -3.890 -11.413  0.00  0.00     0.065 A 
HETATM   11  C           1     -20.438  -4.236 -10.781  0.00  0.00     0.037 A 
HETATM   12  C           1     -20.377  -4.295  -9.388  0.00  0.00     0.010 A 
BRANCH  10  13
HETATM   13  O           1     -21.692  -3.834 -12.765  0.00  0.00    -0.361 OA
HETATM   14  H           1     -22.299  -4.529 -13.068  0.00  0.00     0.217 HD
ENDBRANCH  10  13
ENDBRANCH   6   7
ENDBRANCH   5   6
BRANCH   5  15
HETATM   15  N           1     -23.474  -5.077  -6.156  0.00  0.00    -0.066 N 
HETATM   16  H           1     -24.116  -5.847  -6.449  0.00  0.00     0.275 HD
HETATM   17  H           1     -23.464  -5.012  -5.113  0.00  0.00     0.275 HD
HETATM   18  H           1     -23.808  -4.173  -6.559  0.00  0.00     0.275 HD
ENDBRANCH   5  15
ENDBRANCH   1   5
BRANCH   3  19
HETATM   19  C           1     -20.334  -7.869  -4.342  0.00  0.00     0.185 C 
BRANCH  19  20
HETATM   20  C           1     -21.259  -8.395  -3.253  0.00  0.00     0.038 C 
BRANCH  20  21
HETATM   21  C           1     -20.875  -7.774  -1.916  0.00  0.00     0.030 C 
BRANCH  21  22
HETATM   22  C           1     -22.083  -7.064  -1.320  0.00  0.00     0.230 C 
BRANCH  22  23
HETATM   23  N           1     -22.346  -5.798  -2.080  0.00  0.00    -0.079 N 
HETATM   24  H           1     -21.605  -5.668  -2.807  0.00  0.00     0.274 HD
HETATM   25  H           1     -22.333  -4.986  -1.423  0.00  0.00     0.274 HD
HETATM   26  H           1     -23.281  -5.857  -2.543  0.00  0.00     0.274 HD
ENDBRANCH  22  23
ENDBRANCH  21  22
ENDBRANCH  20  21
ENDBRANCH  19  20
BRANCH  19  27
HETATM   27  C           1     -19.492  -9.001  -4.877  0.00  0.00     0.196 C 
HETATM   28  O           1     -18.918  -8.886  -5.981  0.00  0.00    -0.646 OA
HETATM   29  O           1     -19.367 -10.054  -4.213  0.00  0.00    -0.646 OA
ENDBRANCH  19  27
ENDBRANCH   3  19
TORSDOF 11
ENDMDL
MODEL 2
REMARK VINA RESULT:      -7.0      1.292      1.901
REMARK  11 active torsions:
REMARK  status: ('A' for Active; 'I' for Inactive)
REMARK       I    between atoms: C_1  and  N_10 
REMARK    1  A    between atoms: C_1  and  C_2 
REMARK    2  A    between atoms: C_2  and  C_3 
REMARK    3  A    between atoms: C_2  and  N_15 
REMARK    4  A    between atoms: C_3  and  C_23 
REMARK    5  A    between atoms: N_10  and  C_12 
REMARK    6  A    between atoms: C_11  and  C_18 
REMARK    7  A    between atoms: C_11  and  C_12 
REMARK    8  A    between atoms: C_12  and  C_28 
REMARK    9  A    between atoms: C_14  and  O_20 
REMARK   10  A    between atoms: C_16  and  N_25 
REMARK   11  A    between atoms: C_16  and  C_18 
ROOT
HETATM    1  C           1     -21.440  -5.729  -5.452  0.00  0.00     0.249 C 
HETATM    2  O           1     -20.239  -5.620  -5.397  0.00  0.00    -0.271 OA
HETATM    3  N           1     -22.123  -6.307  -4.415  0.00  0.00    -0.345 N 
HETATM    4  H           1     -23.130  -6.398  -4.461  0.00  0.00     0.163 HD
ENDROOT
BRANCH   1   5
HETATM    5  C           1     -22.189  -5.228  -6.662  0.00  0.00     0.278 C 
BRANCH   5   6
HETATM    6  C           1     -21.534  -3.951  -7.172  0.00  0.00     0.081 C 
BRANCH   6   7
HETATM    7  C           1     -21.573  -3.933  -8.669  0.00  0.00    -0.056 A 
HETATM    8  C           1     -20.417  -4.204  -9.401  0.00  0.00     0.010 A 
HETATM    9  C           1     -20.455  -4.187 -10.795  0.00  0.00     0.037 A 
HETATM   10  C           1     -21.649  -3.899 -11.457  0.00  0.00     0.065 A 
HETATM   11  C           1     -22.803  -3.627 -10.725  0.00  0.00     0.037 A 
HETATM   12  C           1     -22.767  -3.644  -9.330  0.00  0.00     0.010 A 
BRANCH  10  13
HETATM   13  O           1     -21.685  -3.882 -12.811  0.00  0.00    -0.361 OA
HETATM   14  H           1     -22.584  -4.122 -13.091  0.00  0.00     0.217 HD
ENDBRANCH  10  13
ENDBRANCH   6   7
ENDBRANCH   5   6
BRANCH   5  15
HETATM   15  N           1     -23.613  -4.942  -6.286  0.00  0.00    -0.066 N 
HETATM   16  H           1     -24.189  -4.840  -7.151  0.00  0.00     0.275 HD
HETATM   17  H           1     -23.986  -5.732  -5.711  0.00  0.00     0.275 HD
HETATM   18  H           1     -23.656  -4.057  -5.733  0.00  0.00     0.275 HD
ENDBRANCH   5  15
ENDBRANCH   1   5
BRANCH   3  19
HETATM   19  C           1     -21.404  -6.789  -3.252  0.00  0.00     0.185 C 
BRANCH  19  20
HETATM   20  C           1     -22.315  -6.735  -2.033  0.00  0.00     0.038 C 
BRANCH  20  21
HETATM   21  C           1     -21.636  -7.431  -0.860  0.00  0.00     0.030 C 
BRANCH  21  22
HETATM   22  C           1     -22.547  -8.526  -0.323  0.00  0.00     0.230 C 
BRANCH  22  23
HETATM   23  N           1     -23.530  -7.932   0.642  0.00  0.00    -0.079 N 
HETATM   24  H           1     -23.440  -8.409   1.568  0.00  0.00     0.274 HD
HETATM   25  H           1     -24.501  -8.062   0.278  0.00  0.00     0.274 HD
HETATM   26  H           1     -23.334  -6.912   0.755  0.00  0.00     0.274 HD
ENDBRANCH  22  23
ENDBRANCH  21  22
ENDBRANCH  20  21
ENDBRANCH  19  20
BRANCH  19  27
HETATM   27  C           1     -20.964  -8.213  -3.489  0.00  0.00     0.196 C 
HETATM   28  O           1     -21.808  -9.086  -3.785  0.00  0.00    -0.646 OA
HETATM   29  O           1     -19.756  -8.518  -3.391  0.00  0.00    -0.646 OA
ENDBRANCH  19  27
ENDBRANCH   3  19
TORSDOF 11
ENDMDL
MODEL 3
REMARK VINA RESULT:      -6.3      1.843      2.204
REMARK  11 active torsions:
REMARK  status: ('A' for Active; 'I' for Inactive)
REMARK       I    between atoms: C_1  and  N_10 
REMARK    1  A    between atoms: C_1  and  C_2 
REMARK    2  A    between atoms: C_2  and  C_3 
REMARK    3  A    between atoms: C_2  and  N_15 
REMARK    4  A    between atoms: C_3  and  C_23 
REMARK    5  A    between atoms: N_10  and  C_12 
REMARK    6  A    between atoms: C_11  and  C_18 
REMARK    7  A    between atoms: C_11  and  C_12 
REMARK    8  A    between atoms: C_12  and  C_28 
REMARK    9  A    between atoms: C_14  and  O_20 
REMARK   10  A    between atoms: C_16  and  N_25 
REMARK   11  A    between atoms: C_16  and  C_18 
ROOT
HETATM    1  C           1     -20.023  -5.084  -6.094  0.00  0.00     0.249 C 
HETATM    2  O           1     -19.937  -4.485  -5.049  0.00  0.00    -0.271 OA
HETATM    3  N           1     -20.253  -6.435  -6.092  0.00  0.00    -0.345 N 
HETATM    4  H           1     -20.326  -6.937  -6.967  0.00  0.00     0.163 HD
ENDROOT
BRANCH   1   5
HETATM    5  C           1     -19.880  -4.346  -7.402  0.00  0.00     0.278 C 
BRANCH   5   6
HETATM    6  C           1     -20.336  -5.245  -8.545  0.00  0.00     0.081 C 
BRANCH   6   7
HETATM    7  C           1     -21.586  -4.687  -9.150  0.00  0.00    -0.056 A 
HETATM    8  C           1     -22.682  -4.389  -8.338  0.00  0.00     0.010 A 
HETATM    9  C           1     -23.847  -3.869  -8.902  0.00  0.00     0.037 A 
HETATM   10  C           1     -23.916  -3.647 -10.278  0.00  0.00     0.065 A 
HETATM   11  C           1     -22.822  -3.945 -11.088  0.00  0.00     0.037 A 
HETATM   12  C           1     -21.656  -4.465 -10.525  0.00  0.00     0.010 A 
BRANCH  10  13
HETATM   13  O           1     -25.048  -3.143 -10.825  0.00  0.00    -0.361 OA
HETATM   14  H           1     -25.170  -3.556 -11.696  0.00  0.00     0.217 HD
ENDBRANCH  10  13
ENDBRANCH   6   7
ENDBRANCH   5   6
BRANCH   5  15
HETATM   15  N           1     -18.442  -3.969  -7.607  0.00  0.00    -0.066 N 
HETATM   16  H           1     -17.887  -4.824  -7.834  0.00  0.00     0.275 HD
HETATM   17  H           1     -18.371  -3.288  -8.397  0.00  0.00     0.275 HD
HETATM   18  H           1     -18.069  -3.532  -6.735  0.00  0.00     0.275 HD
ENDBRANCH   5  15
ENDBRANCH   1   5
BRANCH   3  19
HETATM   19  C           1     -20.390  -7.144  -4.835  0.00  0.00     0.185 C 
BRANCH  19  20
HETATM   20  C           1     -21.851  -7.141  -4.407  0.00  0.00     0.038 C 
BRANCH  20  21
HETATM   21  C           1     -21.985  -6.442  -3.060  0.00  0.00     0.030 C 
BRANCH  21  22
HETATM   22  C           1     -21.722  -7.441  -1.941  0.00  0.00     0.230 C 
BRANCH  22  23
HETATM   23  N           1     -22.380  -6.964  -0.679  0.00  0.00    -0.079 N 
HETATM   24  H           1     -22.645  -7.787  -0.093  0.00  0.00     0.274 HD
HETATM   25  H           1     -23.237  -6.416  -0.917  0.00  0.00     0.274 HD
HETATM   26  H           1     -21.715  -6.357  -0.149  0.00  0.00     0.274 HD
ENDBRANCH  22  23
ENDBRANCH  21  22
ENDBRANCH  20  21
ENDBRANCH  19  20
BRANCH  19  27
HETATM   27  C           1     -19.920  -8.568  -5.009  0.00  0.00     0.196 C 
HETATM   28  O           1     -18.847  -8.940  -4.487  0.00  0.00    -0.646 OA
HETATM   29  O           1     -20.606  -9.375  -5.673  0.00  0.00    -0.646 OA
ENDBRANCH  19  27
ENDBRANCH   3  19
TORSDOF 11
ENDMDL
MODEL 4
REMARK VINA RESULT:      -6.3      1.982      2.648
REMARK  11 active torsions:
REMARK  status: ('A' for Active; 'I' for Inactive)
REMARK       I    between atoms: C_1  and  N_10 
REMARK    1  A    between atoms: C_1  and  C_2 
REMARK    2  A    between atoms: C_2  and  C_3 
REMARK    3  A    between atoms: C_2  and  N_15 
REMARK    4  A    between atoms: C_3  and  C_23 
REMARK    5  A    between atoms: N_10  and  C_12 
REMARK    6  A    between atoms: C_11  and  C_18 
REMARK    7  A    between atoms: C_11  and  C_12 
REMARK    8  A    between atoms: C_12  and  C_28 
REMARK    9  A    between atoms: C_14  and  O_20 
REMARK   10  A    between atoms: C_16  and  N_25 
REMARK   11  A    between atoms: C_16  and  C_18 
ROOT
HETATM    1  C           1     -21.250  -5.952  -5.594  0.00  0.00     0.249 C 
HETATM    2  O           1     -22.443  -5.764  -5.607  0.00  0.00    -0.271 OA
HETATM    3  N           1     -20.712  -6.879  -4.741  0.00  0.00    -0.345 N 
HETATM    4  H           1     -19.712  -7.036  -4.731  0.00  0.00     0.163 HD
ENDROOT
BRANCH   1   5
HETATM    5  C           1     -20.352  -5.167  -6.519  0.00  0.00     0.278 C 
BRANCH   5   6
HETATM    6  C           1     -21.083  -3.919  -6.998  0.00  0.00     0.081 C 
BRANCH   6   7
HETATM    7  C           1     -21.409  -4.060  -8.452  0.00  0.00    -0.056 A 
HETATM    8  C           1     -22.709  -4.377  -8.849  0.00  0.00     0.010 A 
HETATM    9  C           1     -23.012  -4.508 -10.204  0.00  0.00     0.037 A 
HETATM   10  C           1     -22.016  -4.322 -11.163  0.00  0.00     0.065 A 
HETATM   11  C           1     -20.717  -4.006 -10.766  0.00  0.00     0.037 A 
HETATM   12  C           1     -20.413  -3.875  -9.410  0.00  0.00     0.010 A 
BRANCH  10  13
HETATM   13  O           1     -22.310  -4.450 -12.479  0.00  0.00    -0.361 OA
HETATM   14  H           1     -23.046  -5.079 -12.562  0.00  0.00     0.217 HD
ENDBRANCH  10  13
ENDBRANCH   6   7
ENDBRANCH   5   6
BRANCH   5  15
HETATM   15  N           1     -19.988  -6.016  -7.701  0.00  0.00    -0.066 N 
HETATM   16  H           1     -18.962  -5.937  -7.884  0.00  0.00     0.275 HD
HETATM   17  H           1     -20.229  -7.013  -7.501  0.00  0.00     0.275 HD
HETATM   18  H           1     -20.517  -5.690  -8.540  0.00  0.00     0.275 HD
ENDBRANCH   5  15
ENDBRANCH   1   5
BRANCH   3  19
HETATM   19  C           1     -21.574  -7.633  -3.852  0.00  0.00     0.185 C 
BRANCH  19  20
HETATM   20  C           1     -21.033  -9.047  -3.698  0.00  0.00     0.038 C 
BRANCH  20  21
HETATM   21  C           1     -22.189 -10.013  -3.471  0.00  0.00     0.030 C 
BRANCH  21  22
HETATM   22  C           1     -21.879 -10.904  -2.276  0.00  0.00     0.230 C 
BRANCH  22  23
HETATM   23  N           1     -20.676 -10.373  -1.554  0.00  0.00    -0.079 N 
HETATM   24  H           1     -20.592 -10.845  -0.625  0.00  0.00     0.274 HD
HETATM   25  H           1     -20.780  -9.343  -1.411  0.00  0.00     0.274 HD
HETATM   26  H           1     -19.819 -10.562  -2.120  0.00  0.00     0.274 HD
ENDBRANCH  22  23
ENDBRANCH  21  22
ENDBRANCH  20  21
ENDBRANCH  19  20
BRANCH  19  27
HETATM   27  C           1     -21.614  -6.960  -2.502  0.00  0.00     0.196 C 
HETATM   28  O           1     -20.868  -7.359  -1.583  0.00  0.00    -0.646 OA
HETATM   29  O           1     -22.392  -6.001  -2.305  0.00  0.00    -0.646 OA
ENDBRANCH  19  27
ENDBRANCH   3  19
TORSDOF 11
ENDMDL
MODEL 5
REMARK VINA RESULT:      -6.2      2.007      3.294
REMARK  11 active torsions:
REMARK  status: ('A' for Active; 'I' for Inactive)
REMARK       I    between atoms: C_1  and  N_10 
REMARK    1  A    between atoms: C_1  and  C_2 
REMARK    2  A    between atoms: C_2  and  C_3 
REMARK    3  A    between atoms: C_2  and  N_15 
REMARK    4  A    between atoms: C_3  and  C_23 
REMARK    5  A    between atoms: N_10  and  C_12 
REMARK    6  A    between atoms: C_11  and  C_18 
REMARK    7  A    between atoms: C_11  and  C_12 
REMARK    8  A    between atoms: C_12  and  C_28 
REMARK    9  A    between atoms: C_14  and  O_20 
REMARK   10  A    between atoms: C_16  and  N_25 
REMARK   11  A    between atoms: C_16  and  C_18 
ROOT
HETATM    1  C           1     -21.826  -6.160  -5.039  0.00  0.00     0.249 C 
HETATM    2  O           1     -23.026  -6.292  -5.006  0.00  0.00    -0.271 OA
HETATM    3  N           1     -21.031  -6.918  -4.220  0.00  0.00    -0.345 N 
HETATM    4  H           1     -20.026  -6.807  -4.248  0.00  0.00     0.163 HD
ENDROOT
BRANCH   1   5
HETATM    5  C           1     -21.202  -5.161  -5.982  0.00  0.00     0.278 C 
BRANCH   5   6
HETATM    6  C           1     -20.741  -5.875  -7.246  0.00  0.00     0.081 C 
BRANCH   6   7
HETATM    7  C           1     -21.054  -5.028  -8.440  0.00  0.00    -0.056 A 
HETATM    8  C           1     -20.088  -4.829  -9.427  0.00  0.00     0.010 A 
HETATM    9  C           1     -20.381  -4.039 -10.539  0.00  0.00     0.037 A 
HETATM   10  C           1     -21.639  -3.449 -10.664  0.00  0.00     0.065 A 
HETATM   11  C           1     -22.603  -3.647  -9.676  0.00  0.00     0.037 A 
HETATM   12  C           1     -22.311  -4.437  -8.564  0.00  0.00     0.010 A 
BRANCH  10  13
HETATM   13  O           1     -21.922  -2.681 -11.744  0.00  0.00    -0.361 OA
HETATM   14  H           1     -22.663  -3.093 -12.218  0.00  0.00     0.217 HD
ENDBRANCH  10  13
ENDBRANCH   6   7
ENDBRANCH   5   6
BRANCH   5  15
HETATM   15  N           1     -20.024  -4.515  -5.315  0.00  0.00    -0.066 N 
HETATM   16  H           1     -20.061  -3.482  -5.467  0.00  0.00     0.275 HD
HETATM   17  H           1     -20.049  -4.717  -4.290  0.00  0.00     0.275 HD
HETATM   18  H           1     -19.140  -4.895  -5.724  0.00  0.00     0.275 HD
ENDBRANCH   5  15
ENDBRANCH   1   5
BRANCH   3  19
HETATM   19  C           1     -21.631  -7.878  -3.314  0.00  0.00     0.185 C 
BRANCH  19  20
HETATM   20  C           1     -20.926  -9.220  -3.456  0.00  0.00     0.038 C 
BRANCH  20  21
HETATM   21  C           1     -20.494  -9.417  -4.903  0.00  0.00     0.030 C 
BRANCH  21  22
HETATM   22  C           1     -21.093 -10.709  -5.441  0.00  0.00     0.230 C 
BRANCH  22  23
HETATM   23  N           1     -20.207 -11.262  -6.518  0.00  0.00    -0.079 N 
HETATM   24  H           1     -19.500 -11.904  -6.092  0.00  0.00     0.274 HD
HETATM   25  H           1     -19.715 -10.478  -7.003  0.00  0.00     0.274 HD
HETATM   26  H           1     -20.787 -11.790  -7.209  0.00  0.00     0.274 HD
ENDBRANCH  22  23
ENDBRANCH  21  22
ENDBRANCH  20  21
ENDBRANCH  19  20
BRANCH  19  27
HETATM   27  C           1     -21.490  -7.383  -1.895  0.00  0.00     0.196 C 
HETATM   28  O           1     -20.572  -7.822  -1.169  0.00  0.00    -0.646 OA
HETATM   29  O           1     -22.290  -6.533  -1.447  0.00  0.00    -0.646 OA
ENDBRANCH  19  27
ENDBRANCH   3  19
TORSDOF 11
ENDMDL
MODEL 6
REMARK VINA RESULT:      -6.1     12.837     14.942
REMARK  11 active torsions:
REMARK  status: ('A' for Active; 'I' for Inactive)
REMARK       I    between atoms: C_1  and  N_10 
REMARK    1  A    between atoms: C_1  and  C_2 
REMARK    2  A    between atoms: C_2  and  C_3 
REMARK    3  A    between atoms: C_2  and  N_15 
REMARK    4  A    between atoms: C_3  and  C_23 
REMARK    5  A    between atoms: N_10  and  C_12 
REMARK    6  A    between atoms: C_11  and  C_18 
REMARK    7  A    between atoms: C_11  and  C_12 
REMARK    8  A    between atoms: C_12  and  C_28 
REMARK    9  A    between atoms: C_14  and  O_20 
REMARK   10  A    between atoms: C_16  and  N_25 
REMARK   11  A    between atoms: C_16  and  C_18 
ROOT
HETATM    1  C           1     -27.152  -6.450 -19.802  0.00  0.00     0.249 C 
HETATM    2  O           1     -27.564  -5.543 -20.483  0.00  0.00    -0.271 OA
HETATM    3  N           1     -27.523  -6.543 -18.487  0.00  0.00    -0.345 N 
HETATM    4  H           1     -27.177  -7.304 -17.916  0.00  0.00     0.163 HD
ENDROOT
BRANCH   1   5
HETATM    5  C           1     -26.227  -7.483 -20.399  0.00  0.00     0.278 C 
BRANCH   5   6
HETATM    6  C           1     -25.348  -6.827 -21.457  0.00  0.00     0.081 C 
BRANCH   6   7
HETATM    7  C           1     -24.056  -7.576 -21.565  0.00  0.00    -0.056 A 
HETATM    8  C           1     -23.262  -7.764 -20.434  0.00  0.00     0.010 A 
HETATM    9  C           1     -22.058  -8.462 -20.536  0.00  0.00     0.037 A 
HETATM   10  C           1     -21.649  -8.971 -21.769  0.00  0.00     0.065 A 
HETATM   11  C           1     -22.443  -8.781 -22.899  0.00  0.00     0.037 A 
HETATM   12  C           1     -23.647  -8.084 -22.798  0.00  0.00     0.010 A 
BRANCH  10  13
HETATM   13  O           1     -20.479  -9.648 -21.867  0.00  0.00    -0.361 OA
HETATM   14  H           1     -20.060  -9.651 -20.991  0.00  0.00     0.217 HD
ENDBRANCH  10  13
ENDBRANCH   6   7
ENDBRANCH   5   6
BRANCH   5  15
HETATM   15  N           1     -27.040  -8.573 -21.033  0.00  0.00    -0.066 N 
HETATM   16  H           1     -27.949  -8.670 -20.526  0.00  0.00     0.275 HD
HETATM   17  H           1     -27.225  -8.333 -22.033  0.00  0.00     0.275 HD
HETATM   18  H           1     -26.515  -9.475 -20.981  0.00  0.00     0.275 HD
ENDBRANCH   5  15
ENDBRANCH   1   5
BRANCH   3  19
HETATM   19  C           1     -28.410  -5.550 -17.913  0.00  0.00     0.185 C 
BRANCH  19  20
HETATM   20  C           1     -29.685  -6.227 -17.429  0.00  0.00     0.038 C 
BRANCH  20  21
HETATM   21  C           1     -30.427  -5.296 -16.479  0.00  0.00     0.030 C 
BRANCH  21  22
HETATM   22  C           1     -31.480  -4.515 -17.253  0.00  0.00     0.230 C 
BRANCH  22  23
HETATM   23  N           1     -30.928  -3.173 -17.635  0.00  0.00    -0.079 N 
HETATM   24  H           1     -30.483  -2.729 -16.800  0.00  0.00     0.274 HD
HETATM   25  H           1     -31.702  -2.562 -17.981  0.00  0.00     0.274 HD
HETATM   26  H           1     -30.214  -3.291 -18.389  0.00  0.00     0.274 HD
ENDBRANCH  22  23
ENDBRANCH  21  22
ENDBRANCH  20  21
ENDBRANCH  19  20
BRANCH  19  27
HETATM   27  C           1     -27.724  -4.878 -16.748  0.00  0.00     0.196 C 
HETATM   28  O           1     -26.964  -5.537 -16.007  0.00  0.00    -0.646 OA
HETATM   29  O           1     -27.916  -3.663 -16.527  0.00  0.00    -0.646 OA
ENDBRANCH  19  27
ENDBRANCH   3  19
TORSDOF 11
ENDMDL
MODEL 7
REMARK VINA RESULT:      -5.9     13.846     15.050
REMARK  11 active torsions:
REMARK  status: ('A' for Active; 'I' for Inactive)
REMARK       I    between atoms: C_1  and  N_10 
REMARK    1  A    between atoms: C_1  and  C_2 
REMARK    2  A    between atoms: C_2  and  C_3 
REMARK    3  A    between atoms: C_2  and  N_15 
REMARK    4  A    between atoms: C_3  and  C_23 
REMARK    5  A    between atoms: N_10  and  C_12 
REMARK    6  A    between atoms: C_11  and  C_18 
REMARK    7  A    between atoms: C_11  and  C_12 
REMARK    8  A    between atoms: C_12  and  C_28 
REMARK    9  A    between atoms: C_14  and  O_20 
REMARK   10  A    between atoms: C_16  and  N_25 
REMARK   11  A    between atoms: C_16  and  C_18 
ROOT
HETATM    1  C           1     -26.675  -6.961 -19.192  0.00  0.00     0.249 C 
HETATM    2  O           1     -25.946  -6.319 -18.475  0.00  0.00    -0.271 OA
HETATM    3  N           1     -28.027  -6.957 -18.974  0.00  0.00    -0.345 N 
HETATM    4  H           1     -28.638  -7.496 -19.575  0.00  0.00     0.163 HD
ENDROOT
BRANCH   1   5
HETATM    5  C           1     -26.096  -7.769 -20.328  0.00  0.00     0.278 C 
BRANCH   5   6
HETATM    6  C           1     -25.167  -6.889 -21.154  0.00  0.00     0.081 C 
BRANCH   6   7
HETATM    7  C           1     -23.878  -7.612 -21.393  0.00  0.00    -0.056 A 
HETATM    8  C           1     -23.595  -8.136 -22.655  0.00  0.00     0.010 A 
HETATM    9  C           1     -22.394  -8.810 -22.876  0.00  0.00     0.037 A 
HETATM   10  C           1     -21.476  -8.959 -21.837  0.00  0.00     0.065 A 
HETATM   11  C           1     -21.759  -8.437 -20.576  0.00  0.00     0.037 A 
HETATM   12  C           1     -22.961  -7.762 -20.353  0.00  0.00     0.010 A 
BRANCH  10  13
HETATM   13  O           1     -20.309  -9.615 -22.052  0.00  0.00    -0.361 OA
HETATM   14  H           1     -20.370 -10.058 -22.915  0.00  0.00     0.217 HD
ENDBRANCH  10  13
ENDBRANCH   6   7
ENDBRANCH   5   6
BRANCH   5  15
HETATM   15  N           1     -27.209  -8.274 -21.198  0.00  0.00    -0.066 N 
HETATM   16  H           1     -27.909  -8.780 -20.610  0.00  0.00     0.275 HD
HETATM   17  H           1     -27.673  -7.467 -21.674  0.00  0.00     0.275 HD
HETATM   18  H           1     -26.821  -8.926 -21.916  0.00  0.00     0.275 HD
ENDBRANCH   5  15
ENDBRANCH   1   5
BRANCH   3  19
HETATM   19  C           1     -28.582  -6.182 -17.882  0.00  0.00     0.185 C 
BRANCH  19  20
HETATM   20  C           1     -28.966  -4.798 -18.386  0.00  0.00     0.038 C 
BRANCH  20  21
HETATM   21  C           1     -28.498  -3.746 -17.388  0.00  0.00     0.030 C 
BRANCH  21  22
HETATM   22  C           1     -29.546  -2.646 -17.281  0.00  0.00     0.230 C 
BRANCH  22  23
HETATM   23  N           1     -30.867  -3.163 -17.768  0.00  0.00    -0.079 N 
HETATM   24  H           1     -31.625  -2.845 -17.121  0.00  0.00     0.274 HD
HETATM   25  H           1     -30.847  -4.207 -17.791  0.00  0.00     0.274 HD
HETATM   26  H           1     -31.052  -2.797 -18.729  0.00  0.00     0.274 HD
ENDBRANCH  22  23
ENDBRANCH  21  22
ENDBRANCH  20  21
ENDBRANCH  19  20
BRANCH  19  27
HETATM   27  C           1     -29.808  -6.880 -17.345  0.00  0.00     0.196 C 
HETATM   28  O           1     -30.760  -6.209 -16.891  0.00  0.00    -0.646 OA
HETATM   29  O           1     -29.871  -8.128 -17.356  0.00  0.00    -0.646 OA
ENDBRANCH  19  27
ENDBRANCH   3  19
TORSDOF 11
ENDMDL
MODEL 8
REMARK VINA RESULT:      -5.7      1.976      3.272
REMARK  11 active torsions:
REMARK  status: ('A' for Active; 'I' for Inactive)
REMARK       I    between atoms: C_1  and  N_10 
REMARK    1  A    between atoms: C_1  and  C_2 
REMARK    2  A    between atoms: C_2  and  C_3 
REMARK    3  A    between atoms: C_2  and  N_15 
REMARK    4  A    between atoms: C_3  and  C_23 
REMARK    5  A    between atoms: N_10  and  C_12 
REMARK    6  A    between atoms: C_11  and  C_18 
REMARK    7  A    between atoms: C_11  and  C_12 
REMARK    8  A    between atoms: C_12  and  C_28 
REMARK    9  A    between atoms: C_14  and  O_20 
REMARK   10  A    between atoms: C_16  and  N_25 
REMARK   11  A    between atoms: C_16  and  C_18 
ROOT
HETATM    1  C           1     -20.618  -7.686  -4.960  0.00  0.00     0.249 C 
HETATM    2  O           1     -19.888  -8.038  -5.854  0.00  0.00    -0.271 OA
HETATM    3  N           1     -20.742  -8.457  -3.834  0.00  0.00    -0.345 N 
HETATM    4  H           1     -21.354  -8.162  -3.084  0.00  0.00     0.163 HD
ENDROOT
BRANCH   1   5
HETATM    5  C           1     -21.393  -6.397  -5.081  0.00  0.00     0.278 C 
BRANCH   5   6
HETATM    6  C           1     -20.458  -5.282  -5.530  0.00  0.00     0.081 C 
BRANCH   6   7
HETATM    7  C           1     -20.848  -4.827  -6.902  0.00  0.00    -0.056 A 
HETATM    8  C           1     -22.174  -4.492  -7.176  0.00  0.00     0.010 A 
HETATM    9  C           1     -22.536  -4.069  -8.455  0.00  0.00     0.037 A 
HETATM   10  C           1     -21.572  -3.980  -9.460  0.00  0.00     0.065 A 
HETATM   11  C           1     -20.247  -4.316  -9.186  0.00  0.00     0.037 A 
HETATM   12  C           1     -19.884  -4.740  -7.907  0.00  0.00     0.010 A 
BRANCH  10  13
HETATM   13  O           1     -21.924  -3.570 -10.702  0.00  0.00    -0.361 OA
HETATM   14  H           1     -22.596  -4.184 -11.041  0.00  0.00     0.217 HD
ENDBRANCH  10  13
ENDBRANCH   6   7
ENDBRANCH   5   6
BRANCH   5  15
HETATM   15  N           1     -21.986  -6.044  -3.748  0.00  0.00    -0.066 N 
HETATM   16  H           1     -21.219  -5.862  -3.063  0.00  0.00     0.275 HD
HETATM   17  H           1     -22.577  -5.187  -3.846  0.00  0.00     0.275 HD
HETATM   18  H           1     -22.576  -6.837  -3.408  0.00  0.00     0.275 HD
ENDBRANCH   5  15
ENDBRANCH   1   5
BRANCH   3  19
HETATM   19  C           1     -19.998  -9.695  -3.718  0.00  0.00     0.185 C 
BRANCH  19  20
HETATM   20  C           1     -18.835  -9.500  -2.754  0.00  0.00     0.038 C 
BRANCH  20  21
HETATM   21  C           1     -17.528  -9.463  -3.535  0.00  0.00     0.030 C 
BRANCH  21  22
HETATM   22  C           1     -17.601 -10.446  -4.696  0.00  0.00     0.230 C 
BRANCH  22  23
HETATM   23  N           1     -17.293  -9.732  -5.979  0.00  0.00    -0.079 N 
HETATM   24  H           1     -17.302  -8.699  -5.813  0.00  0.00     0.274 HD
HETATM   25  H           1     -18.014  -9.974  -6.695  0.00  0.00     0.274 HD
HETATM   26  H           1     -16.350 -10.022  -6.321  0.00  0.00     0.274 HD
ENDBRANCH  22  23
ENDBRANCH  21  22
ENDBRANCH  20  21
ENDBRANCH  19  20
BRANCH  19  27
HETATM   27  C           1     -20.907 -10.780  -3.195  0.00  0.00     0.196 C 
HETATM   28  O           1     -21.496 -11.540  -3.994  0.00  0.00    -0.646 OA
HETATM   29  O           1     -21.070 -10.919  -1.963  0.00  0.00    -0.646 OA
ENDBRANCH  19  27
ENDBRANCH   3  19
TORSDOF 11
ENDMDL
MODEL 9
REMARK VINA RESULT:      -5.7     13.137     14.925
REMARK  11 active torsions:
REMARK  status: ('A' for Active; 'I' for Inactive)
REMARK       I    between atoms: C_1  and  N_10 
REMARK    1  A    between atoms: C_1  and  C_2 
REMARK    2  A    between atoms: C_2  and  C_3 
REMARK    3  A    between atoms: C_2  and  N_15 
REMARK    4  A    between atoms: C_3  and  C_23 
REMARK    5  A    between atoms: N_10  and  C_12 
REMARK    6  A    between atoms: C_11  and  C_18 
REMARK    7  A    between atoms: C_11  and  C_12 
REMARK    8  A    between atoms: C_12  and  C_28 
REMARK    9  A    between atoms: C_14  and  O_20 
REMARK   10  A    between atoms: C_16  and  N_25 
REMARK   11  A    between atoms: C_16  and  C_18 
ROOT
HETATM    1  C           1     -27.675  -6.222 -18.433  0.00  0.00     0.249 C 
HETATM    2  O           1     -28.348  -5.521 -19.149  0.00  0.00    -0.271 OA
HETATM    3  N           1     -26.606  -6.903 -18.951  0.00  0.00    -0.345 N 
HETATM    4  H           1     -26.041  -7.491 -18.351  0.00  0.00     0.163 HD
ENDROOT
BRANCH   1   5
HETATM    5  C           1     -28.011  -6.347 -16.967  0.00  0.00     0.278 C 
BRANCH   5   6
HETATM    6  C           1     -28.279  -4.964 -16.388  0.00  0.00     0.081 C 
BRANCH   6   7
HETATM    7  C           1     -29.668  -4.535 -16.747  0.00  0.00    -0.056 A 
HETATM    8  C           1     -30.756  -5.344 -16.420  0.00  0.00     0.010 A 
HETATM    9  C           1     -32.049  -4.943 -16.755  0.00  0.00     0.037 A 
HETATM   10  C           1     -32.254  -3.732 -17.417  0.00  0.00     0.065 A 
HETATM   11  C           1     -31.166  -2.924 -17.745  0.00  0.00     0.037 A 
HETATM   12  C           1     -29.872  -3.325 -17.410  0.00  0.00     0.010 A 
BRANCH  10  13
HETATM   13  O           1     -33.510  -3.343 -17.743  0.00  0.00    -0.361 OA
HETATM   14  H           1     -33.666  -2.469 -17.348  0.00  0.00     0.217 HD
ENDBRANCH  10  13
ENDBRANCH   6   7
ENDBRANCH   5   6
BRANCH   5  15
HETATM   15  N           1     -26.857  -6.976 -16.243  0.00  0.00    -0.066 N 
HETATM   16  H           1     -27.213  -7.708 -15.588  0.00  0.00     0.275 HD
HETATM   17  H           1     -26.209  -7.415 -16.936  0.00  0.00     0.275 HD
HETATM   18  H           1     -26.345  -6.244 -15.702  0.00  0.00     0.275 HD
ENDBRANCH   5  15
ENDBRANCH   1   5
BRANCH   3  19
HETATM   19  C           1     -26.284  -6.783 -20.360  0.00  0.00     0.185 C 
BRANCH  19  20
HETATM   20  C           1     -24.791  -6.530 -20.520  0.00  0.00     0.038 C 
BRANCH  20  21
HETATM   21  C           1     -24.056  -7.019 -19.278  0.00  0.00     0.030 C 
BRANCH  21  22
HETATM   22  C           1     -22.779  -7.736 -19.693  0.00  0.00     0.230 C 
BRANCH  22  23
HETATM   23  N           1     -23.077  -8.678 -20.822  0.00  0.00    -0.079 N 
HETATM   24  H           1     -24.010  -9.123 -20.667  0.00  0.00     0.274 HD
HETATM   25  H           1     -22.342  -9.419 -20.862  0.00  0.00     0.274 HD
HETATM   26  H           1     -23.088  -8.149 -21.723  0.00  0.00     0.274 HD
ENDBRANCH  22  23
ENDBRANCH  21  22
ENDBRANCH  20  21
ENDBRANCH  19  20
BRANCH  19  27
HETATM   27  C           1     -26.656  -8.062 -21.070  0.00  0.00     0.196 C 
HETATM   28  O           1     -27.821  -8.506 -20.987  0.00  0.00    -0.646 OA
HETATM   29  O           1     -25.799  -8.675 -21.743  0.00  0.00    -0.646 OA
ENDBRANCH  19  27
ENDBRANCH   3  19
TORSDOF 11
ENDMDL
