MODEL 1
REMARK VINA RESULT:      -6.5      0.000      0.000
REMARK  10 active torsions:
REMARK  status: ('A' for Active; 'I' for Inactive)
REMARK    1  A    between atoms: C_6  and  C_7 
REMARK    2  A    between atoms: C_6  and  N_9 
REMARK    3  A    between atoms: C_7  and  C_10 
REMARK    4  A    between atoms: C_10  and  C_11 
REMARK    5  A    between atoms: C_11  and  C_18 
REMARK    6  A    between atoms: C_11  and  N_22 
REMARK    7  A    between atoms: C_12  and  C_15 
REMARK    8  A    between atoms: N_13  and  C_15 
REMARK       I    between atoms: N_13  and  C_18 
REMARK    9  A    between atoms: C_14  and  C_16 
REMARK   10  A    between atoms: C_15  and  C_16 
ROOT
HETATM    1  C           1     -33.604  -3.092 -11.437  0.00  0.00     0.274 C 
ENDROOT
BRANCH   1   2
HETATM    2  C           1     -34.409  -4.149 -10.692  0.00  0.00     0.044 C 
BRANCH   2   3
HETATM    3  C           1     -33.880  -5.533 -11.044  0.00  0.00     0.030 C 
BRANCH   3   4
HETATM    4  C           1     -34.604  -6.581 -10.210  0.00  0.00     0.230 C 
BRANCH   4   5
HETATM    5  N           1     -34.795  -7.826 -11.024  0.00  0.00    -0.079 N 
HETATM    6  H           1     -35.266  -7.585 -11.926  0.00  0.00     0.274 HD
HETATM    7  H           1     -35.388  -8.503 -10.491  0.00  0.00     0.274 HD
HETATM    8  H           1     -33.866  -8.259 -11.222  0.00  0.00     0.274 HD
ENDBRANCH   4   5
ENDBRANCH   3   4
ENDBRANCH   2   3
ENDBRANCH   1   2
BRANCH   1   9
HETATM    9  C           1     -34.440  -2.518 -12.555  0.00  0.00     0.249 C 
HETATM   10  N           1     -35.066  -1.312 -12.391  0.00  0.00    -0.344 N 
HETATM   11  H           1     -34.969  -0.806 -11.520  0.00  0.00     0.163 HD
HETATM   12  O           1     -34.555  -3.122 -13.595  0.00  0.00    -0.271 OA
BRANCH  10  13
HETATM   13  C           1     -35.869  -0.760 -13.465  0.00  0.00     0.195 C 
BRANCH  13  14
HETATM   14  C           1     -35.048   0.237 -14.244  0.00  0.00     0.197 C 
HETATM   15  O           1     -34.747   1.336 -13.731  0.00  0.00    -0.646 OA
HETATM   16  O           1     -34.667  -0.037 -15.403  0.00  0.00    -0.646 OA
ENDBRANCH  13  14
BRANCH  13  17
HETATM   17  C           1     -37.091  -0.065 -12.878  0.00  0.00     0.149 C 
BRANCH  17  18
HETATM   18  C           1     -37.091  -0.227 -11.378  0.00  0.00     0.175 C 
HETATM   19  O           1     -36.419   0.550 -10.665  0.00  0.00    -0.648 OA
HETATM   20  O           1     -37.763  -1.139 -10.848  0.00  0.00    -0.648 OA
ENDBRANCH  17  18
ENDBRANCH  13  17
ENDBRANCH  10  13
ENDBRANCH   1   9
BRANCH   1  21
HETATM   21  N           1     -33.220  -1.996 -10.487  0.00  0.00    -0.067 N 
HETATM   22  H           1     -33.131  -2.387  -9.522  0.00  0.00     0.275 HD
HETATM   23  H           1     -32.305  -1.586 -10.782  0.00  0.00     0.275 HD
HETATM   24  H           1     -33.954  -1.254 -10.497  0.00  0.00     0.275 HD
ENDBRANCH   1  21
TORSDOF 10
ENDMDL
MODEL 2
REMARK VINA RESULT:      -6.3      1.541      2.997
REMARK  10 active torsions:
REMARK  status: ('A' for Active; 'I' for Inactive)
REMARK    1  A    between atoms: C_6  and  C_7 
REMARK    2  A    between atoms: C_6  and  N_9 
REMARK    3  A    between atoms: C_7  and  C_10 
REMARK    4  A    between atoms: C_10  and  C_11 
REMARK    5  A    between atoms: C_11  and  C_18 
REMARK    6  A    between atoms: C_11  and  N_22 
REMARK    7  A    between atoms: C_12  and  C_15 
REMARK    8  A    between atoms: N_13  and  C_15 
REMARK       I    between atoms: N_13  and  C_18 
REMARK    9  A    between atoms: C_14  and  C_16 
REMARK   10  A    between atoms: C_15  and  C_16 
ROOT
HETATM    1  C           1     -34.105  -3.753 -12.421  0.00  0.00     0.274 C 
ENDROOT
BRANCH   1   2
HETATM    2  C           1     -32.850  -4.220 -11.695  0.00  0.00     0.044 C 
BRANCH   2   3
HETATM    3  C           1     -33.016  -5.675 -11.276  0.00  0.00     0.030 C 
BRANCH   3   4
HETATM    4  C           1     -34.472  -5.938 -10.920  0.00  0.00     0.230 C 
BRANCH   4   5
HETATM    5  N           1     -34.693  -7.414 -10.772  0.00  0.00    -0.079 N 
HETATM    6  H           1     -35.658  -7.657 -11.092  0.00  0.00     0.274 HD
HETATM    7  H           1     -34.581  -7.684  -9.767  0.00  0.00     0.274 HD
HETATM    8  H           1     -33.994  -7.931 -11.350  0.00  0.00     0.274 HD
ENDBRANCH   4   5
ENDBRANCH   3   4
ENDBRANCH   2   3
ENDBRANCH   1   2
BRANCH   1   9
HETATM    9  C           1     -34.350  -2.296 -12.117  0.00  0.00     0.249 C 
HETATM   10  N           1     -35.159  -1.553 -12.934  0.00  0.00    -0.344 N 
HETATM   11  H           1     -35.594  -1.982 -13.741  0.00  0.00     0.163 HD
HETATM   12  O           1     -33.832  -1.784 -11.153  0.00  0.00    -0.271 OA
BRANCH  10  13
HETATM   13  C           1     -35.394  -0.152 -12.643  0.00  0.00     0.195 C 
BRANCH  13  14
HETATM   14  C           1     -36.587  -0.023 -11.727  0.00  0.00     0.197 C 
HETATM   15  O           1     -37.707  -0.435 -12.097  0.00  0.00    -0.646 OA
HETATM   16  O           1     -36.454   0.495 -10.597  0.00  0.00    -0.646 OA
ENDBRANCH  13  14
BRANCH  13  17
HETATM   17  C           1     -35.667   0.597 -13.940  0.00  0.00     0.149 C 
BRANCH  17  18
HETATM   18  C           1     -35.823  -0.393 -15.070  0.00  0.00     0.175 C 
HETATM   19  O           1     -34.824  -0.742 -15.737  0.00  0.00    -0.648 OA
HETATM   20  O           1     -36.949  -0.863 -15.338  0.00  0.00    -0.648 OA
ENDBRANCH  17  18
ENDBRANCH  13  17
ENDBRANCH  10  13
ENDBRANCH   1   9
BRANCH   1  21
HETATM   21  N           1     -33.923  -3.932 -13.899  0.00  0.00    -0.067 N 
HETATM   22  H           1     -33.997  -3.004 -14.374  0.00  0.00     0.275 HD
HETATM   23  H           1     -32.980  -4.343 -14.086  0.00  0.00     0.275 HD
HETATM   24  H           1     -34.662  -4.572 -14.267  0.00  0.00     0.275 HD
ENDBRANCH   1  21
TORSDOF 10
ENDMDL
MODEL 3
REMARK VINA RESULT:      -5.9     12.677     14.290
REMARK  10 active torsions:
REMARK  status: ('A' for Active; 'I' for Inactive)
REMARK    1  A    between atoms: C_6  and  C_7 
REMARK    2  A    between atoms: C_6  and  N_9 
REMARK    3  A    between atoms: C_7  and  C_10 
REMARK    4  A    between atoms: C_10  and  C_11 
REMARK    5  A    between atoms: C_11  and  C_18 
REMARK    6  A    between atoms: C_11  and  N_22 
REMARK    7  A    between atoms: C_12  and  C_15 
REMARK    8  A    between atoms: N_13  and  C_15 
REMARK       I    between atoms: N_13  and  C_18 
REMARK    9  A    between atoms: C_14  and  C_16 
REMARK   10  A    between atoms: C_15  and  C_16 
ROOT
HETATM    1  C           1     -21.162  -5.761  -6.937  0.00  0.00     0.274 C 
ENDROOT
BRANCH   1   2
HETATM    2  C           1     -20.938  -5.471  -5.459  0.00  0.00     0.044 C 
BRANCH   2   3
HETATM    3  C           1     -21.880  -6.328  -4.624  0.00  0.00     0.030 C 
BRANCH   3   4
HETATM    4  C           1     -21.362  -6.408  -3.194  0.00  0.00     0.230 C 
BRANCH   4   5
HETATM    5  N           1     -22.418  -5.915  -2.250  0.00  0.00    -0.079 N 
HETATM    6  H           1     -23.016  -5.208  -2.734  0.00  0.00     0.274 HD
HETATM    7  H           1     -21.962  -5.476  -1.418  0.00  0.00     0.274 HD
HETATM    8  H           1     -23.010  -6.718  -1.939  0.00  0.00     0.274 HD
ENDBRANCH   4   5
ENDBRANCH   3   4
ENDBRANCH   2   3
ENDBRANCH   1   2
BRANCH   1   9
HETATM    9  C           1     -21.770  -4.550  -7.601  0.00  0.00     0.249 C 
HETATM   10  N           1     -22.468  -4.689  -8.770  0.00  0.00    -0.344 N 
HETATM   11  H           1     -22.576  -5.603  -9.189  0.00  0.00     0.163 HD
HETATM   12  O           1     -21.642  -3.458  -7.100  0.00  0.00    -0.271 OA
BRANCH  10  13
HETATM   13  C           1     -23.052  -3.525  -9.408  0.00  0.00     0.195 C 
BRANCH  13  14
HETATM   14  C           1     -24.377  -3.903 -10.025  0.00  0.00     0.197 C 
HETATM   15  O           1     -24.836  -5.055  -9.863  0.00  0.00    -0.646 OA
HETATM   16  O           1     -25.016  -3.065 -10.696  0.00  0.00    -0.646 OA
ENDBRANCH  13  14
BRANCH  13  17
HETATM   17  C           1     -22.113  -3.017 -10.494  0.00  0.00     0.149 C 
BRANCH  17  18
HETATM   18  C           1     -21.604  -4.183 -11.306  0.00  0.00     0.175 C 
HETATM   19  O           1     -22.187  -4.511 -12.363  0.00  0.00    -0.648 OA
HETATM   20  O           1     -20.600  -4.821 -10.923  0.00  0.00    -0.648 OA
ENDBRANCH  17  18
ENDBRANCH  13  17
ENDBRANCH  10  13
ENDBRANCH   1   9
BRANCH   1  21
HETATM   21  N           1     -19.848  -6.080  -7.588  0.00  0.00    -0.067 N 
HETATM   22  H           1     -19.896  -5.843  -8.604  0.00  0.00     0.275 HD
HETATM   23  H           1     -19.091  -5.520  -7.135  0.00  0.00     0.275 HD
HETATM   24  H           1     -19.643  -7.098  -7.477  0.00  0.00     0.275 HD
ENDBRANCH   1  21
TORSDOF 10
ENDMDL
MODEL 4
REMARK VINA RESULT:      -5.6     14.905     17.048
REMARK  10 active torsions:
REMARK  status: ('A' for Active; 'I' for Inactive)
REMARK    1  A    between atoms: C_6  and  C_7 
REMARK    2  A    between atoms: C_6  and  N_9 
REMARK    3  A    between atoms: C_7  and  C_10 
REMARK    4  A    between atoms: C_10  and  C_11 
REMARK    5  A    between atoms: C_11  and  C_18 
REMARK    6  A    between atoms: C_11  and  N_22 
REMARK    7  A    between atoms: C_12  and  C_15 
REMARK    8  A    between atoms: N_13  and  C_15 
REMARK       I    between atoms: N_13  and  C_18 
REMARK    9  A    between atoms: C_14  and  C_16 
REMARK   10  A    between atoms: C_15  and  C_16 
ROOT
HETATM    1  C           1     -20.511  -5.021  -6.533  0.00  0.00     0.274 C 
ENDROOT
BRANCH   1   2
HETATM    2  C           1     -21.313  -3.889  -7.163  0.00  0.00     0.044 C 
BRANCH   2   3
HETATM    3  C           1     -21.410  -4.110  -8.667  0.00  0.00     0.030 C 
BRANCH   3   4
HETATM    4  C           1     -22.863  -3.983  -9.105  0.00  0.00     0.230 C 
BRANCH   4   5
HETATM    5  N           1     -23.759  -4.085  -7.907  0.00  0.00    -0.079 N 
HETATM    6  H           1     -23.225  -4.489  -7.105  0.00  0.00     0.274 HD
HETATM    7  H           1     -24.572  -4.702  -8.132  0.00  0.00     0.274 HD
HETATM    8  H           1     -24.106  -3.133  -7.650  0.00  0.00     0.274 HD
ENDBRANCH   4   5
ENDBRANCH   3   4
ENDBRANCH   2   3
ENDBRANCH   1   2
BRANCH   1   9
HETATM    9  C           1     -21.401  -5.815  -5.609  0.00  0.00     0.249 C 
HETATM   10  N           1     -20.852  -6.714  -4.735  0.00  0.00    -0.344 N 
HETATM   11  H           1     -19.849  -6.846  -4.709  0.00  0.00     0.163 HD
HETATM   12  O           1     -22.599  -5.657  -5.640  0.00  0.00    -0.271 OA
BRANCH  10  13
HETATM   13  C           1     -21.707  -7.478  -3.848  0.00  0.00     0.195 C 
BRANCH  13  14
HETATM   14  C           1     -21.637  -6.894  -2.458  0.00  0.00     0.197 C 
HETATM   15  O           1     -20.914  -7.430  -1.591  0.00  0.00    -0.646 OA
HETATM   16  O           1     -22.301  -5.874  -2.174  0.00  0.00    -0.646 OA
ENDBRANCH  13  14
BRANCH  13  17
HETATM   17  C           1     -21.240  -8.927  -3.815  0.00  0.00     0.149 C 
BRANCH  17  18
HETATM   18  C           1     -19.942  -9.054  -4.575  0.00  0.00     0.175 C 
HETATM   19  O           1     -19.957  -9.315  -5.798  0.00  0.00    -0.648 OA
HETATM   20  O           1     -18.853  -8.899  -3.982  0.00  0.00    -0.648 OA
ENDBRANCH  17  18
ENDBRANCH  13  17
ENDBRANCH  10  13
ENDBRANCH   1   9
BRANCH   1  21
HETATM   21  N           1     -19.983  -5.919  -7.613  0.00  0.00    -0.067 N 
HETATM   22  H           1     -18.969  -5.721  -7.766  0.00  0.00     0.275 HD
HETATM   23  H           1     -20.104  -6.917  -7.325  0.00  0.00     0.275 HD
HETATM   24  H           1     -20.510  -5.746  -8.498  0.00  0.00     0.275 HD
ENDBRANCH   1  21
TORSDOF 10
ENDMDL
MODEL 5
REMARK VINA RESULT:      -5.5      3.171      5.174
REMARK  10 active torsions:
REMARK  status: ('A' for Active; 'I' for Inactive)
REMARK    1  A    between atoms: C_6  and  C_7 
REMARK    2  A    between atoms: C_6  and  N_9 
REMARK    3  A    between atoms: C_7  and  C_10 
REMARK    4  A    between atoms: C_10  and  C_11 
REMARK    5  A    between atoms: C_11  and  C_18 
REMARK    6  A    between atoms: C_11  and  N_22 
REMARK    7  A    between atoms: C_12  and  C_15 
REMARK    8  A    between atoms: N_13  and  C_15 
REMARK       I    between atoms: N_13  and  C_18 
REMARK    9  A    between atoms: C_14  and  C_16 
REMARK   10  A    between atoms: C_15  and  C_16 
ROOT
HETATM    1  C           1     -36.202   0.408 -14.615  0.00  0.00     0.274 C 
ENDROOT
BRANCH   1   2
HETATM    2  C           1     -36.528  -0.425 -15.847  0.00  0.00     0.044 C 
BRANCH   2   3
HETATM    3  C           1     -35.236  -0.822 -16.550  0.00  0.00     0.030 C 
BRANCH   3   4
HETATM    4  C           1     -35.123  -2.340 -16.585  0.00  0.00     0.230 C 
BRANCH   4   5
HETATM    5  N           1     -33.816  -2.730 -17.210  0.00  0.00    -0.079 N 
HETATM    6  H           1     -33.868  -2.589 -18.244  0.00  0.00     0.274 HD
HETATM    7  H           1     -33.619  -3.737 -17.005  0.00  0.00     0.274 HD
HETATM    8  H           1     -33.051  -2.139 -16.816  0.00  0.00     0.274 HD
ENDBRANCH   4   5
ENDBRANCH   3   4
ENDBRANCH   2   3
ENDBRANCH   1   2
BRANCH   1   9
HETATM    9  C           1     -36.895  -0.181 -13.411  0.00  0.00     0.249 C 
HETATM   10  N           1     -36.292  -0.133 -12.183  0.00  0.00    -0.344 N 
HETATM   11  H           1     -35.382   0.298 -12.083  0.00  0.00     0.163 HD
HETATM   12  O           1     -37.982  -0.694 -13.530  0.00  0.00    -0.271 OA
BRANCH  10  13
HETATM   13  C           1     -36.957  -0.698 -11.025  0.00  0.00     0.195 C 
BRANCH  13  14
HETATM   14  C           1     -37.017   0.334  -9.926  0.00  0.00     0.197 C 
HETATM   15  O           1     -37.892   1.226  -9.953  0.00  0.00    -0.646 OA
HETATM   16  O           1     -36.191   0.296  -8.988  0.00  0.00    -0.646 OA
ENDBRANCH  13  14
BRANCH  13  17
HETATM   17  C           1     -36.181  -1.915 -10.539  0.00  0.00     0.149 C 
BRANCH  17  18
HETATM   18  C           1     -34.892  -2.034 -11.315  0.00  0.00     0.175 C 
HETATM   19  O           1     -34.846  -2.740 -12.346  0.00  0.00    -0.648 OA
HETATM   20  O           1     -33.871  -1.426 -10.929  0.00  0.00    -0.648 OA
ENDBRANCH  17  18
ENDBRANCH  13  17
ENDBRANCH  10  13
ENDBRANCH   1   9
BRANCH   1  21
HETATM   21  N           1     -34.719   0.406 -14.389  0.00  0.00    -0.067 N 
HETATM   22  H           1     -34.516   0.097 -13.412  0.00  0.00     0.275 HD
HETATM   23  H           1     -34.266  -0.252 -15.063  0.00  0.00     0.275 HD
HETATM   24  H           1     -34.343   1.369 -14.535  0.00  0.00     0.275 HD
ENDBRANCH   1  21
TORSDOF 10
ENDMDL
MODEL 6
REMARK VINA RESULT:      -5.4      2.198      3.587
REMARK  10 active torsions:
REMARK  status: ('A' for Active; 'I' for Inactive)
REMARK    1  A    between atoms: C_6  and  C_7 
REMARK    2  A    between atoms: C_6  and  N_9 
REMARK    3  A    between atoms: C_7  and  C_10 
REMARK    4  A    between atoms: C_10  and  C_11 
REMARK    5  A    between atoms: C_11  and  C_18 
REMARK    6  A    between atoms: C_11  and  N_22 
REMARK    7  A    between atoms: C_12  and  C_15 
REMARK    8  A    between atoms: N_13  and  C_15 
REMARK       I    between atoms: N_13  and  C_18 
REMARK    9  A    between atoms: C_14  and  C_16 
REMARK   10  A    between atoms: C_15  and  C_16 
ROOT
HETATM    1  C           1     -34.875  -1.379 -11.615  0.00  0.00     0.274 C 
ENDROOT
BRANCH   1   2
HETATM    2  C           1     -34.690  -2.873 -11.845  0.00  0.00     0.044 C 
BRANCH   2   3
HETATM    3  C           1     -33.456  -3.355 -11.092  0.00  0.00     0.030 C 
BRANCH   3   4
HETATM    4  C           1     -32.713  -4.379 -11.938  0.00  0.00     0.230 C 
BRANCH   4   5
HETATM    5  N           1     -33.090  -5.762 -11.496  0.00  0.00    -0.079 N 
HETATM    6  H           1     -33.455  -5.729 -10.518  0.00  0.00     0.274 HD
HETATM    7  H           1     -32.247  -6.381 -11.533  0.00  0.00     0.274 HD
HETATM    8  H           1     -33.827  -6.142 -12.131  0.00  0.00     0.274 HD
ENDBRANCH   4   5
ENDBRANCH   3   4
ENDBRANCH   2   3
ENDBRANCH   1   2
BRANCH   1   9
HETATM    9  C           1     -35.649  -0.785 -12.767  0.00  0.00     0.249 C 
HETATM   10  N           1     -35.128  -0.821 -14.032  0.00  0.00    -0.344 N 
HETATM   11  H           1     -34.225  -1.247 -14.195  0.00  0.00     0.163 HD
HETATM   12  O           1     -36.727  -0.277 -12.572  0.00  0.00    -0.271 OA
BRANCH  10  13
HETATM   13  C           1     -35.871  -0.250 -15.138  0.00  0.00     0.195 C 
BRANCH  13  14
HETATM   14  C           1     -35.637  -1.076 -16.380  0.00  0.00     0.197 C 
HETATM   15  O           1     -36.505  -1.113 -17.278  0.00  0.00    -0.646 OA
HETATM   16  O           1     -34.575  -1.722 -16.509  0.00  0.00    -0.646 OA
ENDBRANCH  13  14
BRANCH  13  17
HETATM   17  C           1     -35.400   1.178 -15.382  0.00  0.00     0.149 C 
BRANCH  17  18
HETATM   18  C           1     -36.477   1.946 -16.108  0.00  0.00     0.175 C 
HETATM   19  O           1     -37.669   1.577 -16.030  0.00  0.00    -0.648 OA
HETATM   20  O           1     -36.178   2.952 -16.787  0.00  0.00    -0.648 OA
ENDBRANCH  17  18
ENDBRANCH  13  17
ENDBRANCH  10  13
ENDBRANCH   1   9
BRANCH   1  21
HETATM   21  N           1     -35.633  -1.161 -10.339  0.00  0.00    -0.067 N 
HETATM   22  H           1     -35.668  -0.139 -10.125  0.00  0.00     0.275 HD
HETATM   23  H           1     -36.605  -1.528 -10.445  0.00  0.00     0.275 HD
HETATM   24  H           1     -35.153  -1.664  -9.559  0.00  0.00     0.275 HD
ENDBRANCH   1  21
TORSDOF 10
ENDMDL
MODEL 7
REMARK VINA RESULT:      -5.3      4.409      5.860
REMARK  10 active torsions:
REMARK  status: ('A' for Active; 'I' for Inactive)
REMARK    1  A    between atoms: C_6  and  C_7 
REMARK    2  A    between atoms: C_6  and  N_9 
REMARK    3  A    between atoms: C_7  and  C_10 
REMARK    4  A    between atoms: C_10  and  C_11 
REMARK    5  A    between atoms: C_11  and  C_18 
REMARK    6  A    between atoms: C_11  and  N_22 
REMARK    7  A    between atoms: C_12  and  C_15 
REMARK    8  A    between atoms: N_13  and  C_15 
REMARK       I    between atoms: N_13  and  C_18 
REMARK    9  A    between atoms: C_14  and  C_16 
REMARK   10  A    between atoms: C_15  and  C_16 
ROOT
HETATM    1  C           1     -33.100  -4.483 -16.735  0.00  0.00     0.274 C 
ENDROOT
BRANCH   1   2
HETATM    2  C           1     -31.629  -4.672 -16.388  0.00  0.00     0.044 C 
BRANCH   2   3
HETATM    3  C           1     -31.060  -5.829 -17.200  0.00  0.00     0.030 C 
BRANCH   3   4
HETATM    4  C           1     -29.785  -5.380 -17.899  0.00  0.00     0.230 C 
BRANCH   4   5
HETATM    5  N           1     -29.851  -3.906 -18.164  0.00  0.00    -0.079 N 
HETATM    6  H           1     -30.825  -3.565 -18.001  0.00  0.00     0.274 HD
HETATM    7  H           1     -29.577  -3.717 -19.155  0.00  0.00     0.274 HD
HETATM    8  H           1     -29.195  -3.406 -17.521  0.00  0.00     0.274 HD
ENDBRANCH   4   5
ENDBRANCH   3   4
ENDBRANCH   2   3
ENDBRANCH   1   2
BRANCH   1   9
HETATM    9  C           1     -33.922  -4.505 -15.469  0.00  0.00     0.249 C 
HETATM   10  N           1     -33.414  -3.974 -14.314  0.00  0.00    -0.344 N 
HETATM   11  H           1     -32.488  -3.568 -14.309  0.00  0.00     0.163 HD
HETATM   12  O           1     -35.028  -4.989 -15.476  0.00  0.00    -0.271 OA
BRANCH  10  13
HETATM   13  C           1     -34.204  -3.995 -13.098  0.00  0.00     0.195 C 
BRANCH  13  14
HETATM   14  C           1     -34.929  -2.681 -12.948  0.00  0.00     0.197 C 
HETATM   15  O           1     -34.794  -1.790 -13.814  0.00  0.00    -0.646 OA
HETATM   16  O           1     -35.666  -2.483 -11.958  0.00  0.00    -0.646 OA
ENDBRANCH  13  14
BRANCH  13  17
HETATM   17  C           1     -33.286  -4.209 -11.902  0.00  0.00     0.149 C 
BRANCH  17  18
HETATM   18  C           1     -33.775  -5.390 -11.097  0.00  0.00     0.175 C 
HETATM   19  O           1     -34.889  -5.343 -10.532  0.00  0.00    -0.648 OA
HETATM   20  O           1     -33.065  -6.414 -10.996  0.00  0.00    -0.648 OA
ENDBRANCH  17  18
ENDBRANCH  13  17
ENDBRANCH  10  13
ENDBRANCH   1   9
BRANCH   1  21
HETATM   21  N           1     -33.284  -3.165 -17.427  0.00  0.00    -0.067 N 
HETATM   22  H           1     -32.725  -2.432 -16.935  0.00  0.00     0.275 HD
HETATM   23  H           1     -32.959  -3.244 -18.417  0.00  0.00     0.275 HD
HETATM   24  H           1     -34.295  -2.901 -17.411  0.00  0.00     0.275 HD
ENDBRANCH   1  21
TORSDOF 10
ENDMDL
MODEL 8
REMARK VINA RESULT:      -5.2      9.610     11.688
REMARK  10 active torsions:
REMARK  status: ('A' for Active; 'I' for Inactive)
REMARK    1  A    between atoms: C_6  and  C_7 
REMARK    2  A    between atoms: C_6  and  N_9 
REMARK    3  A    between atoms: C_7  and  C_10 
REMARK    4  A    between atoms: C_10  and  C_11 
REMARK    5  A    between atoms: C_11  and  C_18 
REMARK    6  A    between atoms: C_11  and  N_22 
REMARK    7  A    between atoms: C_12  and  C_15 
REMARK    8  A    between atoms: N_13  and  C_15 
REMARK       I    between atoms: N_13  and  C_18 
REMARK    9  A    between atoms: C_14  and  C_16 
REMARK   10  A    between atoms: C_15  and  C_16 
ROOT
HETATM    1  C           1     -30.738  -5.986 -17.815  0.00  0.00     0.274 C 
ENDROOT
BRANCH   1   2
HETATM    2  C           1     -30.381  -4.895 -16.815  0.00  0.00     0.044 C 
BRANCH   2   3
HETATM    3  C           1     -30.441  -3.536 -17.502  0.00  0.00     0.030 C 
BRANCH   3   4
HETATM    4  C           1     -29.121  -2.805 -17.298  0.00  0.00     0.230 C 
BRANCH   4   5
HETATM    5  N           1     -29.353  -1.325 -17.359  0.00  0.00    -0.079 N 
HETATM    6  H           1     -30.112  -1.063 -16.690  0.00  0.00     0.274 HD
HETATM    7  H           1     -29.635  -1.056 -18.329  0.00  0.00     0.274 HD
HETATM    8  H           1     -28.474  -0.823 -17.101  0.00  0.00     0.274 HD
ENDBRANCH   4   5
ENDBRANCH   3   4
ENDBRANCH   2   3
ENDBRANCH   1   2
BRANCH   1   9
HETATM    9  C           1     -29.500  -6.777 -18.161  0.00  0.00     0.249 C 
HETATM   10  N           1     -28.364  -6.129 -18.564  0.00  0.00    -0.344 N 
HETATM   11  H           1     -28.355  -5.119 -18.630  0.00  0.00     0.163 HD
HETATM   12  O           1     -29.511  -7.982 -18.081  0.00  0.00    -0.271 OA
BRANCH  10  13
HETATM   13  C           1     -27.175  -6.888 -18.896  0.00  0.00     0.195 C 
BRANCH  13  14
HETATM   14  C           1     -26.028  -6.430 -18.029  0.00  0.00     0.197 C 
HETATM   15  O           1     -24.850  -6.663 -18.376  0.00  0.00    -0.646 OA
HETATM   16  O           1     -26.256  -5.817 -16.964  0.00  0.00    -0.646 OA
ENDBRANCH  13  14
BRANCH  13  17
HETATM   17  C           1     -26.824  -6.666 -20.361  0.00  0.00     0.149 C 
BRANCH  17  18
HETATM   18  C           1     -26.714  -7.999 -21.061  0.00  0.00     0.175 C 
HETATM   19  O           1     -27.737  -8.693 -21.248  0.00  0.00    -0.648 OA
HETATM   20  O           1     -25.600  -8.409 -21.453  0.00  0.00    -0.648 OA
ENDBRANCH  17  18
ENDBRANCH  13  17
ENDBRANCH  10  13
ENDBRANCH   1   9
BRANCH   1  21
HETATM   21  N           1     -31.762  -6.901 -17.212  0.00  0.00    -0.067 N 
HETATM   22  H           1     -32.720  -6.539 -17.421  0.00  0.00     0.275 HD
HETATM   23  H           1     -31.656  -7.858 -17.617  0.00  0.00     0.275 HD
HETATM   24  H           1     -31.624  -6.943 -16.177  0.00  0.00     0.275 HD
ENDBRANCH   1  21
TORSDOF 10
ENDMDL
MODEL 9
REMARK VINA RESULT:      -5.2      9.425     11.512
REMARK  10 active torsions:
REMARK  status: ('A' for Active; 'I' for Inactive)
REMARK    1  A    between atoms: C_6  and  C_7 
REMARK    2  A    between atoms: C_6  and  N_9 
REMARK    3  A    between atoms: C_7  and  C_10 
REMARK    4  A    between atoms: C_10  and  C_11 
REMARK    5  A    between atoms: C_11  and  C_18 
REMARK    6  A    between atoms: C_11  and  N_22 
REMARK    7  A    between atoms: C_12  and  C_15 
REMARK    8  A    between atoms: N_13  and  C_15 
REMARK       I    between atoms: N_13  and  C_18 
REMARK    9  A    between atoms: C_14  and  C_16 
REMARK   10  A    between atoms: C_15  and  C_16 
ROOT
HETATM    1  C           1     -29.010  -4.762 -16.753  0.00  0.00     0.274 C 
ENDROOT
BRANCH   1   2
HETATM    2  C           1     -30.062  -4.751 -17.854  0.00  0.00     0.044 C 
BRANCH   2   3
HETATM    3  C           1     -31.015  -3.582 -17.637  0.00  0.00     0.030 C 
BRANCH   3   4
HETATM    4  C           1     -32.334  -4.100 -17.081  0.00  0.00     0.230 C 
BRANCH   4   5
HETATM    5  N           1     -33.417  -3.095 -17.343  0.00  0.00    -0.079 N 
HETATM    6  H           1     -33.066  -2.371 -18.010  0.00  0.00     0.274 HD
HETATM    7  H           1     -33.692  -2.637 -16.444  0.00  0.00     0.274 HD
HETATM    8  H           1     -34.247  -3.577 -17.756  0.00  0.00     0.274 HD
ENDBRANCH   4   5
ENDBRANCH   3   4
ENDBRANCH   2   3
ENDBRANCH   1   2
BRANCH   1   9
HETATM    9  C           1     -28.097  -5.949 -16.941  0.00  0.00     0.249 C 
HETATM   10  N           1     -26.775  -5.755 -17.237  0.00  0.00    -0.344 N 
HETATM   11  H           1     -26.410  -4.816 -17.329  0.00  0.00     0.163 HD
HETATM   12  O           1     -28.533  -7.070 -16.830  0.00  0.00    -0.271 OA
BRANCH  10  13
HETATM   13  C           1     -25.897  -6.895 -17.417  0.00  0.00     0.195 C 
BRANCH  13  14
HETATM   14  C           1     -25.090  -7.111 -16.161  0.00  0.00     0.197 C 
HETATM   15  O           1     -25.251  -6.357 -15.177  0.00  0.00    -0.646 OA
HETATM   16  O           1     -24.261  -8.045 -16.104  0.00  0.00    -0.646 OA
ENDBRANCH  13  14
BRANCH  13  17
HETATM   17  C           1     -24.957  -6.631 -18.586  0.00  0.00     0.149 C 
BRANCH  17  18
HETATM   18  C           1     -25.652  -6.982 -19.880  0.00  0.00     0.175 C 
HETATM   19  O           1     -25.115  -7.777 -20.682  0.00  0.00    -0.648 OA
HETATM   20  O           1     -26.764  -6.479 -20.149  0.00  0.00    -0.648 OA
ENDBRANCH  17  18
ENDBRANCH  13  17
ENDBRANCH  10  13
ENDBRANCH   1   9
BRANCH   1  21
HETATM   21  N           1     -28.205  -3.498 -16.819  0.00  0.00    -0.067 N 
HETATM   22  H           1     -28.825  -2.704 -17.098  0.00  0.00     0.275 HD
HETATM   23  H           1     -27.790  -3.301 -15.880  0.00  0.00     0.275 HD
HETATM   24  H           1     -27.441  -3.607 -17.523  0.00  0.00     0.275 HD
ENDBRANCH   1  21
TORSDOF 10
ENDMDL
