MODEL 1
REMARK VINA RESULT:      -8.2      0.000      0.000
REMARK  11 active torsions:
REMARK  status: ('A' for Active; 'I' for Inactive)
REMARK    1  A    between atoms: N_2  and  C_11 
REMARK    2  A    between atoms: C_4  and  C_30 
REMARK    3  A    between atoms: N_9  and  C_30 
REMARK       I    between atoms: N_9  and  C_10 
REMARK    4  A    between atoms: C_10  and  C_11 
REMARK    5  A    between atoms: C_11  and  C_12 
REMARK    6  A    between atoms: C_12  and  C_13 
REMARK    7  A    between atoms: C_16  and  O_17 
REMARK    8  A    between atoms: O_17  and  P_18 
REMARK    9  A    between atoms: P_18  and  O_19 
REMARK   10  A    between atoms: C_30  and  C_31 
REMARK   11  A    between atoms: C_31  and  C_32 
ROOT
HETATM    1  C           1     -32.842  -4.699 -16.909  0.00  0.00     0.278 C 
ENDROOT
BRANCH   1   2
HETATM    2  N           1     -31.825  -3.597 -16.911  0.00  0.00    -0.066 N 
HETATM    3  H           1     -32.219  -2.760 -17.396  0.00  0.00     0.275 HD
HETATM    4  H           1     -31.583  -3.347 -15.926  0.00  0.00     0.275 HD
HETATM    5  H           1     -30.965  -3.918 -17.411  0.00  0.00     0.275 HD
ENDBRANCH   1   2
BRANCH   1   6
HETATM    6  C           1     -33.662  -4.626 -15.644  0.00  0.00     0.249 C 
HETATM    7  O           1     -34.806  -5.013 -15.643  0.00  0.00    -0.271 OA
HETATM    8  N           1     -33.107  -4.123 -14.497  0.00  0.00    -0.344 N 
HETATM    9  H           1     -32.149  -3.800 -14.498  0.00  0.00     0.163 HD
BRANCH   8  10
HETATM   10  C           1     -33.895  -4.053 -13.282  0.00  0.00     0.191 C 
BRANCH  10  11
HETATM   11  C           1     -34.454  -2.660 -13.124  0.00  0.00     0.197 C 
HETATM   12  O           1     -35.037  -2.108 -14.083  0.00  0.00    -0.646 OA
HETATM   13  O           1     -34.333  -2.057 -12.036  0.00  0.00    -0.646 OA
ENDBRANCH  10  11
BRANCH  10  14
HETATM   14  C           1     -33.013  -4.384 -12.086  0.00  0.00     0.094 C 
BRANCH  14  15
HETATM   15  C           1     -33.675  -5.436 -11.252  0.00  0.00     0.028 A 
HETATM   16  N           1     -33.225  -6.726 -11.125  0.00  0.00    -0.354 N 
HETATM   17  C           1     -34.077  -7.312 -10.317  0.00  0.00     0.180 A 
ATOM     18  HN          1     -32.403  -7.140 -11.565  1.00  0.00     0.166 HD
HETATM   19  N           1     -35.060  -6.452  -9.918  0.00  0.00    -0.360 N 
HETATM   20  H           1     -35.859  -6.677  -9.274  0.00  0.00     0.166 HD
HETATM   21  C           1     -34.815  -5.244 -10.510  0.00  0.00     0.114 A 
ENDBRANCH  14  15
ENDBRANCH  10  14
ENDBRANCH   8  10
ENDBRANCH   1   6
BRANCH   1  22
HETATM   22  C           1     -32.132  -6.044 -16.977  0.00  0.00     0.081 C 
BRANCH  22  23
HETATM   23  C           1     -30.653  -5.835 -16.873  0.00  0.00    -0.056 A 
HETATM   24  C           1     -29.858  -5.900 -18.017  0.00  0.00     0.010 A 
HETATM   25  C           1     -28.480  -5.705 -17.920  0.00  0.00     0.038 A 
HETATM   26  C           1     -27.897  -5.446 -16.680  0.00  0.00     0.081 A 
HETATM   27  C           1     -28.693  -5.381 -15.536  0.00  0.00     0.038 A 
HETATM   28  C           1     -30.071  -5.576 -15.633  0.00  0.00     0.010 A 
BRANCH  26  29
HETATM   29  O           1     -26.559  -5.257 -16.586  0.00  0.00    -0.247 OA
BRANCH  29  30
HETATM   30  P           1     -25.662  -6.463 -15.997  0.00  0.00     0.411 P 
HETATM   31  O           1     -26.546  -7.568 -15.562  0.00  0.00    -0.624 OA
HETATM   32  O           1     -24.741  -6.951 -17.047  0.00  0.00    -0.624 OA
BRANCH  30  33
HETATM   33  O           1     -24.807  -5.932 -14.734  0.00  0.00    -0.300 OA
HETATM   34  H           1     -25.198  -5.107 -14.504  0.00  0.00     0.223 HD
ENDBRANCH  30  33
ENDBRANCH  29  30
ENDBRANCH  26  29
ENDBRANCH  22  23
ENDBRANCH   1  22
TORSDOF 11
ENDMDL
MODEL 2
REMARK VINA RESULT:      -8.2     12.931     15.382
REMARK  11 active torsions:
REMARK  status: ('A' for Active; 'I' for Inactive)
REMARK    1  A    between atoms: N_2  and  C_11 
REMARK    2  A    between atoms: C_4  and  C_30 
REMARK    3  A    between atoms: N_9  and  C_30 
REMARK       I    between atoms: N_9  and  C_10 
REMARK    4  A    between atoms: C_10  and  C_11 
REMARK    5  A    between atoms: C_11  and  C_12 
REMARK    6  A    between atoms: C_12  and  C_13 
REMARK    7  A    between atoms: C_16  and  O_17 
REMARK    8  A    between atoms: O_17  and  P_18 
REMARK    9  A    between atoms: P_18  and  O_19 
REMARK   10  A    between atoms: C_30  and  C_31 
REMARK   11  A    between atoms: C_31  and  C_32 
ROOT
HETATM    1  C           1     -21.433  -6.441  -4.874  0.00  0.00     0.278 C 
ENDROOT
BRANCH   1   2
HETATM    2  N           1     -21.888  -5.985  -3.520  0.00  0.00    -0.066 N 
HETATM    3  H           1     -21.291  -6.425  -2.784  0.00  0.00     0.275 HD
HETATM    4  H           1     -21.808  -4.945  -3.458  0.00  0.00     0.275 HD
HETATM    5  H           1     -22.885  -6.266  -3.374  0.00  0.00     0.275 HD
ENDBRANCH   1   2
BRANCH   1   6
HETATM    6  C           1     -20.743  -7.777  -4.749  0.00  0.00     0.249 C 
HETATM    7  O           1     -20.452  -8.402  -5.741  0.00  0.00    -0.271 OA
HETATM    8  N           1     -20.445  -8.280  -3.510  0.00  0.00    -0.344 N 
HETATM    9  H           1     -20.688  -7.757  -2.680  0.00  0.00     0.163 HD
BRANCH   8  10
HETATM   10  C           1     -19.781  -9.564  -3.390  0.00  0.00     0.191 C 
BRANCH  10  11
HETATM   11  C           1     -20.539 -10.433  -2.416  0.00  0.00     0.197 C 
HETATM   12  O           1     -21.721 -10.760  -2.659  0.00  0.00    -0.646 OA
HETATM   13  O           1     -19.985 -10.825  -1.367  0.00  0.00    -0.646 OA
ENDBRANCH  10  11
BRANCH  10  14
HETATM   14  C           1     -18.361  -9.356  -2.885  0.00  0.00     0.094 C 
BRANCH  14  15
HETATM   15  C           1     -17.388  -9.688  -3.973  0.00  0.00     0.028 A 
HETATM   16  N           1     -17.700  -9.739  -5.307  0.00  0.00    -0.354 N 
HETATM   17  C           1     -16.580 -10.061  -5.913  0.00  0.00     0.180 A 
ATOM     18  HN          1     -18.609  -9.564  -5.737  1.00  0.00     0.166 HD
HETATM   19  N           1     -15.558 -10.221  -5.021  0.00  0.00    -0.360 N 
HETATM   20  H           1     -14.566 -10.479  -5.253  0.00  0.00     0.166 HD
HETATM   21  C           1     -16.061  -9.984  -3.772  0.00  0.00     0.114 A 
ENDBRANCH  14  15
ENDBRANCH  10  14
ENDBRANCH   8  10
ENDBRANCH   1   6
BRANCH   1  22
HETATM   22  C           1     -20.464  -5.420  -5.453  0.00  0.00     0.081 C 
BRANCH  22  23
HETATM   23  C           1     -20.969  -4.947  -6.780  0.00  0.00    -0.056 A 
HETATM   24  C           1     -22.272  -4.460  -6.896  0.00  0.00     0.010 A 
HETATM   25  C           1     -22.743  -4.019  -8.133  0.00  0.00     0.038 A 
HETATM   26  C           1     -21.914  -4.066  -9.254  0.00  0.00     0.081 A 
HETATM   27  C           1     -20.612  -4.554  -9.137  0.00  0.00     0.038 A 
HETATM   28  C           1     -20.140  -4.995  -7.901  0.00  0.00     0.010 A 
BRANCH  26  29
HETATM   29  O           1     -22.372  -3.638 -10.454  0.00  0.00    -0.247 OA
BRANCH  29  30
HETATM   30  P           1     -23.715  -4.317 -11.040  0.00  0.00     0.411 P 
HETATM   31  O           1     -24.017  -5.549 -10.277  0.00  0.00    -0.624 OA
HETATM   32  O           1     -24.843  -3.367 -10.913  0.00  0.00    -0.624 OA
BRANCH  30  33
HETATM   33  O           1     -23.497  -4.689 -12.596  0.00  0.00    -0.300 OA
HETATM   34  H           1     -23.445  -3.860 -13.040  0.00  0.00     0.223 HD
ENDBRANCH  30  33
ENDBRANCH  29  30
ENDBRANCH  26  29
ENDBRANCH  22  23
ENDBRANCH   1  22
TORSDOF 11
ENDMDL
MODEL 3
REMARK VINA RESULT:      -8.1     12.530     15.117
REMARK  11 active torsions:
REMARK  status: ('A' for Active; 'I' for Inactive)
REMARK    1  A    between atoms: N_2  and  C_11 
REMARK    2  A    between atoms: C_4  and  C_30 
REMARK    3  A    between atoms: N_9  and  C_30 
REMARK       I    between atoms: N_9  and  C_10 
REMARK    4  A    between atoms: C_10  and  C_11 
REMARK    5  A    between atoms: C_11  and  C_12 
REMARK    6  A    between atoms: C_12  and  C_13 
REMARK    7  A    between atoms: C_16  and  O_17 
REMARK    8  A    between atoms: O_17  and  P_18 
REMARK    9  A    between atoms: P_18  and  O_19 
REMARK   10  A    between atoms: C_30  and  C_31 
REMARK   11  A    between atoms: C_31  and  C_32 
ROOT
HETATM    1  C           1     -21.416  -6.400  -4.913  0.00  0.00     0.278 C 
ENDROOT
BRANCH   1   2
HETATM    2  N           1     -21.669  -5.979  -3.496  0.00  0.00    -0.066 N 
HETATM    3  H           1     -22.468  -5.306  -3.469  0.00  0.00     0.275 HD
HETATM    4  H           1     -21.902  -6.820  -2.920  0.00  0.00     0.275 HD
HETATM    5  H           1     -20.812  -5.519  -3.111  0.00  0.00     0.275 HD
ENDBRANCH   1   2
BRANCH   1   6
HETATM    6  C           1     -20.881  -7.811  -4.932  0.00  0.00     0.249 C 
HETATM    7  O           1     -21.185  -8.560  -5.828  0.00  0.00    -0.271 OA
HETATM    8  N           1     -20.049  -8.241  -3.932  0.00  0.00    -0.344 N 
HETATM    9  H           1     -19.794  -7.613  -3.181  0.00  0.00     0.163 HD
BRANCH   8  10
HETATM   10  C           1     -19.536  -9.596  -3.950  0.00  0.00     0.191 C 
BRANCH  10  11
HETATM   11  C           1     -19.381 -10.095  -2.534  0.00  0.00     0.197 C 
HETATM   12  O           1     -18.341 -10.701  -2.194  0.00  0.00    -0.646 OA
HETATM   13  O           1     -20.292  -9.902  -1.700  0.00  0.00    -0.646 OA
ENDBRANCH  10  11
BRANCH  10  14
HETATM   14  C           1     -18.181  -9.617  -4.645  0.00  0.00     0.094 C 
BRANCH  14  15
HETATM   15  C           1     -18.172 -10.686  -5.693  0.00  0.00     0.028 A 
HETATM   16  N           1     -19.246 -11.013  -6.480  0.00  0.00    -0.354 N 
HETATM   17  C           1     -18.824 -11.986  -7.255  0.00  0.00     0.180 A 
ATOM     18  HN          1     -20.175 -10.590  -6.467  1.00  0.00     0.166 HD
HETATM   19  N           1     -17.520 -12.300  -6.997  0.00  0.00    -0.360 N 
HETATM   20  H           1     -16.953 -13.042  -7.479  0.00  0.00     0.166 HD
HETATM   21  C           1     -17.089 -11.474  -5.997  0.00  0.00     0.114 A 
ENDBRANCH  14  15
ENDBRANCH  10  14
ENDBRANCH   8  10
ENDBRANCH   1   6
BRANCH   1  22
HETATM   22  C           1     -20.397  -5.462  -5.546  0.00  0.00     0.081 C 
BRANCH  22  23
HETATM   23  C           1     -20.912  -4.982  -6.867  0.00  0.00    -0.056 A 
HETATM   24  C           1     -22.210  -4.480  -6.968  0.00  0.00     0.010 A 
HETATM   25  C           1     -22.690  -4.033  -8.199  0.00  0.00     0.038 A 
HETATM   26  C           1     -21.874  -4.087  -9.328  0.00  0.00     0.081 A 
HETATM   27  C           1     -20.576  -4.588  -9.226  0.00  0.00     0.038 A 
HETATM   28  C           1     -20.096  -5.036  -7.996  0.00  0.00     0.010 A 
BRANCH  26  29
HETATM   29  O           1     -22.340  -3.652 -10.523  0.00  0.00    -0.247 OA
BRANCH  29  30
HETATM   30  P           1     -23.691  -4.323 -11.100  0.00  0.00     0.411 P 
HETATM   31  O           1     -23.985  -5.563 -10.347  0.00  0.00    -0.624 OA
HETATM   32  O           1     -24.816  -3.374 -10.950  0.00  0.00    -0.624 OA
BRANCH  30  33
HETATM   33  O           1     -23.491  -4.679 -12.663  0.00  0.00    -0.300 OA
HETATM   34  H           1     -24.285  -4.395 -13.082  0.00  0.00     0.223 HD
ENDBRANCH  30  33
ENDBRANCH  29  30
ENDBRANCH  26  29
ENDBRANCH  22  23
ENDBRANCH   1  22
TORSDOF 11
ENDMDL
MODEL 4
REMARK VINA RESULT:      -8.0     12.183     14.411
REMARK  11 active torsions:
REMARK  status: ('A' for Active; 'I' for Inactive)
REMARK    1  A    between atoms: N_2  and  C_11 
REMARK    2  A    between atoms: C_4  and  C_30 
REMARK    3  A    between atoms: N_9  and  C_30 
REMARK       I    between atoms: N_9  and  C_10 
REMARK    4  A    between atoms: C_10  and  C_11 
REMARK    5  A    between atoms: C_11  and  C_12 
REMARK    6  A    between atoms: C_12  and  C_13 
REMARK    7  A    between atoms: C_16  and  O_17 
REMARK    8  A    between atoms: O_17  and  P_18 
REMARK    9  A    between atoms: P_18  and  O_19 
REMARK   10  A    between atoms: C_30  and  C_31 
REMARK   11  A    between atoms: C_31  and  C_32 
ROOT
HETATM    1  C           1     -21.615  -6.488  -4.817  0.00  0.00     0.278 C 
ENDROOT
BRANCH   1   2
HETATM    2  N           1     -21.952  -6.007  -3.436  0.00  0.00    -0.066 N 
HETATM    3  H           1     -21.087  -5.994  -2.850  0.00  0.00     0.275 HD
HETATM    4  H           1     -22.349  -5.042  -3.492  0.00  0.00     0.275 HD
HETATM    5  H           1     -22.655  -6.650  -3.006  0.00  0.00     0.275 HD
ENDBRANCH   1   2
BRANCH   1   6
HETATM    6  C           1     -21.084  -7.898  -4.742  0.00  0.00     0.249 C 
HETATM    7  O           1     -20.391  -8.330  -5.632  0.00  0.00    -0.271 OA
HETATM    8  N           1     -21.385  -8.687  -3.664  0.00  0.00    -0.344 N 
HETATM    9  H           1     -21.965  -8.326  -2.919  0.00  0.00     0.163 HD
BRANCH   8  10
HETATM   10  C           1     -20.875 -10.042  -3.593  0.00  0.00     0.191 C 
BRANCH  10  11
HETATM   11  C           1     -21.928 -11.004  -4.087  0.00  0.00     0.197 C 
HETATM   12  O           1     -21.686 -11.751  -5.060  0.00  0.00    -0.646 OA
HETATM   13  O           1     -23.043 -11.053  -3.523  0.00  0.00    -0.646 OA
ENDBRANCH  10  11
BRANCH  10  14
HETATM   14  C           1     -20.519 -10.376  -2.151  0.00  0.00     0.094 C 
BRANCH  14  15
HETATM   15  C           1     -21.304  -9.498  -1.226  0.00  0.00     0.028 A 
HETATM   16  N           1     -22.580  -9.762  -0.798  0.00  0.00    -0.354 N 
HETATM   17  C           1     -22.895  -8.759  -0.012  0.00  0.00     0.180 A 
ATOM     18  HN          1     -23.160 -10.566  -1.039  1.00  0.00     0.166 HD
HETATM   19  N           1     -21.873  -7.858   0.083  0.00  0.00    -0.360 N 
HETATM   20  H           1     -21.877  -6.971   0.648  0.00  0.00     0.166 HD
HETATM   21  C           1     -20.845  -8.319  -0.690  0.00  0.00     0.114 A 
ENDBRANCH  14  15
ENDBRANCH  10  14
ENDBRANCH   8  10
ENDBRANCH   1   6
BRANCH   1  22
HETATM   22  C           1     -20.558  -5.578  -5.426  0.00  0.00     0.081 C 
BRANCH  22  23
HETATM   23  C           1     -21.042  -5.062  -6.745  0.00  0.00    -0.056 A 
HETATM   24  C           1     -22.321  -4.517  -6.853  0.00  0.00     0.010 A 
HETATM   25  C           1     -22.773  -4.036  -8.083  0.00  0.00     0.038 A 
HETATM   26  C           1     -21.946  -4.102  -9.204  0.00  0.00     0.081 A 
HETATM   27  C           1     -20.667  -4.647  -9.095  0.00  0.00     0.038 A 
HETATM   28  C           1     -20.215  -5.127  -7.867  0.00  0.00     0.010 A 
BRANCH  26  29
HETATM   29  O           1     -22.384  -3.635 -10.398  0.00  0.00    -0.247 OA
BRANCH  29  30
HETATM   30  P           1     -23.701  -4.314 -11.041  0.00  0.00     0.411 P 
HETATM   31  O           1     -24.010  -5.569 -10.319  0.00  0.00    -0.624 OA
HETATM   32  O           1     -24.844  -3.382 -10.924  0.00  0.00    -0.624 OA
BRANCH  30  33
HETATM   33  O           1     -23.431  -4.644 -12.599  0.00  0.00    -0.300 OA
HETATM   34  H           1     -22.569  -5.022 -12.622  0.00  0.00     0.223 HD
ENDBRANCH  30  33
ENDBRANCH  29  30
ENDBRANCH  26  29
ENDBRANCH  22  23
ENDBRANCH   1  22
TORSDOF 11
ENDMDL
MODEL 5
REMARK VINA RESULT:      -7.9     12.160     14.136
REMARK  11 active torsions:
REMARK  status: ('A' for Active; 'I' for Inactive)
REMARK    1  A    between atoms: N_2  and  C_11 
REMARK    2  A    between atoms: C_4  and  C_30 
REMARK    3  A    between atoms: N_9  and  C_30 
REMARK       I    between atoms: N_9  and  C_10 
REMARK    4  A    between atoms: C_10  and  C_11 
REMARK    5  A    between atoms: C_11  and  C_12 
REMARK    6  A    between atoms: C_12  and  C_13 
REMARK    7  A    between atoms: C_16  and  O_17 
REMARK    8  A    between atoms: O_17  and  P_18 
REMARK    9  A    between atoms: P_18  and  O_19 
REMARK   10  A    between atoms: C_30  and  C_31 
REMARK   11  A    between atoms: C_31  and  C_32 
ROOT
HETATM    1  C           1     -20.137  -6.393  -5.449  0.00  0.00     0.278 C 
ENDROOT
BRANCH   1   2
HETATM    2  N           1     -20.317  -7.004  -6.807  0.00  0.00    -0.066 N 
HETATM    3  H           1     -19.489  -7.600  -7.034  0.00  0.00     0.275 HD
HETATM    4  H           1     -21.181  -7.592  -6.812  0.00  0.00     0.275 HD
HETATM    5  H           1     -20.407  -6.245  -7.521  0.00  0.00     0.275 HD
ENDBRANCH   1   2
BRANCH   1   6
HETATM    6  C           1     -21.170  -6.955  -4.504  0.00  0.00     0.249 C 
HETATM    7  O           1     -22.321  -7.056  -4.858  0.00  0.00    -0.271 OA
HETATM    8  N           1     -20.803  -7.353  -3.246  0.00  0.00    -0.344 N 
HETATM    9  H           1     -19.840  -7.268  -2.949  0.00  0.00     0.163 HD
BRANCH   8  10
HETATM   10  C           1     -21.797  -7.892  -2.338  0.00  0.00     0.191 C 
BRANCH  10  11
HETATM   11  C           1     -22.171  -6.843  -1.319  0.00  0.00     0.197 C 
HETATM   12  O           1     -22.432  -5.678  -1.690  0.00  0.00    -0.646 OA
HETATM   13  O           1     -22.219  -7.139  -0.106  0.00  0.00    -0.646 OA
ENDBRANCH  10  11
BRANCH  10  14
HETATM   14  C           1     -21.224  -9.109  -1.624  0.00  0.00     0.094 C 
BRANCH  14  15
HETATM   15  C           1     -22.330 -10.066  -1.300  0.00  0.00     0.028 A 
HETATM   16  N           1     -22.889 -10.215  -0.057  0.00  0.00    -0.354 N 
HETATM   17  C           1     -23.810 -11.140  -0.201  0.00  0.00     0.180 A 
ATOM     18  HN          1     -22.643  -9.714   0.797  1.00  0.00     0.166 HD
HETATM   19  N           1     -23.865 -11.594  -1.488  0.00  0.00    -0.360 N 
HETATM   20  H           1     -24.515 -12.332  -1.858  0.00  0.00     0.166 HD
HETATM   21  C           1     -22.921 -10.914  -2.204  0.00  0.00     0.114 A 
ENDBRANCH  14  15
ENDBRANCH  10  14
ENDBRANCH   8  10
ENDBRANCH   1   6
BRANCH   1  22
HETATM   22  C           1     -20.305  -4.884  -5.546  0.00  0.00     0.081 C 
BRANCH  22  23
HETATM   23  C           1     -20.850  -4.527  -6.894  0.00  0.00    -0.056 A 
HETATM   24  C           1     -22.219  -4.311  -7.057  0.00  0.00     0.010 A 
HETATM   25  C           1     -22.727  -3.979  -8.313  0.00  0.00     0.038 A 
HETATM   26  C           1     -21.868  -3.863  -9.406  0.00  0.00     0.081 A 
HETATM   27  C           1     -20.500  -4.079  -9.242  0.00  0.00     0.038 A 
HETATM   28  C           1     -19.991  -4.411  -7.987  0.00  0.00     0.010 A 
BRANCH  26  29
HETATM   29  O           1     -22.362  -3.541 -10.625  0.00  0.00    -0.247 OA
BRANCH  29  30
HETATM   30  P           1     -23.711  -4.279 -11.117  0.00  0.00     0.411 P 
HETATM   31  O           1     -23.931  -5.496 -10.303  0.00  0.00    -0.624 OA
HETATM   32  O           1     -24.861  -3.362 -10.957  0.00  0.00    -0.624 OA
BRANCH  30  33
HETATM   33  O           1     -23.564  -4.692 -12.671  0.00  0.00    -0.300 OA
HETATM   34  H           1     -22.665  -4.514 -12.887  0.00  0.00     0.223 HD
ENDBRANCH  30  33
ENDBRANCH  29  30
ENDBRANCH  26  29
ENDBRANCH  22  23
ENDBRANCH   1  22
TORSDOF 11
ENDMDL
MODEL 6
REMARK VINA RESULT:      -7.8     12.699     15.168
REMARK  11 active torsions:
REMARK  status: ('A' for Active; 'I' for Inactive)
REMARK    1  A    between atoms: N_2  and  C_11 
REMARK    2  A    between atoms: C_4  and  C_30 
REMARK    3  A    between atoms: N_9  and  C_30 
REMARK       I    between atoms: N_9  and  C_10 
REMARK    4  A    between atoms: C_10  and  C_11 
REMARK    5  A    between atoms: C_11  and  C_12 
REMARK    6  A    between atoms: C_12  and  C_13 
REMARK    7  A    between atoms: C_16  and  O_17 
REMARK    8  A    between atoms: O_17  and  P_18 
REMARK    9  A    between atoms: P_18  and  O_19 
REMARK   10  A    between atoms: C_30  and  C_31 
REMARK   11  A    between atoms: C_31  and  C_32 
ROOT
HETATM    1  C           1     -21.152  -6.671  -5.191  0.00  0.00     0.278 C 
ENDROOT
BRANCH   1   2
HETATM    2  N           1     -21.547  -6.490  -3.755  0.00  0.00    -0.066 N 
HETATM    3  H           1     -20.770  -6.814  -3.136  0.00  0.00     0.275 HD
HETATM    4  H           1     -21.740  -5.479  -3.573  0.00  0.00     0.275 HD
HETATM    5  H           1     -22.407  -7.050  -3.557  0.00  0.00     0.275 HD
ENDBRANCH   1   2
BRANCH   1   6
HETATM    6  C           1     -20.313  -7.918  -5.328  0.00  0.00     0.249 C 
HETATM    7  O           1     -19.269  -7.879  -5.935  0.00  0.00    -0.271 OA
HETATM    8  N           1     -20.734  -9.092  -4.763  0.00  0.00    -0.344 N 
HETATM    9  H           1     -21.607  -9.125  -4.255  0.00  0.00     0.163 HD
BRANCH   8  10
HETATM   10  C           1     -19.927 -10.289  -4.895  0.00  0.00     0.191 C 
BRANCH  10  11
HETATM   11  C           1     -20.722 -11.356  -5.607  0.00  0.00     0.197 C 
HETATM   12  O           1     -21.308 -11.089  -6.679  0.00  0.00    -0.646 OA
HETATM   13  O           1     -20.795 -12.508  -5.125  0.00  0.00    -0.646 OA
ENDBRANCH  10  11
BRANCH  10  14
HETATM   14  C           1     -19.531 -10.790  -3.513  0.00  0.00     0.094 C 
BRANCH  14  15
HETATM   15  C           1     -18.096 -10.453  -3.250  0.00  0.00     0.028 A 
HETATM   16  N           1     -17.326  -9.651  -4.052  0.00  0.00    -0.354 N 
HETATM   17  C           1     -16.147  -9.612  -3.473  0.00  0.00     0.180 A 
ATOM     18  HN          1     -17.608  -9.184  -4.914  1.00  0.00     0.166 HD
HETATM   19  N           1     -16.128 -10.359  -2.330  0.00  0.00    -0.360 N 
HETATM   20  H           1     -15.306 -10.490  -1.687  0.00  0.00     0.166 HD
HETATM   21  C           1     -17.371 -10.904  -2.173  0.00  0.00     0.114 A 
ENDBRANCH  14  15
ENDBRANCH  10  14
ENDBRANCH   8  10
ENDBRANCH   1   6
BRANCH   1  22
HETATM   22  C           1     -20.349  -5.464  -5.652  0.00  0.00     0.081 C 
BRANCH  22  23
HETATM   23  C           1     -20.883  -4.979  -6.964  0.00  0.00    -0.056 A 
HETATM   24  C           1     -20.123  -5.131  -8.124  0.00  0.00     0.010 A 
HETATM   25  C           1     -20.621  -4.678  -9.347  0.00  0.00     0.038 A 
HETATM   26  C           1     -21.876  -4.074  -9.409  0.00  0.00     0.081 A 
HETATM   27  C           1     -22.635  -3.922  -8.248  0.00  0.00     0.038 A 
HETATM   28  C           1     -22.138  -4.374  -7.026  0.00  0.00     0.010 A 
BRANCH  26  29
HETATM   29  O           1     -22.359  -3.635 -10.596  0.00  0.00    -0.247 OA
BRANCH  29  30
HETATM   30  P           1     -23.731  -4.287 -11.144  0.00  0.00     0.411 P 
HETATM   31  O           1     -24.056  -5.492 -10.349  0.00  0.00    -0.624 OA
HETATM   32  O           1     -24.828  -3.302 -11.022  0.00  0.00    -0.624 OA
BRANCH  30  33
HETATM   33  O           1     -23.548  -4.701 -12.695  0.00  0.00    -0.300 OA
HETATM   34  H           1     -24.424  -4.775 -13.032  0.00  0.00     0.223 HD
ENDBRANCH  30  33
ENDBRANCH  29  30
ENDBRANCH  26  29
ENDBRANCH  22  23
ENDBRANCH   1  22
TORSDOF 11
ENDMDL
MODEL 7
REMARK VINA RESULT:      -7.6     11.973     14.553
REMARK  11 active torsions:
REMARK  status: ('A' for Active; 'I' for Inactive)
REMARK    1  A    between atoms: N_2  and  C_11 
REMARK    2  A    between atoms: C_4  and  C_30 
REMARK    3  A    between atoms: N_9  and  C_30 
REMARK       I    between atoms: N_9  and  C_10 
REMARK    4  A    between atoms: C_10  and  C_11 
REMARK    5  A    between atoms: C_11  and  C_12 
REMARK    6  A    between atoms: C_12  and  C_13 
REMARK    7  A    between atoms: C_16  and  O_17 
REMARK    8  A    between atoms: O_17  and  P_18 
REMARK    9  A    between atoms: P_18  and  O_19 
REMARK   10  A    between atoms: C_30  and  C_31 
REMARK   11  A    between atoms: C_31  and  C_32 
ROOT
HETATM    1  C           1     -21.448  -6.575  -4.854  0.00  0.00     0.278 C 
ENDROOT
BRANCH   1   2
HETATM    2  N           1     -21.990  -5.941  -3.608  0.00  0.00    -0.066 N 
HETATM    3  H           1     -21.381  -6.189  -2.796  0.00  0.00     0.275 HD
HETATM    4  H           1     -22.009  -4.903  -3.725  0.00  0.00     0.275 HD
HETATM    5  H           1     -22.961  -6.290  -3.434  0.00  0.00     0.275 HD
ENDBRANCH   1   2
BRANCH   1   6
HETATM    6  C           1     -20.812  -7.899  -4.510  0.00  0.00     0.249 C 
HETATM    7  O           1     -20.812  -8.290  -3.367  0.00  0.00    -0.271 OA
HETATM    8  N           1     -20.237  -8.659  -5.493  0.00  0.00    -0.344 N 
HETATM    9  H           1     -20.237  -8.333  -6.451  0.00  0.00     0.163 HD
BRANCH   8  10
HETATM   10  C           1     -19.627  -9.932  -5.162  0.00  0.00     0.191 C 
BRANCH  10  11
HETATM   11  C           1     -18.319 -10.071  -5.903  0.00  0.00     0.197 C 
HETATM   12  O           1     -17.864  -9.106  -6.555  0.00  0.00    -0.646 OA
HETATM   13  O           1     -17.691 -11.151  -5.865  0.00  0.00    -0.646 OA
ENDBRANCH  10  11
BRANCH  10  14
HETATM   14  C           1     -20.561 -11.064  -5.566  0.00  0.00     0.094 C 
BRANCH  14  15
HETATM   15  C           1     -21.267 -11.587  -4.354  0.00  0.00     0.028 A 
HETATM   16  N           1     -22.413 -11.048  -3.827  0.00  0.00    -0.354 N 
HETATM   17  C           1     -22.698 -11.793  -2.784  0.00  0.00     0.180 A 
ATOM     18  HN          1     -22.933 -10.241  -4.172  1.00  0.00     0.166 HD
HETATM   19  N           1     -21.781 -12.791  -2.617  0.00  0.00    -0.360 N 
HETATM   20  H           1     -21.786 -13.518  -1.858  0.00  0.00     0.166 HD
HETATM   21  C           1     -20.857 -12.672  -3.617  0.00  0.00     0.114 A 
ENDBRANCH  14  15
ENDBRANCH  10  14
ENDBRANCH   8  10
ENDBRANCH   1   6
BRANCH   1  22
HETATM   22  C           1     -20.404  -5.657  -5.476  0.00  0.00     0.081 C 
BRANCH  22  23
HETATM   23  C           1     -20.915  -5.131  -6.781  0.00  0.00    -0.056 A 
HETATM   24  C           1     -20.124  -5.220  -7.927  0.00  0.00     0.010 A 
HETATM   25  C           1     -20.600  -4.729  -9.143  0.00  0.00     0.038 A 
HETATM   26  C           1     -21.866  -4.149  -9.214  0.00  0.00     0.081 A 
HETATM   27  C           1     -22.656  -4.060  -8.068  0.00  0.00     0.038 A 
HETATM   28  C           1     -22.181  -4.550  -6.852  0.00  0.00     0.010 A 
BRANCH  26  29
HETATM   29  O           1     -22.328  -3.673 -10.395  0.00  0.00    -0.247 OA
BRANCH  29  30
HETATM   30  P           1     -23.672  -4.328 -11.003  0.00  0.00     0.411 P 
HETATM   31  O           1     -23.975  -5.586 -10.284  0.00  0.00    -0.624 OA
HETATM   32  O           1     -24.798  -3.382 -10.843  0.00  0.00    -0.624 OA
BRANCH  30  33
HETATM   33  O           1     -23.454  -4.646 -12.572  0.00  0.00    -0.300 OA
HETATM   34  H           1     -24.307  -4.883 -12.893  0.00  0.00     0.223 HD
ENDBRANCH  30  33
ENDBRANCH  29  30
ENDBRANCH  26  29
ENDBRANCH  22  23
ENDBRANCH   1  22
TORSDOF 11
ENDMDL
MODEL 8
REMARK VINA RESULT:      -7.6     12.598     14.997
REMARK  11 active torsions:
REMARK  status: ('A' for Active; 'I' for Inactive)
REMARK    1  A    between atoms: N_2  and  C_11 
REMARK    2  A    between atoms: C_4  and  C_30 
REMARK    3  A    between atoms: N_9  and  C_30 
REMARK       I    between atoms: N_9  and  C_10 
REMARK    4  A    between atoms: C_10  and  C_11 
REMARK    5  A    between atoms: C_11  and  C_12 
REMARK    6  A    between atoms: C_12  and  C_13 
REMARK    7  A    between atoms: C_16  and  O_17 
REMARK    8  A    between atoms: O_17  and  P_18 
REMARK    9  A    between atoms: P_18  and  O_19 
REMARK   10  A    between atoms: C_30  and  C_31 
REMARK   11  A    between atoms: C_31  and  C_32 
ROOT
HETATM    1  C           1     -21.416  -6.715  -4.943  0.00  0.00     0.278 C 
ENDROOT
BRANCH   1   2
HETATM    2  N           1     -22.795  -6.277  -4.547  0.00  0.00    -0.066 N 
HETATM    3  H           1     -22.856  -6.217  -3.505  0.00  0.00     0.275 HD
HETATM    4  H           1     -22.994  -5.339  -4.962  0.00  0.00     0.275 HD
HETATM    5  H           1     -23.494  -6.970  -4.898  0.00  0.00     0.275 HD
ENDBRANCH   1   2
BRANCH   1   6
HETATM    6  C           1     -20.757  -7.415  -3.780  0.00  0.00     0.249 C 
HETATM    7  O           1     -20.860  -6.962  -2.665  0.00  0.00    -0.271 OA
HETATM    8  N           1     -20.044  -8.565  -3.988  0.00  0.00    -0.344 N 
HETATM    9  H           1     -19.957  -8.945  -4.922  0.00  0.00     0.163 HD
BRANCH   8  10
HETATM   10  C           1     -19.411  -9.238  -2.871  0.00  0.00     0.191 C 
BRANCH  10  11
HETATM   11  C           1     -17.996  -9.611  -3.243  0.00  0.00     0.197 C 
HETATM   12  O           1     -17.207 -10.023  -2.365  0.00  0.00    -0.646 OA
HETATM   13  O           1     -17.614  -9.508  -4.429  0.00  0.00    -0.646 OA
ENDBRANCH  10  11
BRANCH  10  14
HETATM   14  C           1     -20.193 -10.498  -2.527  0.00  0.00     0.094 C 
BRANCH  14  15
HETATM   15  C           1     -21.305 -10.156  -1.584  0.00  0.00     0.028 A 
HETATM   16  N           1     -21.211  -9.234  -0.573  0.00  0.00    -0.354 N 
HETATM   17  C           1     -22.389  -9.237   0.008  0.00  0.00     0.180 A 
ATOM     18  HN          1     -20.400  -8.667  -0.325  1.00  0.00     0.166 HD
HETATM   19  N           1     -23.238 -10.125  -0.589  0.00  0.00    -0.360 N 
HETATM   20  H           1     -24.234 -10.315  -0.311  0.00  0.00     0.166 HD
HETATM   21  C           1     -22.556 -10.722  -1.612  0.00  0.00     0.114 A 
ENDBRANCH  14  15
ENDBRANCH  10  14
ENDBRANCH   8  10
ENDBRANCH   1   6
BRANCH   1  22
HETATM   22  C           1     -20.591  -5.497  -5.337  0.00  0.00     0.081 C 
BRANCH  22  23
HETATM   23  C           1     -20.979  -5.054  -6.713  0.00  0.00    -0.056 A 
HETATM   24  C           1     -20.266  -5.515  -7.820  0.00  0.00     0.010 A 
HETATM   25  C           1     -20.627  -5.102  -9.103  0.00  0.00     0.038 A 
HETATM   26  C           1     -21.699  -4.228  -9.279  0.00  0.00     0.081 A 
HETATM   27  C           1     -22.412  -3.768  -8.171  0.00  0.00     0.038 A 
HETATM   28  C           1     -22.051  -4.180  -6.889  0.00  0.00     0.010 A 
BRANCH  26  29
HETATM   29  O           1     -22.050  -3.827 -10.524  0.00  0.00    -0.247 OA
BRANCH  29  30
HETATM   30  P           1     -23.497  -4.273 -11.085  0.00  0.00     0.411 P 
HETATM   31  O           1     -23.975  -5.454 -10.332  0.00  0.00    -0.624 OA
HETATM   32  O           1     -24.456  -3.158 -10.918  0.00  0.00    -0.624 OA
BRANCH  30  33
HETATM   33  O           1     -23.376  -4.648 -12.651  0.00  0.00    -0.300 OA
HETATM   34  H           1     -24.247  -4.550 -12.994  0.00  0.00     0.223 HD
ENDBRANCH  30  33
ENDBRANCH  29  30
ENDBRANCH  26  29
ENDBRANCH  22  23
ENDBRANCH   1  22
TORSDOF 11
ENDMDL
MODEL 9
REMARK VINA RESULT:      -7.4     13.093     15.474
REMARK  11 active torsions:
REMARK  status: ('A' for Active; 'I' for Inactive)
REMARK    1  A    between atoms: N_2  and  C_11 
REMARK    2  A    between atoms: C_4  and  C_30 
REMARK    3  A    between atoms: N_9  and  C_30 
REMARK       I    between atoms: N_9  and  C_10 
REMARK    4  A    between atoms: C_10  and  C_11 
REMARK    5  A    between atoms: C_11  and  C_12 
REMARK    6  A    between atoms: C_12  and  C_13 
REMARK    7  A    between atoms: C_16  and  O_17 
REMARK    8  A    between atoms: O_17  and  P_18 
REMARK    9  A    between atoms: P_18  and  O_19 
REMARK   10  A    between atoms: C_30  and  C_31 
REMARK   11  A    between atoms: C_31  and  C_32 
ROOT
HETATM    1  C           1     -20.975  -6.856  -4.349  0.00  0.00     0.278 C 
ENDROOT
BRANCH   1   2
HETATM    2  N           1     -22.079  -6.211  -3.565  0.00  0.00    -0.066 N 
HETATM    3  H           1     -22.776  -5.793  -4.221  0.00  0.00     0.275 HD
HETATM    4  H           1     -22.548  -6.930  -2.969  0.00  0.00     0.275 HD
HETATM    5  H           1     -21.679  -5.460  -2.955  0.00  0.00     0.275 HD
ENDBRANCH   1   2
BRANCH   1   6
HETATM    6  C           1     -21.170  -6.572  -5.818  0.00  0.00     0.249 C 
HETATM    7  O           1     -21.374  -7.481  -6.587  0.00  0.00    -0.271 OA
HETATM    8  N           1     -21.118  -5.284  -6.279  0.00  0.00    -0.344 N 
HETATM    9  H           1     -20.948  -4.522  -5.636  0.00  0.00     0.163 HD
BRANCH   8  10
HETATM   10  C           1     -21.306  -5.011  -7.691  0.00  0.00     0.191 C 
BRANCH  10  11
HETATM   11  C           1     -19.969  -4.727  -8.331  0.00  0.00     0.197 C 
HETATM   12  O           1     -19.836  -4.822  -9.571  0.00  0.00    -0.646 OA
HETATM   13  O           1     -18.993  -4.397  -7.622  0.00  0.00    -0.646 OA
ENDBRANCH  10  11
BRANCH  10  14
HETATM   14  C           1     -22.215  -3.801  -7.858  0.00  0.00     0.094 C 
BRANCH  14  15
HETATM   15  C           1     -23.100  -4.000  -9.049  0.00  0.00     0.028 A 
HETATM   16  N           1     -22.815  -4.834 -10.100  0.00  0.00    -0.354 N 
HETATM   17  C           1     -23.834  -4.718 -10.920  0.00  0.00     0.180 A 
ATOM     18  HN          1     -21.988  -5.420 -10.219  1.00  0.00     0.166 HD
HETATM   19  N           1     -24.764  -3.841 -10.440  0.00  0.00    -0.360 N 
HETATM   20  H           1     -25.667  -3.576 -10.908  0.00  0.00     0.166 HD
HETATM   21  C           1     -24.307  -3.373  -9.240  0.00  0.00     0.114 A 
ENDBRANCH  14  15
ENDBRANCH  10  14
ENDBRANCH   8  10
ENDBRANCH   1   6
BRANCH   1  22
HETATM   22  C           1     -20.999  -8.360  -4.115  0.00  0.00     0.081 C 
BRANCH  22  23
HETATM   23  C           1     -19.596  -8.875  -4.029  0.00  0.00    -0.056 A 
HETATM   24  C           1     -18.921  -9.256  -5.189  0.00  0.00     0.010 A 
HETATM   25  C           1     -17.613  -9.736  -5.108  0.00  0.00     0.038 A 
HETATM   26  C           1     -16.981  -9.837  -3.869  0.00  0.00     0.081 A 
HETATM   27  C           1     -17.657  -9.456  -2.710  0.00  0.00     0.038 A 
HETATM   28  C           1     -18.964  -8.975  -2.789  0.00  0.00     0.010 A 
BRANCH  26  29
HETATM   29  O           1     -15.712 -10.303  -3.791  0.00  0.00    -0.247 OA
BRANCH  29  30
HETATM   30  P           1     -15.467 -11.880  -4.038  0.00  0.00     0.411 P 
HETATM   31  O           1     -14.261 -12.312  -3.296  0.00  0.00    -0.624 OA
HETATM   32  O           1     -16.642 -12.642  -3.561  0.00  0.00    -0.624 OA
BRANCH  30  33
HETATM   33  O           1     -15.252 -12.151  -5.616  0.00  0.00    -0.300 OA
HETATM   34  H           1     -14.523 -12.745  -5.664  0.00  0.00     0.223 HD
ENDBRANCH  30  33
ENDBRANCH  29  30
ENDBRANCH  26  29
ENDBRANCH  22  23
ENDBRANCH   1  22
TORSDOF 11
ENDMDL
