MODEL 1
REMARK VINA RESULT:      -7.7      0.000      0.000
REMARK  12 active torsions:
REMARK  status: ('A' for Active; 'I' for Inactive)
REMARK    1  A    between atoms: C_2  and  C_4 
REMARK    2  A    between atoms: C_4  and  C_5 
REMARK    3  A    between atoms: C_5  and  C_6 
REMARK    4  A    between atoms: C_6  and  C_7 
REMARK    5  A    between atoms: C_6  and  N_10 
REMARK       I    between atoms: N_10  and  C_11 
REMARK    6  A    between atoms: C_11  and  C_12 
REMARK    7  A    between atoms: C_12  and  C_13 
REMARK    8  A    between atoms: C_12  and  N_25 
REMARK    9  A    between atoms: C_13  and  C_14 
REMARK   10  A    between atoms: C_17  and  O_18 
REMARK   11  A    between atoms: O_18  and  P_19 
REMARK   12  A    between atoms: P_19  and  O_20 
ROOT
HETATM    1  C           1     -33.715  -4.839 -15.459  0.00  0.00     0.278 C 
ENDROOT
BRANCH   1   2
HETATM    2  C           1     -34.199  -3.949 -14.340  0.00  0.00     0.249 C 
HETATM    3  N           1     -34.142  -4.388 -13.044  0.00  0.00    -0.345 N 
HETATM    4  H           1     -33.776  -5.307 -12.836  0.00  0.00     0.163 HD
HETATM    5  O           1     -34.635  -2.851 -14.588  0.00  0.00    -0.271 OA
BRANCH   3   6
HETATM    6  C           1     -34.607  -3.532 -11.969  0.00  0.00     0.186 C 
BRANCH   6   7
HETATM    7  C           1     -35.334  -4.372 -10.927  0.00  0.00     0.046 C 
BRANCH   7   8
HETATM    8  C           1     -34.345  -5.316 -10.256  0.00  0.00     0.116 C 
BRANCH   8   9
HETATM    9  C           1     -34.713  -6.744 -10.578  0.00  0.00     0.172 C 
HETATM   10  O           1     -35.092  -7.047 -11.729  0.00  0.00    -0.648 OA
HETATM   11  O           1     -34.636  -7.623  -9.692  0.00  0.00    -0.648 OA
ENDBRANCH   8   9
ENDBRANCH   7   8
ENDBRANCH   6   7
BRANCH   6  12
HETATM   12  C           1     -33.426  -2.846 -11.327  0.00  0.00     0.196 C 
HETATM   13  O           1     -32.276  -3.310 -11.478  0.00  0.00    -0.646 OA
HETATM   14  O           1     -33.599  -1.814 -10.643  0.00  0.00    -0.646 OA
ENDBRANCH   6  12
ENDBRANCH   3   6
ENDBRANCH   1   2
BRANCH   1  15
HETATM   15  C           1     -33.191  -3.980 -16.601  0.00  0.00     0.081 C 
BRANCH  15  16
HETATM   16  C           1     -31.866  -4.506 -17.056  0.00  0.00    -0.056 A 
HETATM   17  C           1     -30.919  -3.636 -17.598  0.00  0.00     0.010 A 
HETATM   18  C           1     -29.684  -4.127 -18.022  0.00  0.00     0.038 A 
HETATM   19  C           1     -29.396  -5.487 -17.904  0.00  0.00     0.081 A 
HETATM   20  C           1     -30.342  -6.356 -17.364  0.00  0.00     0.038 A 
HETATM   21  C           1     -31.577  -5.866 -16.940  0.00  0.00     0.010 A 
BRANCH  19  22
HETATM   22  O           1     -28.196  -5.963 -18.318  0.00  0.00    -0.247 OA
BRANCH  22  23
HETATM   23  P           1     -27.016  -6.096 -17.224  0.00  0.00     0.411 P 
HETATM   24  O           1     -25.735  -6.370 -17.912  0.00  0.00    -0.624 OA
HETATM   25  O           1     -26.907  -4.833 -16.460  0.00  0.00    -0.624 OA
BRANCH  23  26
HETATM   26  O           1     -27.353  -7.309 -16.213  0.00  0.00    -0.300 OA
HETATM   27  H           1     -27.396  -6.911 -15.360  0.00  0.00     0.223 HD
ENDBRANCH  23  26
ENDBRANCH  22  23
ENDBRANCH  19  22
ENDBRANCH  15  16
ENDBRANCH   1  15
BRANCH   1  28
HETATM   28  N           1     -34.853  -5.685 -15.951  0.00  0.00    -0.066 N 
HETATM   29  H           1     -34.517  -6.303 -16.724  0.00  0.00     0.275 HD
HETATM   30  H           1     -35.213  -6.273 -15.167  0.00  0.00     0.275 HD
HETATM   31  H           1     -35.617  -5.067 -16.305  0.00  0.00     0.275 HD
ENDBRANCH   1  28
TORSDOF 12
ENDMDL
MODEL 2
REMARK VINA RESULT:      -7.6     12.755     15.029
REMARK  12 active torsions:
REMARK  status: ('A' for Active; 'I' for Inactive)
REMARK    1  A    between atoms: C_2  and  C_4 
REMARK    2  A    between atoms: C_4  and  C_5 
REMARK    3  A    between atoms: C_5  and  C_6 
REMARK    4  A    between atoms: C_6  and  C_7 
REMARK    5  A    between atoms: C_6  and  N_10 
REMARK       I    between atoms: N_10  and  C_11 
REMARK    6  A    between atoms: C_11  and  C_12 
REMARK    7  A    between atoms: C_12  and  C_13 
REMARK    8  A    between atoms: C_12  and  N_25 
REMARK    9  A    between atoms: C_13  and  C_14 
REMARK   10  A    between atoms: C_17  and  O_18 
REMARK   11  A    between atoms: O_18  and  P_19 
REMARK   12  A    between atoms: P_19  and  O_20 
ROOT
HETATM    1  C           1     -22.439  -4.984  -6.308  0.00  0.00     0.278 C 
ENDROOT
BRANCH   1   2
HETATM    2  C           1     -22.398  -4.276  -7.641  0.00  0.00     0.249 C 
HETATM    3  N           1     -23.348  -4.548  -8.589  0.00  0.00    -0.345 N 
HETATM    4  H           1     -24.077  -5.223  -8.398  0.00  0.00     0.163 HD
HETATM    5  O           1     -21.529  -3.470  -7.870  0.00  0.00    -0.271 OA
BRANCH   3   6
HETATM    6  C           1     -23.308  -3.867  -9.869  0.00  0.00     0.186 C 
BRANCH   6   7
HETATM    7  C           1     -22.943  -4.861 -10.964  0.00  0.00     0.046 C 
BRANCH   7   8
HETATM    8  C           1     -21.928  -4.230 -11.907  0.00  0.00     0.116 C 
BRANCH   8   9
HETATM    9  C           1     -20.661  -3.917 -11.148  0.00  0.00     0.172 C 
HETATM   10  O           1     -20.020  -4.836 -10.597  0.00  0.00    -0.648 OA
HETATM   11  O           1     -20.254  -2.737 -11.073  0.00  0.00    -0.648 OA
ENDBRANCH   8   9
ENDBRANCH   7   8
ENDBRANCH   6   7
BRANCH   6  12
HETATM   12  C           1     -24.663  -3.272 -10.163  0.00  0.00     0.196 C 
HETATM   13  O           1     -25.282  -2.655  -9.270  0.00  0.00    -0.646 OA
HETATM   14  O           1     -25.166  -3.395 -11.301  0.00  0.00    -0.646 OA
ENDBRANCH   6  12
ENDBRANCH   3   6
ENDBRANCH   1   2
BRANCH   1  15
HETATM   15  C           1     -21.594  -6.248  -6.379  0.00  0.00     0.081 C 
BRANCH  15  16
HETATM   16  C           1     -21.416  -6.808  -5.002  0.00  0.00    -0.056 A 
HETATM   17  C           1     -21.496  -8.185  -4.794  0.00  0.00     0.010 A 
HETATM   18  C           1     -21.330  -8.707  -3.511  0.00  0.00     0.038 A 
HETATM   19  C           1     -21.084  -7.852  -2.437  0.00  0.00     0.081 A 
HETATM   20  C           1     -21.005  -6.476  -2.645  0.00  0.00     0.038 A 
HETATM   21  C           1     -21.171  -5.953  -3.927  0.00  0.00     0.010 A 
BRANCH  19  22
HETATM   22  O           1     -20.924  -8.359  -1.190  0.00  0.00    -0.247 OA
BRANCH  22  23
HETATM   23  P           1     -22.180  -8.294  -0.178  0.00  0.00     0.411 P 
HETATM   24  O           1     -21.687  -8.267   1.217  0.00  0.00    -0.624 OA
HETATM   25  O           1     -22.967  -7.071  -0.448  0.00  0.00    -0.624 OA
BRANCH  23  26
HETATM   26  O           1     -23.113  -9.594  -0.393  0.00  0.00    -0.300 OA
HETATM   27  H           1     -22.967  -9.853  -1.287  0.00  0.00     0.223 HD
ENDBRANCH  23  26
ENDBRANCH  22  23
ENDBRANCH  19  22
ENDBRANCH  15  16
ENDBRANCH   1  15
BRANCH   1  28
HETATM   28  N           1     -23.858  -5.348  -5.981  0.00  0.00    -0.066 N 
HETATM   29  H           1     -23.868  -6.219  -5.401  0.00  0.00     0.275 HD
HETATM   30  H           1     -24.303  -4.569  -5.447  0.00  0.00     0.275 HD
HETATM   31  H           1     -24.388  -5.513  -6.866  0.00  0.00     0.275 HD
ENDBRANCH   1  28
TORSDOF 12
ENDMDL
MODEL 3
REMARK VINA RESULT:      -7.4     13.281     14.621
REMARK  12 active torsions:
REMARK  status: ('A' for Active; 'I' for Inactive)
REMARK    1  A    between atoms: C_2  and  C_4 
REMARK    2  A    between atoms: C_4  and  C_5 
REMARK    3  A    between atoms: C_5  and  C_6 
REMARK    4  A    between atoms: C_6  and  C_7 
REMARK    5  A    between atoms: C_6  and  N_10 
REMARK       I    between atoms: N_10  and  C_11 
REMARK    6  A    between atoms: C_11  and  C_12 
REMARK    7  A    between atoms: C_12  and  C_13 
REMARK    8  A    between atoms: C_12  and  N_25 
REMARK    9  A    between atoms: C_13  and  C_14 
REMARK   10  A    between atoms: C_17  and  O_18 
REMARK   11  A    between atoms: O_18  and  P_19 
REMARK   12  A    between atoms: P_19  and  O_20 
ROOT
HETATM    1  C           1     -21.628  -6.732  -4.749  0.00  0.00     0.278 C 
ENDROOT
BRANCH   1   2
HETATM    2  C           1     -21.268  -8.133  -4.316  0.00  0.00     0.249 C 
HETATM    3  N           1     -21.703  -8.608  -3.107  0.00  0.00    -0.345 N 
HETATM    4  H           1     -22.265  -8.021  -2.505  0.00  0.00     0.163 HD
HETATM    5  O           1     -20.598  -8.833  -5.036  0.00  0.00    -0.271 OA
BRANCH   3   6
HETATM    6  C           1     -21.358  -9.954  -2.692  0.00  0.00     0.186 C 
BRANCH   6   7
HETATM    7  C           1     -21.104  -9.974  -1.191  0.00  0.00     0.046 C 
BRANCH   7   8
HETATM    8  C           1     -21.009  -8.546  -0.672  0.00  0.00     0.116 C 
BRANCH   8   9
HETATM    9  C           1     -22.390  -8.037  -0.338  0.00  0.00     0.172 C 
HETATM   10  O           1     -23.172  -8.746   0.330  0.00  0.00    -0.648 OA
HETATM   11  O           1     -22.750  -6.905  -0.728  0.00  0.00    -0.648 OA
ENDBRANCH   8   9
ENDBRANCH   7   8
ENDBRANCH   6   7
BRANCH   6  12
HETATM   12  C           1     -22.496 -10.888  -3.022  0.00  0.00     0.196 C 
HETATM   13  O           1     -23.450 -11.016  -2.226  0.00  0.00    -0.646 OA
HETATM   14  O           1     -22.483 -11.535  -4.092  0.00  0.00    -0.646 OA
ENDBRANCH   6  12
ENDBRANCH   3   6
ENDBRANCH   1   2
BRANCH   1  15
HETATM   15  C           1     -20.466  -6.125  -5.523  0.00  0.00     0.081 C 
BRANCH  15  16
HETATM   16  C           1     -20.984  -5.437  -6.746  0.00  0.00    -0.056 A 
HETATM   17  C           1     -22.257  -4.865  -6.738  0.00  0.00     0.010 A 
HETATM   18  C           1     -22.741  -4.223  -7.878  0.00  0.00     0.038 A 
HETATM   19  C           1     -21.952  -4.154  -9.027  0.00  0.00     0.081 A 
HETATM   20  C           1     -20.681  -4.726  -9.035  0.00  0.00     0.038 A 
HETATM   21  C           1     -20.197  -5.368  -7.895  0.00  0.00     0.010 A 
BRANCH  19  22
HETATM   22  O           1     -22.423  -3.531 -10.134  0.00  0.00    -0.247 OA
BRANCH  22  23
HETATM   23  P           1     -23.638  -4.229 -10.937  0.00  0.00     0.411 P 
HETATM   24  O           1     -24.015  -5.490 -10.260  0.00  0.00    -0.624 OA
HETATM   25  O           1     -24.800  -3.314 -10.965  0.00  0.00    -0.624 OA
BRANCH  23  26
HETATM   26  O           1     -23.169  -4.551 -12.449  0.00  0.00    -0.300 OA
HETATM   27  H           1     -23.968  -4.699 -12.926  0.00  0.00     0.223 HD
ENDBRANCH  23  26
ENDBRANCH  22  23
ENDBRANCH  19  22
ENDBRANCH  15  16
ENDBRANCH   1  15
BRANCH   1  28
HETATM   28  N           1     -21.913  -5.894  -3.537  0.00  0.00    -0.066 N 
HETATM   29  H           1     -21.043  -5.390  -3.250  0.00  0.00     0.275 HD
HETATM   30  H           1     -22.659  -5.198  -3.763  0.00  0.00     0.275 HD
HETATM   31  H           1     -22.233  -6.509  -2.756  0.00  0.00     0.275 HD
ENDBRANCH   1  28
TORSDOF 12
ENDMDL
MODEL 4
REMARK VINA RESULT:      -7.3     13.632     15.124
REMARK  12 active torsions:
REMARK  status: ('A' for Active; 'I' for Inactive)
REMARK    1  A    between atoms: C_2  and  C_4 
REMARK    2  A    between atoms: C_4  and  C_5 
REMARK    3  A    between atoms: C_5  and  C_6 
REMARK    4  A    between atoms: C_6  and  C_7 
REMARK    5  A    between atoms: C_6  and  N_10 
REMARK       I    between atoms: N_10  and  C_11 
REMARK    6  A    between atoms: C_11  and  C_12 
REMARK    7  A    between atoms: C_12  and  C_13 
REMARK    8  A    between atoms: C_12  and  N_25 
REMARK    9  A    between atoms: C_13  and  C_14 
REMARK   10  A    between atoms: C_17  and  O_18 
REMARK   11  A    between atoms: O_18  and  P_19 
REMARK   12  A    between atoms: P_19  and  O_20 
ROOT
HETATM    1  C           1     -21.562  -6.455  -4.902  0.00  0.00     0.278 C 
ENDROOT
BRANCH   1   2
HETATM    2  C           1     -20.983  -7.849  -4.888  0.00  0.00     0.249 C 
HETATM    3  N           1     -20.234  -8.267  -3.820  0.00  0.00    -0.345 N 
HETATM    4  H           1     -20.068  -7.642  -3.042  0.00  0.00     0.163 HD
HETATM    5  O           1     -21.181  -8.595  -5.816  0.00  0.00    -0.271 OA
BRANCH   3   6
HETATM    6  C           1     -19.677  -9.606  -3.807  0.00  0.00     0.186 C 
BRANCH   6   7
HETATM    7  C           1     -18.161  -9.527  -3.697  0.00  0.00     0.046 C 
BRANCH   7   8
HETATM    8  C           1     -17.528 -10.504  -4.679  0.00  0.00     0.116 C 
BRANCH   8   9
HETATM    9  C           1     -18.029 -10.214  -6.072  0.00  0.00     0.172 C 
HETATM   10  O           1     -17.831  -9.094  -6.588  0.00  0.00    -0.648 OA
HETATM   11  O           1     -18.643 -11.096  -6.711  0.00  0.00    -0.648 OA
ENDBRANCH   8   9
ENDBRANCH   7   8
ENDBRANCH   6   7
BRANCH   6  12
HETATM   12  C           1     -20.228 -10.366  -2.624  0.00  0.00     0.196 C 
HETATM   13  O           1     -21.297 -11.003  -2.733  0.00  0.00    -0.646 OA
HETATM   14  O           1     -19.614 -10.356  -1.535  0.00  0.00    -0.646 OA
ENDBRANCH   6  12
ENDBRANCH   3   6
ENDBRANCH   1   2
BRANCH   1  15
HETATM   15  C           1     -20.546  -5.489  -5.495  0.00  0.00     0.081 C 
BRANCH  15  16
HETATM   16  C           1     -21.037  -4.997  -6.820  0.00  0.00    -0.056 A 
HETATM   17  C           1     -20.181  -4.992  -7.922  0.00  0.00     0.010 A 
HETATM   18  C           1     -20.639  -4.533  -9.158  0.00  0.00     0.038 A 
HETATM   19  C           1     -21.951  -4.079  -9.291  0.00  0.00     0.081 A 
HETATM   20  C           1     -22.805  -4.083  -8.189  0.00  0.00     0.038 A 
HETATM   21  C           1     -22.348  -4.542  -6.954  0.00  0.00     0.010 A 
BRANCH  19  22
HETATM   22  O           1     -22.394  -3.632 -10.491  0.00  0.00    -0.247 OA
BRANCH  22  23
HETATM   23  P           1     -23.733  -4.298 -11.100  0.00  0.00     0.411 P 
HETATM   24  O           1     -24.061  -5.526 -10.341  0.00  0.00    -0.624 OA
HETATM   25  O           1     -24.853  -3.337 -10.996  0.00  0.00    -0.624 OA
BRANCH  23  26
HETATM   26  O           1     -23.489  -4.675 -12.651  0.00  0.00    -0.300 OA
HETATM   27  H           1     -22.557  -4.793 -12.730  0.00  0.00     0.223 HD
ENDBRANCH  23  26
ENDBRANCH  22  23
ENDBRANCH  19  22
ENDBRANCH  15  16
ENDBRANCH   1  15
BRANCH   1  28
HETATM   28  N           1     -21.891  -6.037  -3.499  0.00  0.00    -0.066 N 
HETATM   29  H           1     -21.394  -6.663  -2.825  0.00  0.00     0.275 HD
HETATM   30  H           1     -21.582  -5.051  -3.348  0.00  0.00     0.275 HD
HETATM   31  H           1     -22.922  -6.109  -3.347  0.00  0.00     0.275 HD
ENDBRANCH   1  28
TORSDOF 12
ENDMDL
MODEL 5
REMARK VINA RESULT:      -7.2      1.752      2.453
REMARK  12 active torsions:
REMARK  status: ('A' for Active; 'I' for Inactive)
REMARK    1  A    between atoms: C_2  and  C_4 
REMARK    2  A    between atoms: C_4  and  C_5 
REMARK    3  A    between atoms: C_5  and  C_6 
REMARK    4  A    between atoms: C_6  and  C_7 
REMARK    5  A    between atoms: C_6  and  N_10 
REMARK       I    between atoms: N_10  and  C_11 
REMARK    6  A    between atoms: C_11  and  C_12 
REMARK    7  A    between atoms: C_12  and  C_13 
REMARK    8  A    between atoms: C_12  and  N_25 
REMARK    9  A    between atoms: C_13  and  C_14 
REMARK   10  A    between atoms: C_17  and  O_18 
REMARK   11  A    between atoms: O_18  and  P_19 
REMARK   12  A    between atoms: P_19  and  O_20 
ROOT
HETATM    1  C           1     -32.871  -4.711 -16.927  0.00  0.00     0.278 C 
ENDROOT
BRANCH   1   2
HETATM    2  C           1     -33.705  -4.646 -15.671  0.00  0.00     0.249 C 
HETATM    3  N           1     -33.201  -4.047 -14.546  0.00  0.00    -0.345 N 
HETATM    4  H           1     -32.272  -3.649 -14.558  0.00  0.00     0.163 HD
HETATM    5  O           1     -34.814  -5.121 -15.657  0.00  0.00    -0.271 OA
BRANCH   3   6
HETATM    6  C           1     -34.002  -3.985 -13.339  0.00  0.00     0.186 C 
BRANCH   6   7
HETATM    7  C           1     -33.089  -3.971 -12.121  0.00  0.00     0.046 C 
BRANCH   7   8
HETATM    8  C           1     -32.983  -5.379 -11.549  0.00  0.00     0.116 C 
BRANCH   8   9
HETATM    9  C           1     -34.293  -5.762 -10.905  0.00  0.00     0.172 C 
HETATM   10  O           1     -34.664  -6.954 -10.905  0.00  0.00    -0.648 OA
HETATM   11  O           1     -35.005  -4.885 -10.371  0.00  0.00    -0.648 OA
ENDBRANCH   8   9
ENDBRANCH   7   8
ENDBRANCH   6   7
BRANCH   6  12
HETATM   12  C           1     -34.837  -2.728 -13.355  0.00  0.00     0.196 C 
HETATM   13  O           1     -34.846  -1.997 -14.368  0.00  0.00    -0.646 OA
HETATM   14  O           1     -35.518  -2.417 -12.354  0.00  0.00    -0.646 OA
ENDBRANCH   6  12
ENDBRANCH   3   6
ENDBRANCH   1   2
BRANCH   1  15
HETATM   15  C           1     -32.152  -6.051 -16.991  0.00  0.00     0.081 C 
BRANCH  15  16
HETATM   16  C           1     -30.676  -5.832 -16.869  0.00  0.00    -0.056 A 
HETATM   17  C           1     -30.111  -5.567 -15.622  0.00  0.00     0.010 A 
HETATM   18  C           1     -28.735  -5.363 -15.509  0.00  0.00     0.038 A 
HETATM   19  C           1     -27.925  -5.425 -16.643  0.00  0.00     0.081 A 
HETATM   20  C           1     -28.491  -5.689 -17.889  0.00  0.00     0.038 A 
HETATM   21  C           1     -29.866  -5.893 -18.003  0.00  0.00     0.010 A 
BRANCH  19  22
HETATM   22  O           1     -26.590  -5.226 -16.533  0.00  0.00    -0.247 OA
BRANCH  22  23
HETATM   23  P           1     -25.682  -6.452 -16.001  0.00  0.00     0.411 P 
HETATM   24  O           1     -26.559  -7.565 -15.574  0.00  0.00    -0.624 OA
HETATM   25  O           1     -24.790  -6.912 -17.087  0.00  0.00    -0.624 OA
BRANCH  23  26
HETATM   26  O           1     -24.793  -5.958 -14.746  0.00  0.00    -0.300 OA
HETATM   27  H           1     -25.235  -5.192 -14.421  0.00  0.00     0.223 HD
ENDBRANCH  23  26
ENDBRANCH  22  23
ENDBRANCH  19  22
ENDBRANCH  15  16
ENDBRANCH   1  15
BRANCH   1  28
HETATM   28  N           1     -31.861  -3.601 -16.913  0.00  0.00    -0.066 N 
HETATM   29  H           1     -31.565  -3.388 -17.894  0.00  0.00     0.275 HD
HETATM   30  H           1     -32.286  -2.748 -16.486  0.00  0.00     0.275 HD
HETATM   31  H           1     -31.029  -3.895 -16.354  0.00  0.00     0.275 HD
ENDBRANCH   1  28
TORSDOF 12
ENDMDL
MODEL 6
REMARK VINA RESULT:      -6.8      2.645      3.951
REMARK  12 active torsions:
REMARK  status: ('A' for Active; 'I' for Inactive)
REMARK    1  A    between atoms: C_2  and  C_4 
REMARK    2  A    between atoms: C_4  and  C_5 
REMARK    3  A    between atoms: C_5  and  C_6 
REMARK    4  A    between atoms: C_6  and  C_7 
REMARK    5  A    between atoms: C_6  and  N_10 
REMARK       I    between atoms: N_10  and  C_11 
REMARK    6  A    between atoms: C_11  and  C_12 
REMARK    7  A    between atoms: C_12  and  C_13 
REMARK    8  A    between atoms: C_12  and  N_25 
REMARK    9  A    between atoms: C_13  and  C_14 
REMARK   10  A    between atoms: C_17  and  O_18 
REMARK   11  A    between atoms: O_18  and  P_19 
REMARK   12  A    between atoms: P_19  and  O_20 
ROOT
HETATM    1  C           1     -32.969  -3.785 -17.353  0.00  0.00     0.278 C 
ENDROOT
BRANCH   1   2
HETATM    2  C           1     -33.994  -3.264 -16.376  0.00  0.00     0.249 C 
HETATM    3  N           1     -34.569  -2.037 -16.578  0.00  0.00    -0.345 N 
HETATM    4  H           1     -34.308  -1.481 -17.381  0.00  0.00     0.163 HD
HETATM    5  O           1     -34.306  -3.928 -15.417  0.00  0.00    -0.271 OA
BRANCH   3   6
HETATM    6  C           1     -35.554  -1.537 -15.638  0.00  0.00     0.186 C 
BRANCH   6   7
HETATM    7  C           1     -34.861  -0.703 -14.569  0.00  0.00     0.046 C 
BRANCH   7   8
HETATM    8  C           1     -35.691  -0.721 -13.292  0.00  0.00     0.116 C 
BRANCH   8   9
HETATM    9  C           1     -35.063  -1.663 -12.295  0.00  0.00     0.172 C 
HETATM   10  O           1     -35.312  -2.886 -12.346  0.00  0.00    -0.648 OA
HETATM   11  O           1     -34.291  -1.219 -11.417  0.00  0.00    -0.648 OA
ENDBRANCH   8   9
ENDBRANCH   7   8
ENDBRANCH   6   7
BRANCH   6  12
HETATM   12  C           1     -36.556  -0.680 -16.371  0.00  0.00     0.196 C 
HETATM   13  O           1     -36.365   0.550 -16.483  0.00  0.00    -0.646 OA
HETATM   14  O           1     -37.580  -1.200 -16.866  0.00  0.00    -0.646 OA
ENDBRANCH   6  12
ENDBRANCH   3   6
ENDBRANCH   1   2
BRANCH   1  15
HETATM   15  C           1     -32.452  -5.135 -16.876  0.00  0.00     0.081 C 
BRANCH  15  16
HETATM   16  C           1     -30.957  -5.104 -16.810  0.00  0.00    -0.056 A 
HETATM   17  C           1     -30.209  -5.022 -17.986  0.00  0.00     0.010 A 
HETATM   18  C           1     -28.816  -4.993 -17.924  0.00  0.00     0.038 A 
HETATM   19  C           1     -28.170  -5.046 -16.689  0.00  0.00     0.081 A 
HETATM   20  C           1     -28.918  -5.129 -15.515  0.00  0.00     0.038 A 
HETATM   21  C           1     -30.311  -5.158 -15.575  0.00  0.00     0.010 A 
BRANCH  19  22
HETATM   22  O           1     -26.817  -5.019 -16.631  0.00  0.00    -0.247 OA
BRANCH  22  23
HETATM   23  P           1     -26.045  -6.398 -16.297  0.00  0.00     0.411 P 
HETATM   24  O           1     -25.113  -6.720 -17.401  0.00  0.00    -0.624 OA
HETATM   25  O           1     -25.285  -6.245 -15.036  0.00  0.00    -0.624 OA
BRANCH  23  26
HETATM   26  O           1     -27.121  -7.591 -16.137  0.00  0.00    -0.300 OA
HETATM   27  H           1     -26.820  -8.092 -15.397  0.00  0.00     0.223 HD
ENDBRANCH  23  26
ENDBRANCH  22  23
ENDBRANCH  19  22
ENDBRANCH  15  16
ENDBRANCH   1  15
BRANCH   1  28
HETATM   28  N           1     -31.827  -2.816 -17.443  0.00  0.00    -0.066 N 
HETATM   29  H           1     -30.987  -3.303 -17.832  0.00  0.00     0.275 HD
HETATM   30  H           1     -32.091  -2.024 -18.070  0.00  0.00     0.275 HD
HETATM   31  H           1     -31.606  -2.450 -16.489  0.00  0.00     0.275 HD
ENDBRANCH   1  28
TORSDOF 12
ENDMDL
MODEL 7
REMARK VINA RESULT:      -6.8     13.872     15.104
REMARK  12 active torsions:
REMARK  status: ('A' for Active; 'I' for Inactive)
REMARK    1  A    between atoms: C_2  and  C_4 
REMARK    2  A    between atoms: C_4  and  C_5 
REMARK    3  A    between atoms: C_5  and  C_6 
REMARK    4  A    between atoms: C_6  and  C_7 
REMARK    5  A    between atoms: C_6  and  N_10 
REMARK       I    between atoms: N_10  and  C_11 
REMARK    6  A    between atoms: C_11  and  C_12 
REMARK    7  A    between atoms: C_12  and  C_13 
REMARK    8  A    between atoms: C_12  and  N_25 
REMARK    9  A    between atoms: C_13  and  C_14 
REMARK   10  A    between atoms: C_17  and  O_18 
REMARK   11  A    between atoms: O_18  and  P_19 
REMARK   12  A    between atoms: P_19  and  O_20 
ROOT
HETATM    1  C           1     -20.669  -7.405  -5.070  0.00  0.00     0.278 C 
ENDROOT
BRANCH   1   2
HETATM    2  C           1     -21.282  -8.148  -3.908  0.00  0.00     0.249 C 
HETATM    3  N           1     -21.101  -7.688  -2.631  0.00  0.00    -0.345 N 
HETATM    4  H           1     -20.557  -6.852  -2.466  0.00  0.00     0.163 HD
HETATM    5  O           1     -21.932  -9.146  -4.105  0.00  0.00    -0.271 OA
BRANCH   3   6
HETATM    6  C           1     -21.691  -8.402  -1.514  0.00  0.00     0.186 C 
BRANCH   6   7
HETATM    7  C           1     -20.592  -9.070  -0.699  0.00  0.00     0.046 C 
BRANCH   7   8
HETATM    8  C           1     -20.455 -10.525  -1.126  0.00  0.00     0.116 C 
BRANCH   8   9
HETATM    9  C           1     -19.170 -10.707  -1.897  0.00  0.00     0.172 C 
HETATM   10  O           1     -18.663 -11.843  -2.009  0.00  0.00    -0.648 OA
HETATM   11  O           1     -18.614  -9.719  -2.424  0.00  0.00    -0.648 OA
ENDBRANCH   8   9
ENDBRANCH   7   8
ENDBRANCH   6   7
BRANCH   6  12
HETATM   12  C           1     -22.446  -7.431  -0.640  0.00  0.00     0.196 C 
HETATM   13  O           1     -22.969  -7.825   0.424  0.00  0.00    -0.646 OA
HETATM   14  O           1     -22.547  -6.233  -0.981  0.00  0.00    -0.646 OA
ENDBRANCH   6  12
ENDBRANCH   3   6
ENDBRANCH   1   2
BRANCH   1  15
HETATM   15  C           1     -20.919  -5.912  -4.907  0.00  0.00     0.081 C 
BRANCH  15  16
HETATM   16  C           1     -21.166  -5.297  -6.249  0.00  0.00    -0.056 A 
HETATM   17  C           1     -20.132  -5.223  -7.183  0.00  0.00     0.010 A 
HETATM   18  C           1     -20.362  -4.650  -8.434  0.00  0.00     0.038 A 
HETATM   19  C           1     -21.625  -4.150  -8.751  0.00  0.00     0.081 A 
HETATM   20  C           1     -22.658  -4.223  -7.817  0.00  0.00     0.038 A 
HETATM   21  C           1     -22.429  -4.797  -6.567  0.00  0.00     0.010 A 
BRANCH  19  22
HETATM   22  O           1     -21.848  -3.592  -9.965  0.00  0.00    -0.247 OA
BRANCH  22  23
HETATM   23  P           1     -23.120  -4.109 -10.815  0.00  0.00     0.411 P 
HETATM   24  O           1     -23.624  -5.371 -10.229  0.00  0.00    -0.624 OA
HETATM   25  O           1     -24.187  -3.084 -10.778  0.00  0.00    -0.624 OA
BRANCH  23  26
HETATM   26  O           1     -22.675  -4.368 -12.346  0.00  0.00    -0.300 OA
HETATM   27  H           1     -23.435  -4.740 -12.761  0.00  0.00     0.223 HD
ENDBRANCH  23  26
ENDBRANCH  22  23
ENDBRANCH  19  22
ENDBRANCH  15  16
ENDBRANCH   1  15
BRANCH   1  28
HETATM   28  N           1     -21.292  -7.880  -6.350  0.00  0.00    -0.066 N 
HETATM   29  H           1     -20.655  -8.570  -6.811  0.00  0.00     0.275 HD
HETATM   30  H           1     -22.208  -8.336  -6.143  0.00  0.00     0.275 HD
HETATM   31  H           1     -21.442  -7.065  -6.987  0.00  0.00     0.275 HD
ENDBRANCH   1  28
TORSDOF 12
ENDMDL
MODEL 8
REMARK VINA RESULT:      -6.7     14.850     16.446
REMARK  12 active torsions:
REMARK  status: ('A' for Active; 'I' for Inactive)
REMARK    1  A    between atoms: C_2  and  C_4 
REMARK    2  A    between atoms: C_4  and  C_5 
REMARK    3  A    between atoms: C_5  and  C_6 
REMARK    4  A    between atoms: C_6  and  C_7 
REMARK    5  A    between atoms: C_6  and  N_10 
REMARK       I    between atoms: N_10  and  C_11 
REMARK    6  A    between atoms: C_11  and  C_12 
REMARK    7  A    between atoms: C_12  and  C_13 
REMARK    8  A    between atoms: C_12  and  N_25 
REMARK    9  A    between atoms: C_13  and  C_14 
REMARK   10  A    between atoms: C_17  and  O_18 
REMARK   11  A    between atoms: O_18  and  P_19 
REMARK   12  A    between atoms: P_19  and  O_20 
ROOT
HETATM    1  C           1     -20.938  -6.787  -4.613  0.00  0.00     0.278 C 
ENDROOT
BRANCH   1   2
HETATM    2  C           1     -21.222  -6.549  -6.077  0.00  0.00     0.249 C 
HETATM    3  N           1     -21.220  -5.273  -6.575  0.00  0.00    -0.345 N 
HETATM    4  H           1     -21.028  -4.491  -5.963  0.00  0.00     0.163 HD
HETATM    5  O           1     -21.450  -7.483  -6.807  0.00  0.00    -0.271 OA
BRANCH   3   6
HETATM    6  C           1     -21.492  -5.045  -7.981  0.00  0.00     0.186 C 
BRANCH   6   7
HETATM    7  C           1     -22.559  -3.968  -8.124  0.00  0.00     0.046 C 
BRANCH   7   8
HETATM    8  C           1     -23.668  -4.471  -9.039  0.00  0.00     0.116 C 
BRANCH   8   9
HETATM    9  C           1     -23.828  -3.526 -10.205  0.00  0.00     0.172 C 
HETATM   10  O           1     -22.824  -3.148 -10.845  0.00  0.00    -0.648 OA
HETATM   11  O           1     -24.966  -3.122 -10.530  0.00  0.00    -0.648 OA
ENDBRANCH   8   9
ENDBRANCH   7   8
ENDBRANCH   6   7
BRANCH   6  12
HETATM   12  C           1     -20.228  -4.594  -8.670  0.00  0.00     0.196 C 
HETATM   13  O           1     -20.093  -4.759  -9.901  0.00  0.00    -0.646 OA
HETATM   14  O           1     -19.314  -4.055  -8.008  0.00  0.00    -0.646 OA
ENDBRANCH   6  12
ENDBRANCH   3   6
ENDBRANCH   1   2
BRANCH   1  15
HETATM   15  C           1     -21.006  -8.279  -4.320  0.00  0.00     0.081 C 
BRANCH  15  16
HETATM   16  C           1     -19.620  -8.816  -4.139  0.00  0.00    -0.056 A 
HETATM   17  C           1     -19.076  -8.923  -2.858  0.00  0.00     0.010 A 
HETATM   18  C           1     -17.784  -9.423  -2.690  0.00  0.00     0.038 A 
HETATM   19  C           1     -17.038  -9.817  -3.800  0.00  0.00     0.081 A 
HETATM   20  C           1     -17.582  -9.709  -5.079  0.00  0.00     0.038 A 
HETATM   21  C           1     -18.873  -9.209  -5.249  0.00  0.00     0.010 A 
BRANCH  19  22
HETATM   22  O           1     -15.783 -10.302  -3.636  0.00  0.00    -0.247 OA
BRANCH  22  23
HETATM   23  P           1     -15.620 -11.812  -3.088  0.00  0.00     0.411 P 
HETATM   24  O           1     -15.636 -11.803  -1.608  0.00  0.00    -0.624 OA
HETATM   25  O           1     -16.737 -12.642  -3.590  0.00  0.00    -0.624 OA
BRANCH  23  26
HETATM   26  O           1     -14.218 -12.424  -3.606  0.00  0.00    -0.300 OA
HETATM   27  H           1     -14.322 -12.514  -4.538  0.00  0.00     0.223 HD
ENDBRANCH  23  26
ENDBRANCH  22  23
ENDBRANCH  19  22
ENDBRANCH  15  16
ENDBRANCH   1  15
BRANCH   1  28
HETATM   28  N           1     -21.961  -6.068  -3.784  0.00  0.00    -0.066 N 
HETATM   29  H           1     -21.497  -5.297  -3.252  0.00  0.00     0.275 HD
HETATM   30  H           1     -22.696  -5.666  -4.408  0.00  0.00     0.275 HD
HETATM   31  H           1     -22.400  -6.739  -3.113  0.00  0.00     0.275 HD
ENDBRANCH   1  28
TORSDOF 12
ENDMDL
MODEL 9
REMARK VINA RESULT:      -6.7     13.870     15.306
REMARK  12 active torsions:
REMARK  status: ('A' for Active; 'I' for Inactive)
REMARK    1  A    between atoms: C_2  and  C_4 
REMARK    2  A    between atoms: C_4  and  C_5 
REMARK    3  A    between atoms: C_5  and  C_6 
REMARK    4  A    between atoms: C_6  and  C_7 
REMARK    5  A    between atoms: C_6  and  N_10 
REMARK       I    between atoms: N_10  and  C_11 
REMARK    6  A    between atoms: C_11  and  C_12 
REMARK    7  A    between atoms: C_12  and  C_13 
REMARK    8  A    between atoms: C_12  and  N_25 
REMARK    9  A    between atoms: C_13  and  C_14 
REMARK   10  A    between atoms: C_17  and  O_18 
REMARK   11  A    between atoms: O_18  and  P_19 
REMARK   12  A    between atoms: P_19  and  O_20 
ROOT
HETATM    1  C           1     -20.338  -8.146  -4.703  0.00  0.00     0.278 C 
ENDROOT
BRANCH   1   2
HETATM    2  C           1     -20.451  -9.225  -3.654  0.00  0.00     0.249 C 
HETATM    3  N           1     -21.352  -9.092  -2.630  0.00  0.00    -0.345 N 
HETATM    4  H           1     -21.942  -8.272  -2.578  0.00  0.00     0.163 HD
HETATM    5  O           1     -19.748 -10.204  -3.716  0.00  0.00    -0.271 OA
BRANCH   3   6
HETATM    6  C           1     -21.460 -10.129  -1.622  0.00  0.00     0.186 C 
BRANCH   6   7
HETATM    7  C           1     -21.411  -9.499  -0.237  0.00  0.00     0.046 C 
BRANCH   7   8
HETATM    8  C           1     -21.172  -8.001  -0.368  0.00  0.00     0.116 C 
BRANCH   8   9
HETATM    9  C           1     -22.497  -7.285  -0.460  0.00  0.00     0.172 C 
HETATM   10  O           1     -23.430  -7.594   0.311  0.00  0.00    -0.648 OA
HETATM   11  O           1     -22.661  -6.381  -1.308  0.00  0.00    -0.648 OA
ENDBRANCH   8   9
ENDBRANCH   7   8
ENDBRANCH   6   7
BRANCH   6  12
HETATM   12  C           1     -22.767 -10.862  -1.795  0.00  0.00     0.196 C 
HETATM   13  O           1     -23.628 -10.826  -0.890  0.00  0.00    -0.646 OA
HETATM   14  O           1     -22.989 -11.506  -2.843  0.00  0.00    -0.646 OA
ENDBRANCH   6  12
ENDBRANCH   3   6
ENDBRANCH   1   2
BRANCH   1  15
HETATM   15  C           1     -20.982  -6.867  -4.187  0.00  0.00     0.081 C 
BRANCH  15  16
HETATM   16  C           1     -21.251  -5.944  -5.335  0.00  0.00    -0.056 A 
HETATM   17  C           1     -20.194  -5.272  -5.951  0.00  0.00     0.010 A 
HETATM   18  C           1     -20.445  -4.412  -7.020  0.00  0.00     0.038 A 
HETATM   19  C           1     -21.750  -4.223  -7.473  0.00  0.00     0.081 A 
HETATM   20  C           1     -22.806  -4.894  -6.856  0.00  0.00     0.038 A 
HETATM   21  C           1     -22.556  -5.754  -5.787  0.00  0.00     0.010 A 
BRANCH  19  22
HETATM   22  O           1     -21.993  -3.387  -8.511  0.00  0.00    -0.247 OA
BRANCH  22  23
HETATM   23  P           1     -22.012  -4.012 -10.000  0.00  0.00     0.411 P 
HETATM   24  O           1     -23.055  -5.059 -10.081  0.00  0.00    -0.624 OA
HETATM   25  O           1     -22.305  -2.943 -10.980  0.00  0.00    -0.624 OA
BRANCH  23  26
HETATM   26  O           1     -20.571  -4.663 -10.328  0.00  0.00    -0.300 OA
HETATM   27  H           1     -20.612  -5.536  -9.975  0.00  0.00     0.223 HD
ENDBRANCH  23  26
ENDBRANCH  22  23
ENDBRANCH  19  22
ENDBRANCH  15  16
ENDBRANCH   1  15
BRANCH   1  28
HETATM   28  N           1     -21.040  -8.590  -5.952  0.00  0.00    -0.066 N 
HETATM   29  H           1     -20.971  -7.839  -6.676  0.00  0.00     0.275 HD
HETATM   30  H           1     -20.592  -9.462  -6.313  0.00  0.00     0.275 HD
HETATM   31  H           1     -22.046  -8.776  -5.739  0.00  0.00     0.275 HD
ENDBRANCH   1  28
TORSDOF 12
ENDMDL
