MODEL 1
REMARK VINA RESULT:      -6.8      0.000      0.000
REMARK  8 active torsions:
REMARK  status: ('A' for Active; 'I' for Inactive)
REMARK    1  A    between atoms: C_1  and  C_6 
REMARK    2  A    between atoms: C_1  and  C_11 
REMARK    3  A    between atoms: C_1  and  N_14 
REMARK       I    between atoms: C_6  and  N_7 
REMARK    4  A    between atoms: N_7  and  C_24 
REMARK    5  A    between atoms: C_9  and  C_11 
REMARK    6  A    between atoms: C_22  and  O_23 
REMARK    7  A    between atoms: C_22  and  C_24 
REMARK    8  A    between atoms: C_24  and  C_25 
ROOT
HETATM    1  C           1     -21.161  -5.633  -6.945  0.00  0.00     0.280 C 
ENDROOT
BRANCH   1   2
HETATM    2  C           1     -21.679  -4.505  -7.803  0.00  0.00     0.249 C 
HETATM    3  N           1     -22.104  -4.755  -9.081  0.00  0.00    -0.343 N 
HETATM    4  H           1     -22.069  -5.696  -9.449  0.00  0.00     0.163 HD
HETATM    5  O           1     -21.721  -3.380  -7.363  0.00  0.00    -0.271 OA
BRANCH   3   6
HETATM    6  C           1     -22.602  -3.671  -9.905  0.00  0.00     0.214 C 
BRANCH   6   7
HETATM    7  C           1     -21.817  -3.624 -11.210  0.00  0.00     0.147 C 
HETATM    8  C           1     -20.426  -4.201 -10.988  0.00  0.00     0.042 C 
BRANCH   7   9
HETATM    9  O           1     -22.486  -4.378 -12.185  0.00  0.00    -0.393 OA
HETATM   10  H           1     -23.409  -4.261 -12.036  0.00  0.00     0.210 HD
ENDBRANCH   7   9
ENDBRANCH   6   7
BRANCH   6  11
HETATM   11  C           1     -24.062  -3.899 -10.206  0.00  0.00     0.199 C 
HETATM   12  O           1     -24.589  -5.003  -9.944  0.00  0.00    -0.646 OA
HETATM   13  O           1     -24.745  -2.986 -10.716  0.00  0.00    -0.646 OA
ENDBRANCH   6  11
ENDBRANCH   3   6
ENDBRANCH   1   2
BRANCH   1  14
HETATM   14  C           1     -20.799  -5.097  -5.566  0.00  0.00     0.101 C 
BRANCH  14  15
HETATM   15  C           1     -21.147  -6.117  -4.526  0.00  0.00     0.028 A 
HETATM   16  C           1     -21.203  -7.472  -4.749  0.00  0.00     0.114 A 
HETATM   17  N           1     -21.554  -8.015  -3.545  0.00  0.00    -0.360 N 
HETATM   18  C           1     -21.695  -6.987  -2.657  0.00  0.00     0.180 A 
HETATM   19  H           1     -21.690  -9.036  -3.340  0.00  0.00     0.166 HD
HETATM   20  N           1     -21.456  -5.826  -3.223  0.00  0.00    -0.355 N 
ATOM     21  HN          1     -21.492  -4.905  -2.786  1.00  0.00     0.166 HD
ENDBRANCH  14  15
ENDBRANCH   1  14
BRANCH   1  22
HETATM   22  N           1     -19.943  -6.227  -7.586  0.00  0.00    -0.066 N 
HETATM   23  H           1     -19.546  -6.966  -6.963  0.00  0.00     0.275 HD
HETATM   24  H           1     -19.229  -5.478  -7.738  0.00  0.00     0.275 HD
HETATM   25  H           1     -20.203  -6.650  -8.505  0.00  0.00     0.275 HD
ENDBRANCH   1  22
TORSDOF 8
ENDMDL
MODEL 2
REMARK VINA RESULT:      -5.8      2.956      6.668
REMARK  8 active torsions:
REMARK  status: ('A' for Active; 'I' for Inactive)
REMARK    1  A    between atoms: C_1  and  C_6 
REMARK    2  A    between atoms: C_1  and  C_11 
REMARK    3  A    between atoms: C_1  and  N_14 
REMARK       I    between atoms: C_6  and  N_7 
REMARK    4  A    between atoms: N_7  and  C_24 
REMARK    5  A    between atoms: C_9  and  C_11 
REMARK    6  A    between atoms: C_22  and  O_23 
REMARK    7  A    between atoms: C_22  and  C_24 
REMARK    8  A    between atoms: C_24  and  C_25 
ROOT
HETATM    1  C           1     -21.321  -4.640  -6.787  0.00  0.00     0.280 C 
ENDROOT
BRANCH   1   2
HETATM    2  C           1     -21.926  -5.632  -5.823  0.00  0.00     0.249 C 
HETATM    3  N           1     -21.116  -6.453  -5.086  0.00  0.00    -0.343 N 
HETATM    4  H           1     -20.111  -6.395  -5.188  0.00  0.00     0.163 HD
HETATM    5  O           1     -23.126  -5.701  -5.702  0.00  0.00    -0.271 OA
BRANCH   3   6
HETATM    6  C           1     -21.697  -7.406  -4.161  0.00  0.00     0.214 C 
BRANCH   6   7
HETATM    7  C           1     -20.947  -8.729  -4.255  0.00  0.00     0.147 C 
HETATM    8  C           1     -21.903  -9.876  -3.960  0.00  0.00     0.042 C 
BRANCH   7   9
HETATM    9  O           1     -20.424  -8.877  -5.547  0.00  0.00    -0.393 OA
HETATM   10  H           1     -19.550  -9.216  -5.451  0.00  0.00     0.210 HD
ENDBRANCH   7   9
ENDBRANCH   6   7
BRANCH   6  11
HETATM   11  C           1     -21.593  -6.869  -2.755  0.00  0.00     0.199 C 
HETATM   12  O           1     -20.707  -7.303  -1.986  0.00  0.00    -0.646 OA
HETATM   13  O           1     -22.390  -5.992  -2.360  0.00  0.00    -0.646 OA
ENDBRANCH   6  11
ENDBRANCH   3   6
ENDBRANCH   1   2
BRANCH   1  14
HETATM   14  C           1     -21.466  -5.161  -8.211  0.00  0.00     0.101 C 
BRANCH  14  15
HETATM   15  C           1     -22.574  -4.427  -8.901  0.00  0.00     0.028 A 
HETATM   16  C           1     -22.563  -4.063 -10.226  0.00  0.00     0.114 A 
HETATM   17  N           1     -23.754  -3.423 -10.428  0.00  0.00    -0.360 N 
HETATM   18  C           1     -24.427  -3.425  -9.239  0.00  0.00     0.180 A 
HETATM   19  H           1     -24.090  -3.007 -11.331  0.00  0.00     0.166 HD
HETATM   20  N           1     -23.737  -4.025  -8.296  0.00  0.00    -0.355 N 
ATOM     21  HN          1     -24.008  -4.162  -7.322  1.00  0.00     0.166 HD
ENDBRANCH  14  15
ENDBRANCH   1  14
BRANCH   1  22
HETATM   22  N           1     -19.867  -4.459  -6.467  0.00  0.00    -0.066 N 
HETATM   23  H           1     -19.516  -3.586  -6.922  0.00  0.00     0.275 HD
HETATM   24  H           1     -19.327  -5.280  -6.823  0.00  0.00     0.275 HD
HETATM   25  H           1     -19.744  -4.385  -5.432  0.00  0.00     0.275 HD
ENDBRANCH   1  22
TORSDOF 8
ENDMDL
MODEL 3
REMARK VINA RESULT:      -5.6      3.165      7.026
REMARK  8 active torsions:
REMARK  status: ('A' for Active; 'I' for Inactive)
REMARK    1  A    between atoms: C_1  and  C_6 
REMARK    2  A    between atoms: C_1  and  C_11 
REMARK    3  A    between atoms: C_1  and  N_14 
REMARK       I    between atoms: C_6  and  N_7 
REMARK    4  A    between atoms: N_7  and  C_24 
REMARK    5  A    between atoms: C_9  and  C_11 
REMARK    6  A    between atoms: C_22  and  O_23 
REMARK    7  A    between atoms: C_22  and  C_24 
REMARK    8  A    between atoms: C_24  and  C_25 
ROOT
HETATM    1  C           1     -22.298  -5.080  -6.932  0.00  0.00     0.280 C 
ENDROOT
BRANCH   1   2
HETATM    2  C           1     -21.459  -5.566  -5.775  0.00  0.00     0.249 C 
HETATM    3  N           1     -21.954  -6.515  -4.921  0.00  0.00    -0.343 N 
HETATM    4  H           1     -22.882  -6.890  -5.065  0.00  0.00     0.163 HD
HETATM    5  O           1     -20.350  -5.118  -5.603  0.00  0.00    -0.271 OA
BRANCH   3   6
HETATM    6  C           1     -21.148  -6.981  -3.810  0.00  0.00     0.214 C 
BRANCH   6   7
HETATM    7  C           1     -22.001  -7.034  -2.549  0.00  0.00     0.147 C 
HETATM    8  C           1     -21.186  -7.627  -1.408  0.00  0.00     0.042 C 
BRANCH   7   9
HETATM    9  O           1     -22.409  -5.736  -2.207  0.00  0.00    -0.393 OA
HETATM   10  H           1     -22.021  -5.540  -1.371  0.00  0.00     0.210 HD
ENDBRANCH   7   9
ENDBRANCH   6   7
BRANCH   6  11
HETATM   11  C           1     -20.620  -8.361  -4.116  0.00  0.00     0.199 C 
HETATM   12  O           1     -19.388  -8.578  -4.092  0.00  0.00    -0.646 OA
HETATM   13  O           1     -21.412  -9.286  -4.393  0.00  0.00    -0.646 OA
ENDBRANCH   6  11
ENDBRANCH   3   6
ENDBRANCH   1   2
BRANCH   1  14
HETATM   14  C           1     -21.689  -3.806  -7.502  0.00  0.00     0.101 C 
BRANCH  14  15
HETATM   15  C           1     -21.400  -3.998  -8.958  0.00  0.00     0.028 A 
HETATM   16  C           1     -20.213  -4.473  -9.463  0.00  0.00     0.114 A 
HETATM   17  N           1     -20.385  -4.486 -10.820  0.00  0.00    -0.360 N 
HETATM   18  C           1     -21.645  -4.026 -11.078  0.00  0.00     0.180 A 
HETATM   19  H           1     -19.677  -4.792 -11.532  0.00  0.00     0.166 HD
HETATM   20  N           1     -22.283  -3.723  -9.970  0.00  0.00    -0.355 N 
ATOM     21  HN          1     -23.232  -3.360  -9.882  1.00  0.00     0.166 HD
ENDBRANCH  14  15
ENDBRANCH   1  14
BRANCH   1  22
HETATM   22  N           1     -23.690  -4.797  -6.453  0.00  0.00    -0.066 N 
HETATM   23  H           1     -24.346  -5.509  -6.847  0.00  0.00     0.275 HD
HETATM   24  H           1     -23.980  -3.843  -6.767  0.00  0.00     0.275 HD
HETATM   25  H           1     -23.716  -4.841  -5.409  0.00  0.00     0.275 HD
ENDBRANCH   1  22
TORSDOF 8
ENDMDL
MODEL 4
REMARK VINA RESULT:      -5.5      5.400      7.999
REMARK  8 active torsions:
REMARK  status: ('A' for Active; 'I' for Inactive)
REMARK    1  A    between atoms: C_1  and  C_6 
REMARK    2  A    between atoms: C_1  and  C_11 
REMARK    3  A    between atoms: C_1  and  N_14 
REMARK       I    between atoms: C_6  and  N_7 
REMARK    4  A    between atoms: N_7  and  C_24 
REMARK    5  A    between atoms: C_9  and  C_11 
REMARK    6  A    between atoms: C_22  and  O_23 
REMARK    7  A    between atoms: C_22  and  C_24 
REMARK    8  A    between atoms: C_24  and  C_25 
ROOT
HETATM    1  C           1     -19.926  -8.637  -4.841  0.00  0.00     0.280 C 
ENDROOT
BRANCH   1   2
HETATM    2  C           1     -19.978  -8.684  -3.333  0.00  0.00     0.249 C 
HETATM    3  N           1     -21.139  -8.373  -2.678  0.00  0.00    -0.343 N 
HETATM    4  H           1     -21.962  -8.110  -3.205  0.00  0.00     0.163 HD
HETATM    5  O           1     -18.996  -8.999  -2.703  0.00  0.00    -0.271 OA
BRANCH   3   6
HETATM    6  C           1     -21.190  -8.418  -1.230  0.00  0.00     0.214 C 
BRANCH   6   7
HETATM    7  C           1     -21.948  -7.204  -0.709  0.00  0.00     0.147 C 
HETATM    8  C           1     -22.322  -6.300  -1.876  0.00  0.00     0.042 C 
BRANCH   7   9
HETATM    9  O           1     -23.113  -7.627  -0.053  0.00  0.00    -0.393 OA
HETATM   10  H           1     -22.890  -7.741   0.855  0.00  0.00     0.210 HD
ENDBRANCH   7   9
ENDBRANCH   6   7
BRANCH   6  11
HETATM   11  C           1     -21.896  -9.677  -0.791  0.00  0.00     0.199 C 
HETATM   12  O           1     -21.658 -10.166   0.336  0.00  0.00    -0.646 OA
HETATM   13  O           1     -22.717 -10.231  -1.552  0.00  0.00    -0.646 OA
ENDBRANCH   6  11
ENDBRANCH   3   6
ENDBRANCH   1   2
BRANCH   1  14
HETATM   14  C           1     -21.142  -7.886  -5.368  0.00  0.00     0.101 C 
BRANCH  14  15
HETATM   15  C           1     -20.714  -6.558  -5.910  0.00  0.00     0.028 A 
HETATM   16  C           1     -20.829  -5.365  -5.237  0.00  0.00     0.114 A 
HETATM   17  N           1     -20.324  -4.426  -6.092  0.00  0.00    -0.360 N 
HETATM   18  C           1     -19.930  -5.074  -7.228  0.00  0.00     0.180 A 
HETATM   19  H           1     -20.252  -3.394  -5.909  0.00  0.00     0.166 HD
HETATM   20  N           1     -20.154  -6.366  -7.147  0.00  0.00    -0.355 N 
ATOM     21  HN          1     -19.955  -7.075  -7.853  1.00  0.00     0.166 HD
ENDBRANCH  14  15
ENDBRANCH   1  14
BRANCH   1  22
HETATM   22  N           1     -19.927 -10.034  -5.384  0.00  0.00    -0.066 N 
HETATM   23  H           1     -19.116 -10.158  -6.030  0.00  0.00     0.275 HD
HETATM   24  H           1     -20.818 -10.205  -5.905  0.00  0.00     0.275 HD
HETATM   25  H           1     -19.851 -10.715  -4.595  0.00  0.00     0.275 HD
ENDBRANCH   1  22
TORSDOF 8
ENDMDL
MODEL 5
REMARK VINA RESULT:      -5.4      4.159      7.840
REMARK  8 active torsions:
REMARK  status: ('A' for Active; 'I' for Inactive)
REMARK    1  A    between atoms: C_1  and  C_6 
REMARK    2  A    between atoms: C_1  and  C_11 
REMARK    3  A    between atoms: C_1  and  N_14 
REMARK       I    between atoms: C_6  and  N_7 
REMARK    4  A    between atoms: N_7  and  C_24 
REMARK    5  A    between atoms: C_9  and  C_11 
REMARK    6  A    between atoms: C_22  and  O_23 
REMARK    7  A    between atoms: C_22  and  C_24 
REMARK    8  A    between atoms: C_24  and  C_25 
ROOT
HETATM    1  C           1     -21.621  -6.646  -5.414  0.00  0.00     0.280 C 
ENDROOT
BRANCH   1   2
HETATM    2  C           1     -20.879  -7.450  -4.374  0.00  0.00     0.249 C 
HETATM    3  N           1     -21.462  -7.709  -3.163  0.00  0.00    -0.343 N 
HETATM    4  H           1     -22.391  -7.360  -2.964  0.00  0.00     0.163 HD
HETATM    5  O           1     -19.770  -7.867  -4.611  0.00  0.00    -0.271 OA
BRANCH   3   6
HETATM    6  C           1     -20.749  -8.481  -2.164  0.00  0.00     0.214 C 
BRANCH   6   7
HETATM    7  C           1     -21.113  -7.974  -0.774  0.00  0.00     0.147 C 
HETATM    8  C           1     -22.325  -7.058  -0.869  0.00  0.00     0.042 C 
BRANCH   7   9
HETATM    9  O           1     -21.413  -9.063   0.056  0.00  0.00    -0.393 OA
HETATM   10  H           1     -21.418  -8.739   0.941  0.00  0.00     0.210 HD
ENDBRANCH   7   9
ENDBRANCH   6   7
BRANCH   6  11
HETATM   11  C           1     -21.134  -9.935  -2.284  0.00  0.00     0.199 C 
HETATM   12  O           1     -22.325 -10.250  -2.500  0.00  0.00    -0.646 OA
HETATM   13  O           1     -20.264 -10.823  -2.169  0.00  0.00    -0.646 OA
ENDBRANCH   6  11
ENDBRANCH   3   6
ENDBRANCH   1   2
BRANCH   1  14
HETATM   14  C           1     -20.856  -5.361  -5.704  0.00  0.00     0.101 C 
BRANCH  14  15
HETATM   15  C           1     -21.246  -4.841  -7.052  0.00  0.00     0.028 A 
HETATM   16  C           1     -20.558  -5.094  -8.216  0.00  0.00     0.114 A 
HETATM   17  N           1     -21.255  -4.433  -9.189  0.00  0.00    -0.360 N 
HETATM   18  C           1     -22.316  -3.817  -8.588  0.00  0.00     0.180 A 
HETATM   19  H           1     -21.017  -4.404 -10.212  0.00  0.00     0.166 HD
HETATM   20  N           1     -22.336  -4.046  -7.295  0.00  0.00    -0.355 N 
ATOM     21  HN          1     -23.017  -3.705  -6.616  1.00  0.00     0.166 HD
ENDBRANCH  14  15
ENDBRANCH   1  14
BRANCH   1  22
HETATM   22  N           1     -22.988  -6.308  -4.899  0.00  0.00    -0.066 N 
HETATM   23  H           1     -23.571  -7.175  -4.861  0.00  0.00     0.275 HD
HETATM   24  H           1     -23.438  -5.613  -5.537  0.00  0.00     0.275 HD
HETATM   25  H           1     -22.909  -5.900  -3.940  0.00  0.00     0.275 HD
ENDBRANCH   1  22
TORSDOF 8
ENDMDL
MODEL 6
REMARK VINA RESULT:      -5.3      3.926      7.108
REMARK  8 active torsions:
REMARK  status: ('A' for Active; 'I' for Inactive)
REMARK    1  A    between atoms: C_1  and  C_6 
REMARK    2  A    between atoms: C_1  and  C_11 
REMARK    3  A    between atoms: C_1  and  N_14 
REMARK       I    between atoms: C_6  and  N_7 
REMARK    4  A    between atoms: N_7  and  C_24 
REMARK    5  A    between atoms: C_9  and  C_11 
REMARK    6  A    between atoms: C_22  and  O_23 
REMARK    7  A    between atoms: C_22  and  C_24 
REMARK    8  A    between atoms: C_24  and  C_25 
ROOT
HETATM    1  C           1     -21.612  -6.172  -5.615  0.00  0.00     0.280 C 
ENDROOT
BRANCH   1   2
HETATM    2  C           1     -20.437  -7.114  -5.713  0.00  0.00     0.249 C 
HETATM    3  N           1     -20.251  -8.078  -4.759  0.00  0.00    -0.343 N 
HETATM    4  H           1     -20.901  -8.158  -3.988  0.00  0.00     0.163 HD
HETATM    5  O           1     -19.661  -7.019  -6.634  0.00  0.00    -0.271 OA
BRANCH   3   6
HETATM    6  C           1     -19.122  -8.983  -4.853  0.00  0.00     0.214 C 
BRANCH   6   7
HETATM    7  C           1     -18.608  -9.302  -3.455  0.00  0.00     0.147 C 
HETATM    8  C           1     -19.649  -8.886  -2.424  0.00  0.00     0.042 C 
BRANCH   7   9
HETATM    9  O           1     -18.369 -10.679  -3.348  0.00  0.00    -0.393 OA
HETATM   10  H           1     -19.157 -11.068  -3.010  0.00  0.00     0.210 HD
ENDBRANCH   7   9
ENDBRANCH   6   7
BRANCH   6  11
HETATM   11  C           1     -19.556 -10.259  -5.531  0.00  0.00     0.199 C 
HETATM   12  O           1     -20.639 -10.798  -5.212  0.00  0.00    -0.646 OA
HETATM   13  O           1     -18.835 -10.777  -6.410  0.00  0.00    -0.646 OA
ENDBRANCH   6  11
ENDBRANCH   3   6
ENDBRANCH   1   2
BRANCH   1  14
HETATM   14  C           1     -21.229  -4.819  -6.202  0.00  0.00     0.101 C 
BRANCH  14  15
HETATM   15  C           1     -22.026  -4.570  -7.445  0.00  0.00     0.028 A 
HETATM   16  C           1     -21.529  -4.662  -8.723  0.00  0.00     0.114 A 
HETATM   17  N           1     -22.584  -4.357  -9.537  0.00  0.00    -0.360 N 
HETATM   18  C           1     -23.658  -4.095  -8.734  0.00  0.00     0.180 A 
HETATM   19  H           1     -22.571  -4.328 -10.586  0.00  0.00     0.166 HD
HETATM   20  N           1     -23.350  -4.215  -7.463  0.00  0.00    -0.355 N 
ATOM     21  HN          1     -23.964  -4.075  -6.661  1.00  0.00     0.166 HD
ENDBRANCH  14  15
ENDBRANCH   1  14
BRANCH   1  22
HETATM   22  N           1     -21.995  -6.001  -4.176  0.00  0.00    -0.066 N 
HETATM   23  H           1     -21.264  -5.440  -3.684  0.00  0.00     0.275 HD
HETATM   24  H           1     -22.077  -6.940  -3.724  0.00  0.00     0.275 HD
HETATM   25  H           1     -22.913  -5.506  -4.116  0.00  0.00     0.275 HD
ENDBRANCH   1  22
TORSDOF 8
ENDMDL
MODEL 7
REMARK VINA RESULT:      -5.1      3.200      6.785
REMARK  8 active torsions:
REMARK  status: ('A' for Active; 'I' for Inactive)
REMARK    1  A    between atoms: C_1  and  C_6 
REMARK    2  A    between atoms: C_1  and  C_11 
REMARK    3  A    between atoms: C_1  and  N_14 
REMARK       I    between atoms: C_6  and  N_7 
REMARK    4  A    between atoms: N_7  and  C_24 
REMARK    5  A    between atoms: C_9  and  C_11 
REMARK    6  A    between atoms: C_22  and  O_23 
REMARK    7  A    between atoms: C_22  and  C_24 
REMARK    8  A    between atoms: C_24  and  C_25 
ROOT
HETATM    1  C           1     -21.803  -4.553  -7.011  0.00  0.00     0.280 C 
ENDROOT
BRANCH   1   2
HETATM    2  C           1     -20.863  -5.364  -6.153  0.00  0.00     0.249 C 
HETATM    3  N           1     -21.358  -6.337  -5.326  0.00  0.00    -0.343 N 
HETATM    4  H           1     -22.354  -6.511  -5.290  0.00  0.00     0.163 HD
HETATM    5  O           1     -19.674  -5.156  -6.195  0.00  0.00    -0.271 OA
BRANCH   3   6
HETATM    6  C           1     -20.455  -7.115  -4.501  0.00  0.00     0.214 C 
BRANCH   6   7
HETATM    7  C           1     -21.066  -7.305  -3.118  0.00  0.00     0.147 C 
HETATM    8  C           1     -22.092  -6.210  -2.862  0.00  0.00     0.042 C 
BRANCH   7   9
HETATM    9  O           1     -21.692  -8.558  -3.052  0.00  0.00    -0.393 OA
HETATM   10  H           1     -21.013  -9.207  -3.112  0.00  0.00     0.210 HD
ENDBRANCH   7   9
ENDBRANCH   6   7
BRANCH   6  11
HETATM   11  C           1     -20.228  -8.464  -5.139  0.00  0.00     0.199 C 
HETATM   12  O           1     -21.075  -8.928  -5.934  0.00  0.00    -0.646 OA
HETATM   13  O           1     -19.196  -9.115  -4.873  0.00  0.00    -0.646 OA
ENDBRANCH   6  11
ENDBRANCH   3   6
ENDBRANCH   1   2
BRANCH   1  14
HETATM   14  C           1     -21.675  -4.996  -8.463  0.00  0.00     0.101 C 
BRANCH  14  15
HETATM   15  C           1     -22.890  -4.568  -9.226  0.00  0.00     0.028 A 
HETATM   16  C           1     -24.078  -4.183  -8.650  0.00  0.00     0.114 A 
HETATM   17  N           1     -24.899  -3.881  -9.701  0.00  0.00    -0.360 N 
HETATM   18  C           1     -24.190  -4.092 -10.849  0.00  0.00     0.180 A 
HETATM   19  H           1     -25.893  -3.548  -9.637  0.00  0.00     0.166 HD
HETATM   20  N           1     -22.971  -4.509 -10.593  0.00  0.00    -0.355 N 
ATOM     21  HN          1     -22.241  -4.740 -11.267  1.00  0.00     0.166 HD
ENDBRANCH  14  15
ENDBRANCH   1  14
BRANCH   1  22
HETATM   22  N           1     -21.452  -3.100  -6.900  0.00  0.00    -0.066 N 
HETATM   23  H           1     -20.611  -2.899  -7.486  0.00  0.00     0.275 HD
HETATM   24  H           1     -21.247  -2.867  -5.902  0.00  0.00     0.275 HD
HETATM   25  H           1     -22.255  -2.521  -7.233  0.00  0.00     0.275 HD
ENDBRANCH   1  22
TORSDOF 8
ENDMDL
MODEL 8
REMARK VINA RESULT:      -4.9      4.188      6.985
REMARK  8 active torsions:
REMARK  status: ('A' for Active; 'I' for Inactive)
REMARK    1  A    between atoms: C_1  and  C_6 
REMARK    2  A    between atoms: C_1  and  C_11 
REMARK    3  A    between atoms: C_1  and  N_14 
REMARK       I    between atoms: C_6  and  N_7 
REMARK    4  A    between atoms: N_7  and  C_24 
REMARK    5  A    between atoms: C_9  and  C_11 
REMARK    6  A    between atoms: C_22  and  O_23 
REMARK    7  A    between atoms: C_22  and  C_24 
REMARK    8  A    between atoms: C_24  and  C_25 
ROOT
HETATM    1  C           1     -21.499  -6.794  -5.268  0.00  0.00     0.280 C 
ENDROOT
BRANCH   1   2
HETATM    2  C           1     -20.654  -7.957  -4.811  0.00  0.00     0.249 C 
HETATM    3  N           1     -20.328  -8.955  -5.690  0.00  0.00    -0.343 N 
HETATM    4  H           1     -20.655  -8.912  -6.647  0.00  0.00     0.163 HD
HETATM    5  O           1     -20.263  -8.009  -3.669  0.00  0.00    -0.271 OA
BRANCH   3   6
HETATM    6  C           1     -19.515 -10.073  -5.251  0.00  0.00     0.214 C 
BRANCH   6   7
HETATM    7  C           1     -20.016 -11.354  -5.906  0.00  0.00     0.147 C 
HETATM    8  C           1     -21.500 -11.217  -6.219  0.00  0.00     0.042 C 
BRANCH   7   9
HETATM    9  O           1     -19.307 -11.579  -7.094  0.00  0.00    -0.393 OA
HETATM   10  H           1     -18.840 -10.784  -7.289  0.00  0.00     0.210 HD
ENDBRANCH   7   9
ENDBRANCH   6   7
BRANCH   6  11
HETATM   11  C           1     -18.079  -9.836  -5.646  0.00  0.00     0.199 C 
HETATM   12  O           1     -17.159 -10.420  -5.033  0.00  0.00    -0.646 OA
HETATM   13  O           1     -17.809  -9.057  -6.584  0.00  0.00    -0.646 OA
ENDBRANCH   6  11
ENDBRANCH   3   6
ENDBRANCH   1   2
BRANCH   1  14
HETATM   14  C           1     -20.595  -5.663  -5.741  0.00  0.00     0.101 C 
BRANCH  14  15
HETATM   15  C           1     -21.116  -5.111  -7.031  0.00  0.00     0.028 A 
HETATM   16  C           1     -22.338  -4.499  -7.182  0.00  0.00     0.114 A 
HETATM   17  N           1     -22.402  -4.156  -8.504  0.00  0.00    -0.360 N 
HETATM   18  C           1     -21.239  -4.568  -9.090  0.00  0.00     0.180 A 
HETATM   19  H           1     -23.199  -3.667  -8.980  0.00  0.00     0.166 HD
HETATM   20  N           1     -20.442  -5.150  -8.224  0.00  0.00    -0.355 N 
ATOM     21  HN          1     -19.518  -5.546  -8.400  1.00  0.00     0.166 HD
ENDBRANCH  14  15
ENDBRANCH   1  14
BRANCH   1  22
HETATM   22  N           1     -22.345  -6.314  -4.127  0.00  0.00    -0.066 N 
HETATM   23  H           1     -21.734  -6.098  -3.307  0.00  0.00     0.275 HD
HETATM   24  H           1     -23.031  -7.058  -3.865  0.00  0.00     0.275 HD
HETATM   25  H           1     -22.860  -5.451  -4.414  0.00  0.00     0.275 HD
ENDBRANCH   1  22
TORSDOF 8
ENDMDL
MODEL 9
REMARK VINA RESULT:      -4.8      6.096      8.047
REMARK  8 active torsions:
REMARK  status: ('A' for Active; 'I' for Inactive)
REMARK    1  A    between atoms: C_1  and  C_6 
REMARK    2  A    between atoms: C_1  and  C_11 
REMARK    3  A    between atoms: C_1  and  N_14 
REMARK       I    between atoms: C_6  and  N_7 
REMARK    4  A    between atoms: N_7  and  C_24 
REMARK    5  A    between atoms: C_9  and  C_11 
REMARK    6  A    between atoms: C_22  and  O_23 
REMARK    7  A    between atoms: C_22  and  C_24 
REMARK    8  A    between atoms: C_24  and  C_25 
ROOT
HETATM    1  C           1     -20.371  -8.931  -4.220  0.00  0.00     0.280 C 
ENDROOT
BRANCH   1   2
HETATM    2  C           1     -19.139  -9.216  -5.044  0.00  0.00     0.249 C 
HETATM    3  N           1     -18.204 -10.108  -4.592  0.00  0.00    -0.343 N 
HETATM    4  H           1     -18.338 -10.576  -3.705  0.00  0.00     0.163 HD
HETATM    5  O           1     -18.977  -8.657  -6.103  0.00  0.00    -0.271 OA
BRANCH   3   6
HETATM    6  C           1     -17.020 -10.382  -5.383  0.00  0.00     0.214 C 
BRANCH   6   7
HETATM    7  C           1     -15.775 -10.093  -4.553  0.00  0.00     0.147 C 
HETATM    8  C           1     -16.188  -9.661  -3.152  0.00  0.00     0.042 C 
BRANCH   7   9
HETATM    9  O           1     -14.989 -11.251  -4.472  0.00  0.00    -0.393 OA
HETATM   10  H           1     -14.581 -11.246  -3.623  0.00  0.00     0.210 HD
ENDBRANCH   7   9
ENDBRANCH   6   7
BRANCH   6  11
HETATM   11  C           1     -17.019 -11.831  -5.801  0.00  0.00     0.199 C 
HETATM   12  O           1     -16.466 -12.172  -6.870  0.00  0.00    -0.646 OA
HETATM   13  O           1     -17.569 -12.690  -5.081  0.00  0.00    -0.646 OA
ENDBRANCH   6  11
ENDBRANCH   3   6
ENDBRANCH   1   2
BRANCH   1  14
HETATM   14  C           1     -19.958  -8.557  -2.802  0.00  0.00     0.101 C 
BRANCH  14  15
HETATM   15  C           1     -20.978  -7.633  -2.212  0.00  0.00     0.028 A 
HETATM   16  C           1     -21.395  -6.458  -2.791  0.00  0.00     0.114 A 
HETATM   17  N           1     -22.319  -5.944  -1.923  0.00  0.00    -0.360 N 
HETATM   18  C           1     -22.422  -6.811  -0.873  0.00  0.00     0.180 A 
HETATM   19  H           1     -22.850  -5.047  -2.043  0.00  0.00     0.166 HD
HETATM   20  N           1     -21.622  -7.842  -1.020  0.00  0.00    -0.355 N 
ATOM     21  HN          1     -21.505  -8.631  -0.383  1.00  0.00     0.166 HD
ENDBRANCH  14  15
ENDBRANCH   1  14
BRANCH   1  22
HETATM   22  N           1     -21.238 -10.154  -4.181  0.00  0.00    -0.066 N 
HETATM   23  H           1     -22.236  -9.878  -4.321  0.00  0.00     0.275 HD
HETATM   24  H           1     -21.133 -10.626  -3.255  0.00  0.00     0.275 HD
HETATM   25  H           1     -20.949 -10.810  -4.941  0.00  0.00     0.275 HD
ENDBRANCH   1  22
TORSDOF 8
ENDMDL
