MODEL 1
REMARK VINA RESULT:      -6.8      0.000      0.000
REMARK  9 active torsions:
REMARK  status: ('A' for Active; 'I' for Inactive)
REMARK    1  A    between atoms: N_2  and  C_25 
REMARK       I    between atoms: N_2  and  C_10 
REMARK       I    between atoms: N_4  and  C_16 
REMARK    2  A    between atoms: N_6  and  C_11 
REMARK    3  A    between atoms: C_10  and  C_11 
REMARK    4  A    between atoms: C_11  and  C_18 
REMARK    5  A    between atoms: C_16  and  C_17 
REMARK    6  A    between atoms: C_17  and  C_18 
REMARK    7  A    between atoms: C_23  and  C_25 
REMARK    8  A    between atoms: C_25  and  C_26 
REMARK    9  A    between atoms: C_26  and  C_27 
ROOT
HETATM    1  H           1     -21.669  -8.244  -6.415  0.00  0.00     0.163 HD
HETATM    2  N           1     -20.930  -7.754  -5.927  0.00  0.00    -0.344 N 
HETATM    3  O           1     -19.530  -6.564  -7.198  0.00  0.00    -0.271 OA
HETATM    4  C           1     -20.454  -6.568  -6.420  0.00  0.00     0.249 C 
ENDROOT
BRANCH   4   5
HETATM    5  C           1     -21.085  -5.266  -5.990  0.00  0.00     0.275 C 
BRANCH   5   6
HETATM    6  N           1     -20.102  -4.481  -5.174  0.00  0.00    -0.066 N 
HETATM    7  H           1     -19.146  -4.585  -5.582  0.00  0.00     0.275 HD
HETATM    8  H           1     -20.373  -3.472  -5.179  0.00  0.00     0.275 HD
HETATM    9  H           1     -20.102  -4.838  -4.192  0.00  0.00     0.275 HD
ENDBRANCH   5   6
BRANCH   5  10
HETATM   10  C           1     -21.478  -4.461  -7.222  0.00  0.00     0.052 C 
BRANCH  10  11
HETATM   11  C           1     -22.994  -4.465  -7.368  0.00  0.00     0.105 C 
BRANCH  11  12
HETATM   12  C           1     -23.364  -4.095  -8.783  0.00  0.00     0.215 C 
HETATM   13  N           1     -24.490  -3.355  -9.025  0.00  0.00    -0.370 N 
HETATM   14  H           1     -24.739  -3.107  -9.975  0.00  0.00     0.159 HD
HETATM   15  H           1     -25.075  -3.057  -8.255  0.00  0.00     0.159 HD
HETATM   16  O           1     -22.667  -4.451  -9.703  0.00  0.00    -0.274 OA
ENDBRANCH  11  12
ENDBRANCH  10  11
ENDBRANCH   5  10
ENDBRANCH   4   5
BRANCH   2  17
HETATM   17  C           1     -20.374  -8.307  -4.708  0.00  0.00     0.189 C 
BRANCH  17  18
HETATM   18  C           1     -19.208  -9.203  -5.049  0.00  0.00     0.197 C 
HETATM   19  O           1     -18.202  -9.229  -4.307  0.00  0.00    -0.646 OA
HETATM   20  O           1     -19.249  -9.919  -6.073  0.00  0.00    -0.646 OA
ENDBRANCH  17  18
BRANCH  17  21
HETATM   21  C           1     -21.443  -9.117  -3.986  0.00  0.00     0.074 C 
BRANCH  21  22
HETATM   22  C           1     -21.744  -8.481  -2.664  0.00  0.00    -0.056 A 
HETATM   23  C           1     -21.867  -9.271  -1.521  0.00  0.00     0.007 A 
HETATM   24  C           1     -22.147  -8.678  -0.290  0.00  0.00     0.001 A 
HETATM   25  C           1     -22.303  -7.295  -0.202  0.00  0.00     0.000 A 
HETATM   26  C           1     -22.180  -6.504  -1.345  0.00  0.00     0.001 A 
HETATM   27  C           1     -21.900  -7.097  -2.575  0.00  0.00     0.007 A 
ENDBRANCH  21  22
ENDBRANCH  17  21
ENDBRANCH   2  17
TORSDOF 9
ENDMDL
MODEL 2
REMARK VINA RESULT:      -6.8      1.786      2.243
REMARK  9 active torsions:
REMARK  status: ('A' for Active; 'I' for Inactive)
REMARK    1  A    between atoms: N_2  and  C_25 
REMARK       I    between atoms: N_2  and  C_10 
REMARK       I    between atoms: N_4  and  C_16 
REMARK    2  A    between atoms: N_6  and  C_11 
REMARK    3  A    between atoms: C_10  and  C_11 
REMARK    4  A    between atoms: C_11  and  C_18 
REMARK    5  A    between atoms: C_16  and  C_17 
REMARK    6  A    between atoms: C_17  and  C_18 
REMARK    7  A    between atoms: C_23  and  C_25 
REMARK    8  A    between atoms: C_25  and  C_26 
REMARK    9  A    between atoms: C_26  and  C_27 
ROOT
HETATM    1  H           1     -19.753  -7.481  -7.553  0.00  0.00     0.163 HD
HETATM    2  N           1     -19.897  -6.861  -6.767  0.00  0.00    -0.344 N 
HETATM    3  O           1     -19.114  -4.781  -6.995  0.00  0.00    -0.271 OA
HETATM    4  C           1     -20.071  -5.519  -6.976  0.00  0.00     0.249 C 
ENDROOT
BRANCH   4   5
HETATM    5  C           1     -21.457  -4.961  -7.184  0.00  0.00     0.275 C 
BRANCH   5   6
HETATM    6  N           1     -21.460  -3.497  -6.860  0.00  0.00    -0.066 N 
HETATM    7  H           1     -22.413  -3.212  -6.539  0.00  0.00     0.275 HD
HETATM    8  H           1     -20.767  -3.307  -6.101  0.00  0.00     0.275 HD
HETATM    9  H           1     -21.202  -2.952  -7.713  0.00  0.00     0.275 HD
ENDBRANCH   5   6
BRANCH   5  10
HETATM   10  C           1     -21.873  -5.161  -8.635  0.00  0.00     0.052 C 
BRANCH  10  11
HETATM   11  C           1     -21.695  -3.855  -9.399  0.00  0.00     0.105 C 
BRANCH  11  12
HETATM   12  C           1     -20.763  -4.078 -10.565  0.00  0.00     0.215 C 
HETATM   13  N           1     -20.913  -3.345 -11.711  0.00  0.00    -0.370 N 
HETATM   14  H           1     -20.288  -3.495 -12.493  0.00  0.00     0.159 HD
HETATM   15  H           1     -21.651  -2.655 -11.778  0.00  0.00     0.159 HD
HETATM   16  O           1     -19.882  -4.902 -10.486  0.00  0.00    -0.274 OA
ENDBRANCH  11  12
ENDBRANCH  10  11
ENDBRANCH   5  10
ENDBRANCH   4   5
BRANCH   2  17
HETATM   17  C           1     -19.918  -7.392  -5.418  0.00  0.00     0.189 C 
BRANCH  17  18
HETATM   18  C           1     -18.949  -8.545  -5.317  0.00  0.00     0.197 C 
HETATM   19  O           1     -18.501  -9.077  -6.356  0.00  0.00    -0.646 OA
HETATM   20  O           1     -18.595  -8.968  -4.195  0.00  0.00    -0.646 OA
ENDBRANCH  17  18
BRANCH  17  21
HETATM   21  C           1     -21.323  -7.879  -5.088  0.00  0.00     0.074 C 
BRANCH  21  22
HETATM   22  C           1     -21.613  -7.624  -3.641  0.00  0.00    -0.056 A 
HETATM   23  C           1     -21.867  -6.326  -3.198  0.00  0.00     0.007 A 
HETATM   24  C           1     -22.137  -6.089  -1.851  0.00  0.00     0.001 A 
HETATM   25  C           1     -22.153  -7.150  -0.946  0.00  0.00     0.000 A 
HETATM   26  C           1     -21.899  -8.448  -1.388  0.00  0.00     0.001 A 
HETATM   27  C           1     -21.629  -8.686  -2.735  0.00  0.00     0.007 A 
ENDBRANCH  21  22
ENDBRANCH  17  21
ENDBRANCH   2  17
TORSDOF 9
ENDMDL
MODEL 3
REMARK VINA RESULT:      -6.5      3.794      5.519
REMARK  9 active torsions:
REMARK  status: ('A' for Active; 'I' for Inactive)
REMARK    1  A    between atoms: N_2  and  C_25 
REMARK       I    between atoms: N_2  and  C_10 
REMARK       I    between atoms: N_4  and  C_16 
REMARK    2  A    between atoms: N_6  and  C_11 
REMARK    3  A    between atoms: C_10  and  C_11 
REMARK    4  A    between atoms: C_11  and  C_18 
REMARK    5  A    between atoms: C_16  and  C_17 
REMARK    6  A    between atoms: C_17  and  C_18 
REMARK    7  A    between atoms: C_23  and  C_25 
REMARK    8  A    between atoms: C_25  and  C_26 
REMARK    9  A    between atoms: C_26  and  C_27 
ROOT
HETATM    1  H           1     -23.522 -11.265  -3.482  0.00  0.00     0.163 HD
HETATM    2  N           1     -22.715 -11.579  -2.958  0.00  0.00    -0.344 N 
HETATM    3  O           1     -20.960 -12.258  -4.162  0.00  0.00    -0.271 OA
HETATM    4  C           1     -21.456 -11.402  -3.467  0.00  0.00     0.249 C 
ENDROOT
BRANCH   4   5
HETATM    5  C           1     -20.689 -10.139  -3.163  0.00  0.00     0.275 C 
BRANCH   5   6
HETATM    6  N           1     -19.573  -9.983  -4.152  0.00  0.00    -0.066 N 
HETATM    7  H           1     -18.876 -10.750  -4.016  0.00  0.00     0.275 HD
HETATM    8  H           1     -19.958 -10.031  -5.122  0.00  0.00     0.275 HD
HETATM    9  H           1     -19.106  -9.059  -4.006  0.00  0.00     0.275 HD
ENDBRANCH   5   6
BRANCH   5  10
HETATM   10  C           1     -21.624  -8.941  -3.259  0.00  0.00     0.052 C 
BRANCH  10  11
HETATM   11  C           1     -20.922  -7.704  -2.714  0.00  0.00     0.105 C 
BRANCH  11  12
HETATM   12  C           1     -21.772  -6.486  -2.978  0.00  0.00     0.215 C 
HETATM   13  N           1     -22.313  -5.788  -1.931  0.00  0.00    -0.370 N 
HETATM   14  H           1     -22.883  -4.971  -2.108  0.00  0.00     0.159 HD
HETATM   15  H           1     -22.144  -6.091  -0.980  0.00  0.00     0.159 HD
HETATM   16  O           1     -21.974  -6.124  -4.113  0.00  0.00    -0.274 OA
ENDBRANCH  11  12
ENDBRANCH  10  11
ENDBRANCH   5  10
ENDBRANCH   4   5
BRANCH   2  17
HETATM   17  C           1     -22.891 -12.216  -1.667  0.00  0.00     0.189 C 
BRANCH  17  18
HETATM   18  C           1     -23.565 -13.553  -1.856  0.00  0.00     0.197 C 
HETATM   19  O           1     -24.497 -13.895  -1.096  0.00  0.00    -0.646 OA
HETATM   20  O           1     -23.192 -14.318  -2.771  0.00  0.00    -0.646 OA
ENDBRANCH  17  18
BRANCH  17  21
HETATM   21  C           1     -23.757 -11.331  -0.780  0.00  0.00     0.074 C 
BRANCH  21  22
HETATM   22  C           1     -22.894 -10.324  -0.084  0.00  0.00    -0.056 A 
HETATM   23  C           1     -21.634 -10.692   0.386  0.00  0.00     0.007 A 
HETATM   24  C           1     -20.830  -9.754   1.034  0.00  0.00     0.001 A 
HETATM   25  C           1     -21.287  -8.448   1.211  0.00  0.00     0.000 A 
HETATM   26  C           1     -22.548  -8.080   0.740  0.00  0.00     0.001 A 
HETATM   27  C           1     -23.351  -9.018   0.093  0.00  0.00     0.007 A 
ENDBRANCH  21  22
ENDBRANCH  17  21
ENDBRANCH   2  17
TORSDOF 9
ENDMDL
MODEL 4
REMARK VINA RESULT:      -6.5      2.378      4.144
REMARK  9 active torsions:
REMARK  status: ('A' for Active; 'I' for Inactive)
REMARK    1  A    between atoms: N_2  and  C_25 
REMARK       I    between atoms: N_2  and  C_10 
REMARK       I    between atoms: N_4  and  C_16 
REMARK    2  A    between atoms: N_6  and  C_11 
REMARK    3  A    between atoms: C_10  and  C_11 
REMARK    4  A    between atoms: C_11  and  C_18 
REMARK    5  A    between atoms: C_16  and  C_17 
REMARK    6  A    between atoms: C_17  and  C_18 
REMARK    7  A    between atoms: C_23  and  C_25 
REMARK    8  A    between atoms: C_25  and  C_26 
REMARK    9  A    between atoms: C_26  and  C_27 
ROOT
HETATM    1  H           1     -20.917  -6.860  -2.690  0.00  0.00     0.163 HD
HETATM    2  N           1     -20.962  -7.353  -3.573  0.00  0.00    -0.344 N 
HETATM    3  O           1     -22.523  -6.661  -5.013  0.00  0.00    -0.271 OA
HETATM    4  C           1     -21.354  -6.694  -4.707  0.00  0.00     0.249 C 
ENDROOT
BRANCH   4   5
HETATM    5  C           1     -20.328  -6.008  -5.575  0.00  0.00     0.275 C 
BRANCH   5   6
HETATM    6  N           1     -20.133  -6.797  -6.835  0.00  0.00    -0.066 N 
HETATM    7  H           1     -19.121  -7.034  -6.946  0.00  0.00     0.275 HD
HETATM    8  H           1     -20.693  -7.678  -6.785  0.00  0.00     0.275 HD
HETATM    9  H           1     -20.449  -6.229  -7.654  0.00  0.00     0.275 HD
ENDBRANCH   5   6
BRANCH   5  10
HETATM   10  C           1     -20.812  -4.607  -5.923  0.00  0.00     0.052 C 
BRANCH  10  11
HETATM   11  C           1     -20.968  -4.484  -7.433  0.00  0.00     0.105 C 
BRANCH  11  12
HETATM   12  C           1     -22.402  -4.149  -7.764  0.00  0.00     0.215 C 
HETATM   13  N           1     -23.401  -4.469  -6.885  0.00  0.00    -0.370 N 
HETATM   14  H           1     -24.363  -4.244  -7.108  0.00  0.00     0.159 HD
HETATM   15  H           1     -23.178  -4.931  -6.013  0.00  0.00     0.159 HD
HETATM   16  O           1     -22.668  -3.597  -8.806  0.00  0.00    -0.274 OA
ENDBRANCH  11  12
ENDBRANCH  10  11
ENDBRANCH   5  10
ENDBRANCH   4   5
BRANCH   2  17
HETATM   17  C           1     -20.610  -8.758  -3.637  0.00  0.00     0.189 C 
BRANCH  17  18
HETATM   18  C           1     -21.741  -9.585  -3.077  0.00  0.00     0.197 C 
HETATM   19  O           1     -22.357 -10.383  -3.816  0.00  0.00    -0.646 OA
HETATM   20  O           1     -22.062  -9.472  -1.874  0.00  0.00    -0.646 OA
ENDBRANCH  17  18
BRANCH  17  21
HETATM   21  C           1     -19.349  -9.002  -2.818  0.00  0.00     0.074 C 
BRANCH  21  22
HETATM   22  C           1     -18.216  -9.344  -3.735  0.00  0.00    -0.056 A 
HETATM   23  C           1     -16.930  -9.516  -3.222  0.00  0.00     0.007 A 
HETATM   24  C           1     -15.875  -9.835  -4.077  0.00  0.00     0.001 A 
HETATM   25  C           1     -16.106  -9.983  -5.444  0.00  0.00     0.000 A 
HETATM   26  C           1     -17.391  -9.812  -5.957  0.00  0.00     0.001 A 
HETATM   27  C           1     -18.446  -9.493  -5.103  0.00  0.00     0.007 A 
ENDBRANCH  21  22
ENDBRANCH  17  21
ENDBRANCH   2  17
TORSDOF 9
ENDMDL
MODEL 5
REMARK VINA RESULT:      -6.5      2.527      4.043
REMARK  9 active torsions:
REMARK  status: ('A' for Active; 'I' for Inactive)
REMARK    1  A    between atoms: N_2  and  C_25 
REMARK       I    between atoms: N_2  and  C_10 
REMARK       I    between atoms: N_4  and  C_16 
REMARK    2  A    between atoms: N_6  and  C_11 
REMARK    3  A    between atoms: C_10  and  C_11 
REMARK    4  A    between atoms: C_11  and  C_18 
REMARK    5  A    between atoms: C_16  and  C_17 
REMARK    6  A    between atoms: C_17  and  C_18 
REMARK    7  A    between atoms: C_23  and  C_25 
REMARK    8  A    between atoms: C_25  and  C_26 
REMARK    9  A    between atoms: C_26  and  C_27 
ROOT
HETATM    1  H           1     -21.260  -5.727  -2.409  0.00  0.00     0.163 HD
HETATM    2  N           1     -21.473  -6.515  -3.008  0.00  0.00    -0.344 N 
HETATM    3  O           1     -22.940  -6.138  -4.650  0.00  0.00    -0.271 OA
HETATM    4  C           1     -21.788  -6.309  -4.324  0.00  0.00     0.249 C 
ENDROOT
BRANCH   4   5
HETATM    5  C           1     -20.699  -6.295  -5.368  0.00  0.00     0.275 C 
BRANCH   5   6
HETATM    6  N           1     -20.955  -7.379  -6.372  0.00  0.00    -0.066 N 
HETATM    7  H           1     -20.089  -7.548  -6.932  0.00  0.00     0.275 HD
HETATM    8  H           1     -21.224  -8.257  -5.874  0.00  0.00     0.275 HD
HETATM    9  H           1     -21.730  -7.087  -7.009  0.00  0.00     0.275 HD
ENDBRANCH   5   6
BRANCH   5  10
HETATM   10  C           1     -20.686  -4.944  -6.071  0.00  0.00     0.052 C 
BRANCH  10  11
HETATM   11  C           1     -21.138  -5.119  -7.515  0.00  0.00     0.105 C 
BRANCH  11  12
HETATM   12  C           1     -22.378  -4.293  -7.758  0.00  0.00     0.215 C 
HETATM   13  N           1     -23.482  -4.466  -6.967  0.00  0.00    -0.370 N 
HETATM   14  H           1     -24.313  -3.912  -7.130  0.00  0.00     0.159 HD
HETATM   15  H           1     -23.467  -5.149  -6.220  0.00  0.00     0.159 HD
HETATM   16  O           1     -22.396  -3.478  -8.649  0.00  0.00    -0.274 OA
ENDBRANCH  11  12
ENDBRANCH  10  11
ENDBRANCH   5  10
ENDBRANCH   4   5
BRANCH   2  17
HETATM   17  C           1     -21.444  -7.862  -2.472  0.00  0.00     0.189 C 
BRANCH  17  18
HETATM   18  C           1     -22.128  -7.881  -1.126  0.00  0.00     0.197 C 
HETATM   19  O           1     -22.717  -6.861  -0.710  0.00  0.00    -0.646 OA
HETATM   20  O           1     -22.104  -8.918  -0.428  0.00  0.00    -0.646 OA
ENDBRANCH  17  18
BRANCH  17  21
HETATM   21  C           1     -19.998  -8.313  -2.313  0.00  0.00     0.074 C 
BRANCH  21  22
HETATM   22  C           1     -19.632  -9.222  -3.446  0.00  0.00    -0.056 A 
HETATM   23  C           1     -20.613  -9.997  -4.064  0.00  0.00     0.007 A 
HETATM   24  C           1     -20.272 -10.843  -5.119  0.00  0.00     0.001 A 
HETATM   25  C           1     -18.949 -10.915  -5.555  0.00  0.00     0.000 A 
HETATM   26  C           1     -17.967 -10.140  -4.937  0.00  0.00     0.001 A 
HETATM   27  C           1     -18.309  -9.294  -3.883  0.00  0.00     0.007 A 
ENDBRANCH  21  22
ENDBRANCH  17  21
ENDBRANCH   2  17
TORSDOF 9
ENDMDL
MODEL 6
REMARK VINA RESULT:      -6.5      2.980      7.000
REMARK  9 active torsions:
REMARK  status: ('A' for Active; 'I' for Inactive)
REMARK    1  A    between atoms: N_2  and  C_25 
REMARK       I    between atoms: N_2  and  C_10 
REMARK       I    between atoms: N_4  and  C_16 
REMARK    2  A    between atoms: N_6  and  C_11 
REMARK    3  A    between atoms: C_10  and  C_11 
REMARK    4  A    between atoms: C_11  and  C_18 
REMARK    5  A    between atoms: C_16  and  C_17 
REMARK    6  A    between atoms: C_17  and  C_18 
REMARK    7  A    between atoms: C_23  and  C_25 
REMARK    8  A    between atoms: C_25  and  C_26 
REMARK    9  A    between atoms: C_26  and  C_27 
ROOT
HETATM    1  H           1     -23.557  -6.323  -4.003  0.00  0.00     0.163 HD
HETATM    2  N           1     -22.552  -6.429  -3.947  0.00  0.00    -0.344 N 
HETATM    3  O           1     -21.532  -5.308  -2.305  0.00  0.00    -0.271 OA
HETATM    4  C           1     -21.924  -6.369  -2.732  0.00  0.00     0.249 C 
ENDROOT
BRANCH   4   5
HETATM    5  C           1     -21.721  -7.627  -1.924  0.00  0.00     0.275 C 
BRANCH   5   6
HETATM    6  N           1     -20.256  -7.842  -1.693  0.00  0.00    -0.066 N 
HETATM    7  H           1     -19.707  -7.230  -2.339  0.00  0.00     0.275 HD
HETATM    8  H           1     -20.020  -7.602  -0.704  0.00  0.00     0.275 HD
HETATM    9  H           1     -20.018  -8.843  -1.876  0.00  0.00     0.275 HD
ENDBRANCH   5   6
BRANCH   5  10
HETATM   10  C           1     -22.431  -7.491  -0.583  0.00  0.00     0.052 C 
BRANCH  10  11
HETATM   11  C           1     -21.864  -8.507   0.398  0.00  0.00     0.105 C 
BRANCH  11  12
HETATM   12  C           1     -22.443  -9.869   0.103  0.00  0.00     0.215 C 
HETATM   13  N           1     -21.625 -10.966   0.059  0.00  0.00    -0.370 N 
HETATM   14  H           1     -22.013 -11.880  -0.139  0.00  0.00     0.159 HD
HETATM   15  H           1     -20.631 -10.863   0.223  0.00  0.00     0.159 HD
HETATM   16  O           1     -23.629  -9.992  -0.092  0.00  0.00    -0.274 OA
ENDBRANCH  11  12
ENDBRANCH  10  11
ENDBRANCH   5  10
ENDBRANCH   4   5
BRANCH   2  17
HETATM   17  C           1     -21.777  -6.644  -5.153  0.00  0.00     0.189 C 
BRANCH  17  18
HETATM   18  C           1     -20.985  -7.922  -5.020  0.00  0.00     0.197 C 
HETATM   19  O           1     -21.569  -9.026  -5.064  0.00  0.00    -0.646 OA
HETATM   20  O           1     -19.745  -7.876  -4.867  0.00  0.00    -0.646 OA
ENDBRANCH  17  18
BRANCH  17  21
HETATM   21  C           1     -20.822  -5.474  -5.356  0.00  0.00     0.074 C 
BRANCH  21  22
HETATM   22  C           1     -20.926  -4.984  -6.768  0.00  0.00    -0.056 A 
HETATM   23  C           1     -19.812  -5.032  -7.607  0.00  0.00     0.007 A 
HETATM   24  C           1     -19.909  -4.576  -8.921  0.00  0.00     0.001 A 
HETATM   25  C           1     -21.119  -4.074  -9.397  0.00  0.00     0.000 A 
HETATM   26  C           1     -22.233  -4.026  -8.559  0.00  0.00     0.001 A 
HETATM   27  C           1     -22.137  -4.482  -7.245  0.00  0.00     0.007 A 
ENDBRANCH  21  22
ENDBRANCH  17  21
ENDBRANCH   2  17
TORSDOF 9
ENDMDL
MODEL 7
REMARK VINA RESULT:      -6.4      3.801      5.161
REMARK  9 active torsions:
REMARK  status: ('A' for Active; 'I' for Inactive)
REMARK    1  A    between atoms: N_2  and  C_25 
REMARK       I    between atoms: N_2  and  C_10 
REMARK       I    between atoms: N_4  and  C_16 
REMARK    2  A    between atoms: N_6  and  C_11 
REMARK    3  A    between atoms: C_10  and  C_11 
REMARK    4  A    between atoms: C_11  and  C_18 
REMARK    5  A    between atoms: C_16  and  C_17 
REMARK    6  A    between atoms: C_17  and  C_18 
REMARK    7  A    between atoms: C_23  and  C_25 
REMARK    8  A    between atoms: C_25  and  C_26 
REMARK    9  A    between atoms: C_26  and  C_27 
ROOT
HETATM    1  H           1     -20.793 -11.633  -2.291  0.00  0.00     0.163 HD
HETATM    2  N           1     -19.912 -11.184  -2.076  0.00  0.00    -0.344 N 
HETATM    3  O           1     -18.375 -11.202  -3.698  0.00  0.00    -0.271 OA
HETATM    4  C           1     -19.195 -10.574  -3.070  0.00  0.00     0.249 C 
ENDROOT
BRANCH   4   5
HETATM    5  C           1     -19.428  -9.116  -3.382  0.00  0.00     0.275 C 
BRANCH   5   6
HETATM    6  N           1     -19.279  -8.891  -4.858  0.00  0.00    -0.066 N 
HETATM    7  H           1     -18.274  -8.992  -5.126  0.00  0.00     0.275 HD
HETATM    8  H           1     -19.849  -9.597  -5.376  0.00  0.00     0.275 HD
HETATM    9  H           1     -19.609  -7.930  -5.098  0.00  0.00     0.275 HD
ENDBRANCH   5   6
BRANCH   5  10
HETATM   10  C           1     -20.834  -8.722  -2.949  0.00  0.00     0.052 C 
BRANCH  10  11
HETATM   11  C           1     -20.778  -7.412  -2.174  0.00  0.00     0.105 C 
BRANCH  11  12
HETATM   12  C           1     -21.803  -6.454  -2.730  0.00  0.00     0.215 C 
HETATM   13  N           1     -21.792  -6.137  -4.062  0.00  0.00    -0.370 N 
HETATM   14  H           1     -22.480  -5.494  -4.435  0.00  0.00     0.159 HD
HETATM   15  H           1     -21.096  -6.544  -4.674  0.00  0.00     0.159 HD
HETATM   16  O           1     -22.634  -5.967  -2.001  0.00  0.00    -0.274 OA
ENDBRANCH  11  12
ENDBRANCH  10  11
ENDBRANCH   5  10
ENDBRANCH   4   5
BRANCH   2  17
HETATM   17  C           1     -19.408 -11.188  -0.717  0.00  0.00     0.189 C 
BRANCH  17  18
HETATM   18  C           1     -18.314 -12.220  -0.589  0.00  0.00     0.197 C 
HETATM   19  O           1     -18.594 -13.437  -0.643  0.00  0.00    -0.646 OA
HETATM   20  O           1     -17.128 -11.858  -0.430  0.00  0.00    -0.646 OA
ENDBRANCH  17  18
BRANCH  17  21
HETATM   21  C           1     -20.541 -11.528   0.243  0.00  0.00     0.074 C 
BRANCH  21  22
HETATM   22  C           1     -21.439 -10.339   0.396  0.00  0.00    -0.056 A 
HETATM   23  C           1     -22.736 -10.373  -0.115  0.00  0.00     0.007 A 
HETATM   24  C           1     -23.572  -9.266   0.028  0.00  0.00     0.001 A 
HETATM   25  C           1     -23.111  -8.125   0.684  0.00  0.00     0.000 A 
HETATM   26  C           1     -21.814  -8.090   1.196  0.00  0.00     0.001 A 
HETATM   27  C           1     -20.978  -9.197   1.053  0.00  0.00     0.007 A 
ENDBRANCH  21  22
ENDBRANCH  17  21
ENDBRANCH   2  17
TORSDOF 9
ENDMDL
MODEL 8
REMARK VINA RESULT:      -6.3      3.021      6.354
REMARK  9 active torsions:
REMARK  status: ('A' for Active; 'I' for Inactive)
REMARK    1  A    between atoms: N_2  and  C_25 
REMARK       I    between atoms: N_2  and  C_10 
REMARK       I    between atoms: N_4  and  C_16 
REMARK    2  A    between atoms: N_6  and  C_11 
REMARK    3  A    between atoms: C_10  and  C_11 
REMARK    4  A    between atoms: C_11  and  C_18 
REMARK    5  A    between atoms: C_16  and  C_17 
REMARK    6  A    between atoms: C_17  and  C_18 
REMARK    7  A    between atoms: C_23  and  C_25 
REMARK    8  A    between atoms: C_25  and  C_26 
REMARK    9  A    between atoms: C_26  and  C_27 
ROOT
HETATM    1  H           1     -19.042  -7.502  -4.866  0.00  0.00     0.163 HD
HETATM    2  N           1     -19.546  -8.210  -4.346  0.00  0.00    -0.344 N 
HETATM    3  O           1     -18.958 -10.329  -4.738  0.00  0.00    -0.271 OA
HETATM    4  C           1     -18.922  -9.377  -3.995  0.00  0.00     0.249 C 
ENDROOT
BRANCH   4   5
HETATM    5  C           1     -18.189  -9.474  -2.680  0.00  0.00     0.275 C 
BRANCH   5   6
HETATM    6  N           1     -18.529 -10.773  -2.013  0.00  0.00    -0.066 N 
HETATM    7  H           1     -18.192 -10.757  -1.024  0.00  0.00     0.275 HD
HETATM    8  H           1     -19.565 -10.909  -2.024  0.00  0.00     0.275 HD
HETATM    9  H           1     -18.068 -11.558  -2.526  0.00  0.00     0.275 HD
ENDBRANCH   5   6
BRANCH   5  10
HETATM   10  C           1     -16.688  -9.409  -2.928  0.00  0.00     0.052 C 
BRANCH  10  11
HETATM   11  C           1     -16.054 -10.745  -2.563  0.00  0.00     0.105 C 
BRANCH  11  12
HETATM   12  C           1     -15.434 -11.360  -3.793  0.00  0.00     0.215 C 
HETATM   13  N           1     -15.812 -10.934  -5.038  0.00  0.00    -0.370 N 
HETATM   14  H           1     -15.396 -11.347  -5.863  0.00  0.00     0.159 HD
HETATM   15  H           1     -16.510 -10.207  -5.133  0.00  0.00     0.159 HD
HETATM   16  O           1     -14.601 -12.229  -3.680  0.00  0.00    -0.274 OA
ENDBRANCH  11  12
ENDBRANCH  10  11
ENDBRANCH   5  10
ENDBRANCH   4   5
BRANCH   2  17
HETATM   17  C           1     -20.930  -7.988  -3.975  0.00  0.00     0.189 C 
BRANCH  17  18
HETATM   18  C           1     -21.630  -7.227  -5.075  0.00  0.00     0.197 C 
HETATM   19  O           1     -21.271  -7.375  -6.262  0.00  0.00    -0.646 OA
HETATM   20  O           1     -22.569  -6.450  -4.797  0.00  0.00    -0.646 OA
ENDBRANCH  17  18
BRANCH  17  21
HETATM   21  C           1     -20.985  -7.181  -2.684  0.00  0.00     0.074 C 
BRANCH  21  22
HETATM   22  C           1     -21.773  -7.933  -1.657  0.00  0.00    -0.056 A 
HETATM   23  C           1     -22.358  -7.252  -0.589  0.00  0.00     0.007 A 
HETATM   24  C           1     -23.091  -7.954   0.367  0.00  0.00     0.001 A 
HETATM   25  C           1     -23.240  -9.335   0.256  0.00  0.00     0.000 A 
HETATM   26  C           1     -22.656 -10.017  -0.812  0.00  0.00     0.001 A 
HETATM   27  C           1     -21.923  -9.316  -1.768  0.00  0.00     0.007 A 
ENDBRANCH  21  22
ENDBRANCH  17  21
ENDBRANCH   2  17
TORSDOF 9
ENDMDL
MODEL 9
REMARK VINA RESULT:      -6.3      1.549      2.060
REMARK  9 active torsions:
REMARK  status: ('A' for Active; 'I' for Inactive)
REMARK    1  A    between atoms: N_2  and  C_25 
REMARK       I    between atoms: N_2  and  C_10 
REMARK       I    between atoms: N_4  and  C_16 
REMARK    2  A    between atoms: N_6  and  C_11 
REMARK    3  A    between atoms: C_10  and  C_11 
REMARK    4  A    between atoms: C_11  and  C_18 
REMARK    5  A    between atoms: C_16  and  C_17 
REMARK    6  A    between atoms: C_17  and  C_18 
REMARK    7  A    between atoms: C_23  and  C_25 
REMARK    8  A    between atoms: C_25  and  C_26 
REMARK    9  A    between atoms: C_26  and  C_27 
ROOT
HETATM    1  H           1     -20.999  -6.221  -2.982  0.00  0.00     0.163 HD
HETATM    2  N           1     -20.979  -6.818  -3.799  0.00  0.00    -0.344 N 
HETATM    3  O           1     -22.525  -6.410  -5.358  0.00  0.00    -0.271 OA
HETATM    4  C           1     -21.369  -6.327  -5.016  0.00  0.00     0.249 C 
ENDROOT
BRANCH   4   5
HETATM    5  C           1     -20.356  -5.683  -5.929  0.00  0.00     0.275 C 
BRANCH   5   6
HETATM    6  N           1     -20.170  -6.535  -7.149  0.00  0.00    -0.066 N 
HETATM    7  H           1     -20.888  -7.293  -7.158  0.00  0.00     0.275 HD
HETATM    8  H           1     -20.277  -5.945  -8.005  0.00  0.00     0.275 HD
HETATM    9  H           1     -19.215  -6.959  -7.134  0.00  0.00     0.275 HD
ENDBRANCH   5   6
BRANCH   5  10
HETATM   10  C           1     -20.850  -4.303  -6.344  0.00  0.00     0.052 C 
BRANCH  10  11
HETATM   11  C           1     -21.036  -4.264  -7.855  0.00  0.00     0.105 C 
BRANCH  11  12
HETATM   12  C           1     -22.481  -3.970  -8.176  0.00  0.00     0.215 C 
HETATM   13  N           1     -23.466  -4.332  -7.297  0.00  0.00    -0.370 N 
HETATM   14  H           1     -24.435  -4.135  -7.513  0.00  0.00     0.159 HD
HETATM   15  H           1     -23.225  -4.798  -6.431  0.00  0.00     0.159 HD
HETATM   16  O           1     -22.769  -3.414  -9.210  0.00  0.00    -0.274 OA
ENDBRANCH  11  12
ENDBRANCH  10  11
ENDBRANCH   5  10
ENDBRANCH   4   5
BRANCH   2  17
HETATM   17  C           1     -20.537  -8.194  -3.680  0.00  0.00     0.189 C 
BRANCH  17  18
HETATM   18  C           1     -20.219  -8.739  -5.052  0.00  0.00     0.197 C 
HETATM   19  O           1     -19.046  -8.699  -5.483  0.00  0.00    -0.646 OA
HETATM   20  O           1     -21.128  -9.231  -5.755  0.00  0.00    -0.646 OA
ENDBRANCH  17  18
BRANCH  17  21
HETATM   21  C           1     -21.643  -9.029  -3.046  0.00  0.00     0.074 C 
BRANCH  21  22
HETATM   22  C           1     -21.602  -8.864  -1.558  0.00  0.00    -0.056 A 
HETATM   23  C           1     -22.182  -7.743  -0.964  0.00  0.00     0.007 A 
HETATM   24  C           1     -22.144  -7.589   0.421  0.00  0.00     0.001 A 
HETATM   25  C           1     -21.527  -8.558   1.213  0.00  0.00     0.000 A 
HETATM   26  C           1     -20.947  -9.679   0.619  0.00  0.00     0.001 A 
HETATM   27  C           1     -20.985  -9.832  -0.766  0.00  0.00     0.007 A 
ENDBRANCH  21  22
ENDBRANCH  17  21
ENDBRANCH   2  17
TORSDOF 9
ENDMDL
