MODEL 1
REMARK VINA RESULT:      -6.7      0.000      0.000
REMARK  9 active torsions:
REMARK  status: ('A' for Active; 'I' for Inactive)
REMARK    1  A    between atoms: S_2  and  C_7 
REMARK    2  A    between atoms: C_3  and  C_6 
REMARK    3  A    between atoms: C_3  and  C_18 
REMARK    4  A    between atoms: C_3  and  N_22 
REMARK    5  A    between atoms: O_4  and  C_17 
REMARK       I    between atoms: C_6  and  N_12 
REMARK    6  A    between atoms: C_7  and  C_9 
REMARK    7  A    between atoms: C_8  and  C_18 
REMARK    8  A    between atoms: C_9  and  C_25 
REMARK    9  A    between atoms: C_9  and  N_12 
ROOT
HETATM    1  C           1     -22.147  -5.202  -6.737  0.00  0.00     0.278 C 
ENDROOT
BRANCH   1   2
HETATM    2  C           1     -21.273  -5.691  -5.608  0.00  0.00     0.249 C 
HETATM    3  N           1     -21.478  -6.935  -5.074  0.00  0.00    -0.344 N 
HETATM    4  H           1     -22.215  -7.526  -5.437  0.00  0.00     0.163 HD
HETATM    5  O           1     -20.393  -4.985  -5.175  0.00  0.00    -0.271 OA
BRANCH   3   6
HETATM    6  C           1     -20.639  -7.405  -3.990  0.00  0.00     0.194 C 
BRANCH   6   7
HETATM    7  C           1     -21.515  -7.857  -2.828  0.00  0.00     0.106 C 
BRANCH   7   8
HETATM    8  S           1     -22.118  -6.405  -1.921  0.00  0.00    -0.180 SA
HETATM    9  H           1     -21.018  -5.655  -2.110  0.00  0.00     0.101 HD
ENDBRANCH   7   8
ENDBRANCH   6   7
BRANCH   6  10
HETATM   10  C           1     -19.801  -8.565  -4.468  0.00  0.00     0.197 C 
HETATM   11  O           1     -20.003  -9.058  -5.598  0.00  0.00    -0.646 OA
HETATM   12  O           1     -18.904  -9.032  -3.733  0.00  0.00    -0.646 OA
ENDBRANCH   6  10
ENDBRANCH   3   6
ENDBRANCH   1   2
BRANCH   1  13
HETATM   13  C           1     -21.608  -3.876  -7.259  0.00  0.00     0.081 C 
BRANCH  13  14
HETATM   14  C           1     -21.633  -3.879  -8.755  0.00  0.00    -0.056 A 
HETATM   15  C           1     -20.456  -4.095  -9.471  0.00  0.00     0.010 A 
HETATM   16  C           1     -20.478  -4.099 -10.866  0.00  0.00     0.037 A 
HETATM   17  C           1     -21.678  -3.886 -11.544  0.00  0.00     0.065 A 
HETATM   18  C           1     -22.856  -3.671 -10.828  0.00  0.00     0.037 A 
HETATM   19  C           1     -22.833  -3.667  -9.434  0.00  0.00     0.010 A 
BRANCH  17  20
HETATM   20  O           1     -21.701  -3.890 -12.899  0.00  0.00    -0.361 OA
HETATM   21  H           1     -21.259  -4.700 -13.205  0.00  0.00     0.217 HD
ENDBRANCH  17  20
ENDBRANCH  13  14
ENDBRANCH   1  13
BRANCH   1  22
HETATM   22  N           1     -23.548  -5.010  -6.238  0.00  0.00    -0.066 N 
HETATM   23  H           1     -23.876  -4.049  -6.484  0.00  0.00     0.275 HD
HETATM   24  H           1     -24.176  -5.717  -6.683  0.00  0.00     0.275 HD
HETATM   25  H           1     -23.569  -5.130  -5.200  0.00  0.00     0.275 HD
ENDBRANCH   1  22
TORSDOF 9
ENDMDL
MODEL 2
REMARK VINA RESULT:      -6.6      3.058      7.379
REMARK  9 active torsions:
REMARK  status: ('A' for Active; 'I' for Inactive)
REMARK    1  A    between atoms: S_2  and  C_7 
REMARK    2  A    between atoms: C_3  and  C_6 
REMARK    3  A    between atoms: C_3  and  C_18 
REMARK    4  A    between atoms: C_3  and  N_22 
REMARK    5  A    between atoms: O_4  and  C_17 
REMARK       I    between atoms: C_6  and  N_12 
REMARK    6  A    between atoms: C_7  and  C_9 
REMARK    7  A    between atoms: C_8  and  C_18 
REMARK    8  A    between atoms: C_9  and  C_25 
REMARK    9  A    between atoms: C_9  and  N_12 
ROOT
HETATM    1  C           1     -21.158  -5.655  -6.951  0.00  0.00     0.278 C 
ENDROOT
BRANCH   1   2
HETATM    2  C           1     -21.745  -4.496  -7.719  0.00  0.00     0.249 C 
HETATM    3  N           1     -22.301  -4.704  -8.953  0.00  0.00    -0.344 N 
HETATM    4  H           1     -22.317  -5.635  -9.349  0.00  0.00     0.163 HD
HETATM    5  O           1     -21.725  -3.385  -7.245  0.00  0.00    -0.271 OA
BRANCH   3   6
HETATM    6  C           1     -22.864  -3.591  -9.691  0.00  0.00     0.194 C 
BRANCH   6   7
HETATM    7  C           1     -22.010  -3.311 -10.921  0.00  0.00     0.106 C 
BRANCH   7   8
HETATM    8  S           1     -20.528  -4.358 -10.882  0.00  0.00    -0.180 SA
HETATM    9  H           1     -19.654  -3.374 -11.157  0.00  0.00     0.101 HD
ENDBRANCH   7   8
ENDBRANCH   6   7
BRANCH   6  10
HETATM   10  C           1     -24.269  -3.934 -10.123  0.00  0.00     0.197 C 
HETATM   11  O           1     -24.925  -3.125 -10.813  0.00  0.00    -0.646 OA
HETATM   12  O           1     -24.775  -5.028  -9.791  0.00  0.00    -0.646 OA
ENDBRANCH   6  10
ENDBRANCH   3   6
ENDBRANCH   1   2
BRANCH   1  13
HETATM   13  C           1     -20.856  -5.217  -5.523  0.00  0.00     0.081 C 
BRANCH  13  14
HETATM   14  C           1     -21.140  -6.346  -4.583  0.00  0.00    -0.056 A 
HETATM   15  C           1     -21.289  -7.643  -5.076  0.00  0.00     0.010 A 
HETATM   16  C           1     -21.553  -8.696  -4.200  0.00  0.00     0.037 A 
HETATM   17  C           1     -21.668  -8.452  -2.831  0.00  0.00     0.065 A 
HETATM   18  C           1     -21.518  -7.156  -2.338  0.00  0.00     0.037 A 
HETATM   19  C           1     -21.254  -6.103  -3.214  0.00  0.00     0.010 A 
BRANCH  17  20
HETATM   20  O           1     -21.924  -9.475  -1.980  0.00  0.00    -0.361 OA
HETATM   21  H           1     -22.863  -9.710  -2.067  0.00  0.00     0.217 HD
ENDBRANCH  17  20
ENDBRANCH  13  14
ENDBRANCH   1  13
BRANCH   1  22
HETATM   22  N           1     -19.890  -6.104  -7.615  0.00  0.00    -0.066 N 
HETATM   23  H           1     -19.545  -5.350  -8.250  0.00  0.00     0.275 HD
HETATM   24  H           1     -19.168  -6.304  -6.886  0.00  0.00     0.275 HD
HETATM   25  H           1     -20.075  -6.970  -8.169  0.00  0.00     0.275 HD
ENDBRANCH   1  22
TORSDOF 9
ENDMDL
MODEL 3
REMARK VINA RESULT:      -6.6     14.125     17.167
REMARK  9 active torsions:
REMARK  status: ('A' for Active; 'I' for Inactive)
REMARK    1  A    between atoms: S_2  and  C_7 
REMARK    2  A    between atoms: C_3  and  C_6 
REMARK    3  A    between atoms: C_3  and  C_18 
REMARK    4  A    between atoms: C_3  and  N_22 
REMARK    5  A    between atoms: O_4  and  C_17 
REMARK       I    between atoms: C_6  and  N_12 
REMARK    6  A    between atoms: C_7  and  C_9 
REMARK    7  A    between atoms: C_8  and  C_18 
REMARK    8  A    between atoms: C_9  and  C_25 
REMARK    9  A    between atoms: C_9  and  N_12 
ROOT
HETATM    1  C           1     -36.010  -0.436 -11.353  0.00  0.00     0.278 C 
ENDROOT
BRANCH   1   2
HETATM    2  C           1     -36.807  -0.468 -12.634  0.00  0.00     0.249 C 
HETATM    3  N           1     -36.170  -0.348 -13.840  0.00  0.00    -0.344 N 
HETATM    4  H           1     -35.165  -0.238 -13.872  0.00  0.00     0.163 HD
HETATM    5  O           1     -38.008  -0.600 -12.596  0.00  0.00    -0.271 OA
BRANCH   3   6
HETATM    6  C           1     -36.936  -0.379 -15.070  0.00  0.00     0.194 C 
BRANCH   6   7
HETATM    7  C           1     -37.244   1.045 -15.515  0.00  0.00     0.106 C 
BRANCH   7   8
HETATM    8  S           1     -35.701   1.993 -15.626  0.00  0.00    -0.180 SA
HETATM    9  H           1     -36.028   2.663 -16.745  0.00  0.00     0.101 HD
ENDBRANCH   7   8
ENDBRANCH   6   7
BRANCH   6  10
HETATM   10  C           1     -36.136  -1.077 -16.143  0.00  0.00     0.197 C 
HETATM   11  O           1     -35.142  -1.767 -15.832  0.00  0.00    -0.646 OA
HETATM   12  O           1     -36.469  -0.966 -17.343  0.00  0.00    -0.646 OA
ENDBRANCH   6  10
ENDBRANCH   3   6
ENDBRANCH   1   2
BRANCH   1  13
HETATM   13  C           1     -36.282  -1.703 -10.553  0.00  0.00     0.081 C 
BRANCH  13  14
HETATM   14  C           1     -35.232  -2.724 -10.860  0.00  0.00    -0.056 A 
HETATM   15  C           1     -35.560  -4.080 -10.871  0.00  0.00     0.010 A 
HETATM   16  C           1     -34.583  -5.032 -11.158  0.00  0.00     0.037 A 
HETATM   17  C           1     -33.276  -4.629 -11.434  0.00  0.00     0.065 A 
HETATM   18  C           1     -32.948  -3.273 -11.425  0.00  0.00     0.037 A 
HETATM   19  C           1     -33.926  -2.321 -11.138  0.00  0.00     0.010 A 
BRANCH  17  20
HETATM   20  O           1     -32.326  -5.554 -11.713  0.00  0.00    -0.361 OA
HETATM   21  H           1     -32.615  -6.404 -11.341  0.00  0.00     0.217 HD
ENDBRANCH  17  20
ENDBRANCH  13  14
ENDBRANCH   1  13
BRANCH   1  22
HETATM   22  N           1     -36.413   0.762 -10.545  0.00  0.00    -0.066 N 
HETATM   23  H           1     -36.743   0.450  -9.603  0.00  0.00     0.275 HD
HETATM   24  H           1     -35.592   1.398 -10.433  0.00  0.00     0.275 HD
HETATM   25  H           1     -37.184   1.270 -11.033  0.00  0.00     0.275 HD
ENDBRANCH   1  22
TORSDOF 9
ENDMDL
MODEL 4
REMARK VINA RESULT:      -6.5     13.657     14.749
REMARK  9 active torsions:
REMARK  status: ('A' for Active; 'I' for Inactive)
REMARK    1  A    between atoms: S_2  and  C_7 
REMARK    2  A    between atoms: C_3  and  C_6 
REMARK    3  A    between atoms: C_3  and  C_18 
REMARK    4  A    between atoms: C_3  and  N_22 
REMARK    5  A    between atoms: O_4  and  C_17 
REMARK       I    between atoms: C_6  and  N_12 
REMARK    6  A    between atoms: C_7  and  C_9 
REMARK    7  A    between atoms: C_8  and  C_18 
REMARK    8  A    between atoms: C_9  and  C_25 
REMARK    9  A    between atoms: C_9  and  N_12 
ROOT
HETATM    1  C           1     -32.906  -4.485 -16.659  0.00  0.00     0.278 C 
ENDROOT
BRANCH   1   2
HETATM    2  C           1     -33.795  -4.468 -15.440  0.00  0.00     0.249 C 
HETATM    3  N           1     -33.294  -4.060 -14.233  0.00  0.00    -0.344 N 
HETATM    4  H           1     -32.327  -3.771 -14.159  0.00  0.00     0.163 HD
HETATM    5  O           1     -34.949  -4.814 -15.530  0.00  0.00    -0.271 OA
BRANCH   3   6
HETATM    6  C           1     -34.147  -4.044 -13.062  0.00  0.00     0.194 C 
BRANCH   6   7
HETATM    7  C           1     -33.368  -4.554 -11.857  0.00  0.00     0.106 C 
BRANCH   7   8
HETATM    8  S           1     -34.329  -5.844 -11.016  0.00  0.00    -0.180 SA
HETATM    9  H           1     -35.520  -5.230 -11.132  0.00  0.00     0.101 HD
ENDBRANCH   7   8
ENDBRANCH   6   7
BRANCH   6  10
HETATM   10  C           1     -34.613  -2.633 -12.798  0.00  0.00     0.197 C 
HETATM   11  O           1     -34.630  -2.189 -11.630  0.00  0.00    -0.646 OA
HETATM   12  O           1     -34.980  -1.908 -13.748  0.00  0.00    -0.646 OA
ENDBRANCH   6  10
ENDBRANCH   3   6
ENDBRANCH   1   2
BRANCH   1  13
HETATM   13  C           1     -31.446  -4.497 -16.225  0.00  0.00     0.081 C 
BRANCH  13  14
HETATM   14  C           1     -30.667  -5.416 -17.113  0.00  0.00    -0.056 A 
HETATM   15  C           1     -31.130  -6.710 -17.356  0.00  0.00     0.010 A 
HETATM   16  C           1     -30.405  -7.566 -18.184  0.00  0.00     0.037 A 
HETATM   17  C           1     -29.217  -7.130 -18.769  0.00  0.00     0.065 A 
HETATM   18  C           1     -28.754  -5.836 -18.527  0.00  0.00     0.037 A 
HETATM   19  C           1     -29.479  -4.980 -17.699  0.00  0.00     0.010 A 
BRANCH  17  20
HETATM   20  O           1     -28.512  -7.961 -19.574  0.00  0.00    -0.361 OA
HETATM   21  H           1     -29.102  -8.264 -20.285  0.00  0.00     0.217 HD
ENDBRANCH  17  20
ENDBRANCH  13  14
ENDBRANCH   1  13
BRANCH   1  22
HETATM   22  N           1     -33.170  -3.263 -17.488  0.00  0.00    -0.066 N 
HETATM   23  H           1     -33.517  -3.551 -18.431  0.00  0.00     0.275 HD
HETATM   24  H           1     -33.891  -2.672 -17.016  0.00  0.00     0.275 HD
HETATM   25  H           1     -32.286  -2.716 -17.594  0.00  0.00     0.275 HD
ENDBRANCH   1  22
TORSDOF 9
ENDMDL
MODEL 5
REMARK VINA RESULT:      -6.5      2.044      2.517
REMARK  9 active torsions:
REMARK  status: ('A' for Active; 'I' for Inactive)
REMARK    1  A    between atoms: S_2  and  C_7 
REMARK    2  A    between atoms: C_3  and  C_6 
REMARK    3  A    between atoms: C_3  and  C_18 
REMARK    4  A    between atoms: C_3  and  N_22 
REMARK    5  A    between atoms: O_4  and  C_17 
REMARK       I    between atoms: C_6  and  N_12 
REMARK    6  A    between atoms: C_7  and  C_9 
REMARK    7  A    between atoms: C_8  and  C_18 
REMARK    8  A    between atoms: C_9  and  C_25 
REMARK    9  A    between atoms: C_9  and  N_12 
ROOT
HETATM    1  C           1     -20.434  -5.073  -6.613  0.00  0.00     0.278 C 
ENDROOT
BRANCH   1   2
HETATM    2  C           1     -21.346  -5.826  -5.676  0.00  0.00     0.249 C 
HETATM    3  N           1     -20.832  -6.783  -4.843  0.00  0.00    -0.344 N 
HETATM    4  H           1     -19.841  -6.986  -4.855  0.00  0.00     0.163 HD
HETATM    5  O           1     -22.530  -5.584  -5.661  0.00  0.00    -0.271 OA
BRANCH   3   6
HETATM    6  C           1     -21.708  -7.507  -3.943  0.00  0.00     0.194 C 
BRANCH   6   7
HETATM    7  C           1     -21.284  -8.969  -3.885  0.00  0.00     0.106 C 
BRANCH   7   8
HETATM    8  S           1     -19.666  -9.164  -4.682  0.00  0.00    -0.180 SA
HETATM    9  H           1     -19.276 -10.223  -3.952  0.00  0.00     0.101 HD
ENDBRANCH   7   8
ENDBRANCH   6   7
BRANCH   6  10
HETATM   10  C           1     -21.621  -6.904  -2.562  0.00  0.00     0.197 C 
HETATM   11  O           1     -22.329  -5.919  -2.264  0.00  0.00    -0.646 OA
HETATM   12  O           1     -20.841  -7.393  -1.716  0.00  0.00    -0.646 OA
ENDBRANCH   6  10
ENDBRANCH   3   6
ENDBRANCH   1   2
BRANCH   1  13
HETATM   13  C           1     -21.146  -3.828  -7.125  0.00  0.00     0.081 C 
BRANCH  13  14
HETATM   14  C           1     -21.502  -4.012  -8.567  0.00  0.00    -0.056 A 
HETATM   15  C           1     -22.813  -4.332  -8.926  0.00  0.00     0.010 A 
HETATM   16  C           1     -23.145  -4.503 -10.269  0.00  0.00     0.037 A 
HETATM   17  C           1     -22.169  -4.356 -11.254  0.00  0.00     0.065 A 
HETATM   18  C           1     -20.859  -4.036 -10.895  0.00  0.00     0.037 A 
HETATM   19  C           1     -20.526  -3.864  -9.552  0.00  0.00     0.010 A 
BRANCH  17  20
HETATM   20  O           1     -22.492  -4.522 -12.559  0.00  0.00    -0.361 OA
HETATM   21  H           1     -21.669  -4.508 -13.077  0.00  0.00     0.217 HD
ENDBRANCH  17  20
ENDBRANCH  13  14
ENDBRANCH   1  13
BRANCH   1  22
HETATM   22  N           1     -20.071  -5.953  -7.772  0.00  0.00    -0.066 N 
HETATM   23  H           1     -19.165  -6.435  -7.572  0.00  0.00     0.275 HD
HETATM   24  H           1     -20.821  -6.666  -7.915  0.00  0.00     0.275 HD
HETATM   25  H           1     -19.974  -5.372  -8.634  0.00  0.00     0.275 HD
ENDBRANCH   1  22
TORSDOF 9
ENDMDL
MODEL 6
REMARK VINA RESULT:      -6.3     13.416     16.418
REMARK  9 active torsions:
REMARK  status: ('A' for Active; 'I' for Inactive)
REMARK    1  A    between atoms: S_2  and  C_7 
REMARK    2  A    between atoms: C_3  and  C_6 
REMARK    3  A    between atoms: C_3  and  C_18 
REMARK    4  A    between atoms: C_3  and  N_22 
REMARK    5  A    between atoms: O_4  and  C_17 
REMARK       I    between atoms: C_6  and  N_12 
REMARK    6  A    between atoms: C_7  and  C_9 
REMARK    7  A    between atoms: C_8  and  C_18 
REMARK    8  A    between atoms: C_9  and  C_25 
REMARK    9  A    between atoms: C_9  and  N_12 
ROOT
HETATM    1  C           1     -34.541  -2.420 -11.818  0.00  0.00     0.278 C 
ENDROOT
BRANCH   1   2
HETATM    2  C           1     -35.425  -1.661 -12.776  0.00  0.00     0.249 C 
HETATM    3  N           1     -34.934  -1.260 -13.989  0.00  0.00    -0.344 N 
HETATM    4  H           1     -33.978  -1.473 -14.244  0.00  0.00     0.163 HD
HETATM    5  O           1     -36.567  -1.406 -12.472  0.00  0.00    -0.271 OA
BRANCH   3   6
HETATM    6  C           1     -35.784  -0.530 -14.909  0.00  0.00     0.194 C 
BRANCH   6   7
HETATM    7  C           1     -35.256   0.889 -15.074  0.00  0.00     0.106 C 
BRANCH   7   8
HETATM    8  S           1     -34.535   1.454 -13.507  0.00  0.00    -0.180 SA
HETATM    9  H           1     -33.531   0.559 -13.484  0.00  0.00     0.101 HD
ENDBRANCH   7   8
ENDBRANCH   6   7
BRANCH   6  10
HETATM   10  C           1     -35.786  -1.223 -16.250  0.00  0.00     0.197 C 
HETATM   11  O           1     -36.548  -0.826 -17.158  0.00  0.00    -0.646 OA
HETATM   12  O           1     -35.023  -2.193 -16.453  0.00  0.00    -0.646 OA
ENDBRANCH   6  10
ENDBRANCH   3   6
ENDBRANCH   1   2
BRANCH   1  13
HETATM   13  C           1     -35.403  -3.268 -10.893  0.00  0.00     0.081 C 
BRANCH  13  14
HETATM   14  C           1     -34.804  -4.633 -10.761  0.00  0.00    -0.056 A 
HETATM   15  C           1     -33.549  -4.899 -11.311  0.00  0.00     0.010 A 
HETATM   16  C           1     -32.989  -6.171 -11.188  0.00  0.00     0.037 A 
HETATM   17  C           1     -33.684  -7.177 -10.516  0.00  0.00     0.065 A 
HETATM   18  C           1     -34.938  -6.911  -9.966  0.00  0.00     0.037 A 
HETATM   19  C           1     -35.497  -5.639 -10.089  0.00  0.00     0.010 A 
BRANCH  17  20
HETATM   20  O           1     -33.140  -8.412 -10.397  0.00  0.00    -0.361 OA
HETATM   21  H           1     -33.290  -8.720  -9.487  0.00  0.00     0.217 HD
ENDBRANCH  17  20
ENDBRANCH  13  14
ENDBRANCH   1  13
BRANCH   1  22
HETATM   22  N           1     -33.738  -1.450 -11.002  0.00  0.00    -0.066 N 
HETATM   23  H           1     -34.151  -1.377 -10.045  0.00  0.00     0.275 HD
HETATM   24  H           1     -32.752  -1.787 -10.932  0.00  0.00     0.275 HD
HETATM   25  H           1     -33.754  -0.511 -11.461  0.00  0.00     0.275 HD
ENDBRANCH   1  22
TORSDOF 9
ENDMDL
MODEL 7
REMARK VINA RESULT:      -6.1      1.693      2.296
REMARK  9 active torsions:
REMARK  status: ('A' for Active; 'I' for Inactive)
REMARK    1  A    between atoms: S_2  and  C_7 
REMARK    2  A    between atoms: C_3  and  C_6 
REMARK    3  A    between atoms: C_3  and  C_18 
REMARK    4  A    between atoms: C_3  and  N_22 
REMARK    5  A    between atoms: O_4  and  C_17 
REMARK       I    between atoms: C_6  and  N_12 
REMARK    6  A    between atoms: C_7  and  C_9 
REMARK    7  A    between atoms: C_8  and  C_18 
REMARK    8  A    between atoms: C_9  and  C_25 
REMARK    9  A    between atoms: C_9  and  N_12 
ROOT
HETATM    1  C           1     -21.491  -6.160  -5.869  0.00  0.00     0.278 C 
ENDROOT
BRANCH   1   2
HETATM    2  C           1     -20.420  -7.211  -5.704  0.00  0.00     0.249 C 
HETATM    3  N           1     -20.508  -8.126  -4.690  0.00  0.00    -0.344 N 
HETATM    4  H           1     -21.292  -8.097  -4.051  0.00  0.00     0.163 HD
HETATM    5  O           1     -19.484  -7.244  -6.468  0.00  0.00    -0.271 OA
BRANCH   3   6
HETATM    6  C           1     -19.480  -9.134  -4.531  0.00  0.00     0.194 C 
BRANCH   6   7
HETATM    7  C           1     -19.076  -9.224  -3.065  0.00  0.00     0.106 C 
BRANCH   7   8
HETATM    8  S           1     -20.315  -8.382  -2.042  0.00  0.00    -0.180 SA
HETATM    9  H           1     -20.675  -7.479  -2.972  0.00  0.00     0.101 HD
ENDBRANCH   7   8
ENDBRANCH   6   7
BRANCH   6  10
HETATM   10  C           1     -20.010 -10.471  -4.989  0.00  0.00     0.197 C 
HETATM   11  O           1     -20.052 -11.432  -4.193  0.00  0.00    -0.646 OA
HETATM   12  O           1     -20.409 -10.615  -6.166  0.00  0.00    -0.646 OA
ENDBRANCH   6  10
ENDBRANCH   3   6
ENDBRANCH   1   2
BRANCH   1  13
HETATM   13  C           1     -20.846  -4.828  -6.228  0.00  0.00     0.081 C 
BRANCH  13  14
HETATM   14  C           1     -21.200  -4.464  -7.636  0.00  0.00    -0.056 A 
HETATM   15  C           1     -22.521  -4.164  -7.967  0.00  0.00     0.010 A 
HETATM   16  C           1     -22.852  -3.824  -9.278  0.00  0.00     0.037 A 
HETATM   17  C           1     -21.861  -3.783 -10.259  0.00  0.00     0.065 A 
HETATM   18  C           1     -20.539  -4.082  -9.928  0.00  0.00     0.037 A 
HETATM   19  C           1     -20.209  -4.423  -8.617  0.00  0.00     0.010 A 
BRANCH  17  20
HETATM   20  O           1     -22.182  -3.453 -11.533  0.00  0.00    -0.361 OA
HETATM   21  H           1     -21.387  -3.087 -11.958  0.00  0.00     0.217 HD
ENDBRANCH  17  20
ENDBRANCH  13  14
ENDBRANCH   1  13
BRANCH   1  22
HETATM   22  N           1     -22.252  -6.017  -4.585  0.00  0.00    -0.066 N 
HETATM   23  H           1     -23.239  -5.745  -4.794  0.00  0.00     0.275 HD
HETATM   24  H           1     -22.243  -6.927  -4.071  0.00  0.00     0.275 HD
HETATM   25  H           1     -21.805  -5.280  -3.995  0.00  0.00     0.275 HD
ENDBRANCH   1  22
TORSDOF 9
ENDMDL
MODEL 8
REMARK VINA RESULT:      -5.9     13.420     14.406
REMARK  9 active torsions:
REMARK  status: ('A' for Active; 'I' for Inactive)
REMARK    1  A    between atoms: S_2  and  C_7 
REMARK    2  A    between atoms: C_3  and  C_6 
REMARK    3  A    between atoms: C_3  and  C_18 
REMARK    4  A    between atoms: C_3  and  N_22 
REMARK    5  A    between atoms: O_4  and  C_17 
REMARK       I    between atoms: C_6  and  N_12 
REMARK    6  A    between atoms: C_7  and  C_9 
REMARK    7  A    between atoms: C_8  and  C_18 
REMARK    8  A    between atoms: C_9  and  C_25 
REMARK    9  A    between atoms: C_9  and  N_12 
ROOT
HETATM    1  C           1     -33.679  -4.849 -15.474  0.00  0.00     0.278 C 
ENDROOT
BRANCH   1   2
HETATM    2  C           1     -34.209  -3.961 -14.375  0.00  0.00     0.249 C 
HETATM    3  N           1     -34.231  -4.411 -13.082  0.00  0.00    -0.344 N 
HETATM    4  H           1     -33.892  -5.339 -12.864  0.00  0.00     0.163 HD
HETATM    5  O           1     -34.614  -2.853 -14.636  0.00  0.00    -0.271 OA
BRANCH   3   6
HETATM    6  C           1     -34.741  -3.559 -12.027  0.00  0.00     0.194 C 
BRANCH   6   7
HETATM    7  C           1     -35.345  -4.418 -10.924  0.00  0.00     0.106 C 
BRANCH   7   8
HETATM    8  S           1     -34.459  -5.999 -10.832  0.00  0.00    -0.180 SA
HETATM    9  H           1     -33.396  -5.525 -10.159  0.00  0.00     0.101 HD
ENDBRANCH   7   8
ENDBRANCH   6   7
BRANCH   6  10
HETATM   10  C           1     -33.612  -2.733 -11.457  0.00  0.00     0.197 C 
HETATM   11  O           1     -33.837  -1.585 -11.020  0.00  0.00    -0.646 OA
HETATM   12  O           1     -32.453  -3.201 -11.422  0.00  0.00    -0.646 OA
ENDBRANCH   6  10
ENDBRANCH   3   6
ENDBRANCH   1   2
BRANCH   1  13
HETATM   13  C           1     -33.194  -3.988 -16.633  0.00  0.00     0.081 C 
BRANCH  13  14
HETATM   14  C           1     -31.857  -4.479 -17.096  0.00  0.00    -0.056 A 
HETATM   15  C           1     -30.901  -3.571 -17.552  0.00  0.00     0.010 A 
HETATM   16  C           1     -29.656  -4.027 -17.983  0.00  0.00     0.037 A 
HETATM   17  C           1     -29.366  -5.391 -17.957  0.00  0.00     0.065 A 
HETATM   18  C           1     -30.321  -6.299 -17.500  0.00  0.00     0.037 A 
HETATM   19  C           1     -31.567  -5.843 -17.069  0.00  0.00     0.010 A 
BRANCH  17  20
HETATM   20  O           1     -28.156  -5.835 -18.375  0.00  0.00    -0.361 OA
HETATM   21  H           1     -28.165  -5.863 -19.347  0.00  0.00     0.217 HD
ENDBRANCH  17  20
ENDBRANCH  13  14
ENDBRANCH   1  13
BRANCH   1  22
HETATM   22  N           1     -34.771  -5.760 -15.951  0.00  0.00    -0.066 N 
HETATM   23  H           1     -35.427  -5.958 -15.162  0.00  0.00     0.275 HD
HETATM   24  H           1     -35.292  -5.299 -16.730  0.00  0.00     0.275 HD
HETATM   25  H           1     -34.355  -6.655 -16.292  0.00  0.00     0.275 HD
ENDBRANCH   1  22
TORSDOF 9
ENDMDL
MODEL 9
REMARK VINA RESULT:      -5.8      2.955      7.648
REMARK  9 active torsions:
REMARK  status: ('A' for Active; 'I' for Inactive)
REMARK    1  A    between atoms: S_2  and  C_7 
REMARK    2  A    between atoms: C_3  and  C_6 
REMARK    3  A    between atoms: C_3  and  C_18 
REMARK    4  A    between atoms: C_3  and  N_22 
REMARK    5  A    between atoms: O_4  and  C_17 
REMARK       I    between atoms: C_6  and  N_12 
REMARK    6  A    between atoms: C_7  and  C_9 
REMARK    7  A    between atoms: C_8  and  C_18 
REMARK    8  A    between atoms: C_9  and  C_25 
REMARK    9  A    between atoms: C_9  and  N_12 
ROOT
HETATM    1  C           1     -20.766  -5.993  -4.882  0.00  0.00     0.278 C 
ENDROOT
BRANCH   1   2
HETATM    2  C           1     -21.062  -5.995  -6.361  0.00  0.00     0.249 C 
HETATM    3  N           1     -21.377  -4.825  -6.998  0.00  0.00    -0.344 N 
HETATM    4  H           1     -21.412  -3.959  -6.476  0.00  0.00     0.163 HD
HETATM    5  O           1     -21.021  -7.030  -6.984  0.00  0.00    -0.271 OA
BRANCH   3   6
HETATM    6  C           1     -21.663  -4.827  -8.419  0.00  0.00     0.194 C 
BRANCH   6   7
HETATM    7  C           1     -22.823  -3.884  -8.707  0.00  0.00     0.106 C 
BRANCH   7   8
HETATM    8  S           1     -23.851  -4.574 -10.034  0.00  0.00    -0.180 SA
HETATM    9  H           1     -24.558  -3.453 -10.262  0.00  0.00     0.101 HD
ENDBRANCH   7   8
ENDBRANCH   6   7
BRANCH   6  10
HETATM   10  C           1     -20.442  -4.368  -9.178  0.00  0.00     0.197 C 
HETATM   11  O           1     -20.310  -4.660 -10.386  0.00  0.00    -0.646 OA
HETATM   12  O           1     -19.563  -3.694  -8.598  0.00  0.00    -0.646 OA
ENDBRANCH   6  10
ENDBRANCH   3   6
ENDBRANCH   1   2
BRANCH   1  13
HETATM   13  C           1     -22.058  -6.207  -4.104  0.00  0.00     0.081 C 
BRANCH  13  14
HETATM   14  C           1     -21.758  -6.920  -2.822  0.00  0.00    -0.056 A 
HETATM   15  C           1     -22.414  -6.548  -1.648  0.00  0.00     0.010 A 
HETATM   16  C           1     -22.136  -7.213  -0.454  0.00  0.00     0.037 A 
HETATM   17  C           1     -21.203  -8.249  -0.433  0.00  0.00     0.065 A 
HETATM   18  C           1     -20.549  -8.622  -1.608  0.00  0.00     0.037 A 
HETATM   19  C           1     -20.826  -7.958  -2.802  0.00  0.00     0.010 A 
BRANCH  17  20
HETATM   20  O           1     -20.933  -8.895   0.726  0.00  0.00    -0.361 OA
HETATM   21  H           1     -21.758  -8.952   1.238  0.00  0.00     0.217 HD
ENDBRANCH  17  20
ENDBRANCH  13  14
ENDBRANCH   1  13
BRANCH   1  22
HETATM   22  N           1     -20.162  -4.676  -4.494  0.00  0.00    -0.066 N 
HETATM   23  H           1     -19.739  -4.226  -5.337  0.00  0.00     0.275 HD
HETATM   24  H           1     -20.905  -4.054  -4.103  0.00  0.00     0.275 HD
HETATM   25  H           1     -19.422  -4.829  -3.773  0.00  0.00     0.275 HD
ENDBRANCH   1  22
TORSDOF 9
ENDMDL
