MODEL 1
REMARK VINA RESULT:      -7.1      0.000      0.000
REMARK  10 active torsions:
REMARK  status: ('A' for Active; 'I' for Inactive)
REMARK    1  A    between atoms: N_1  and  C_17 
REMARK    2  A    between atoms: C_6  and  C_8 
REMARK    3  A    between atoms: C_6  and  C_7 
REMARK    4  A    between atoms: C_7  and  C_13 
REMARK    5  A    between atoms: C_8  and  N_25 
REMARK    6  A    between atoms: N_11  and  C_13 
REMARK       I    between atoms: N_11  and  C_19 
REMARK    7  A    between atoms: C_12  and  C_18 
REMARK    8  A    between atoms: C_13  and  C_14 
REMARK    9  A    between atoms: C_17  and  C_19 
REMARK   10  A    between atoms: C_17  and  C_18 
ROOT
HETATM    1  H           1     -32.338  -3.859 -14.081  0.00  0.00     0.163 HD
HETATM    2  N           1     -33.313  -4.105 -14.188  0.00  0.00    -0.345 N 
HETATM    3  C           1     -33.793  -4.477 -15.415  0.00  0.00     0.249 C 
HETATM    4  O           1     -34.958  -4.771 -15.545  0.00  0.00    -0.271 OA
ENDROOT
BRANCH   3   5
HETATM    5  C           1     -32.868  -4.520 -16.607  0.00  0.00     0.278 C 
BRANCH   5   6
HETATM    6  N           1     -33.078  -3.293 -17.445  0.00  0.00    -0.066 N 
HETATM    7  H           1     -33.743  -3.510 -18.221  0.00  0.00     0.275 HD
HETATM    8  H           1     -33.473  -2.529 -16.852  0.00  0.00     0.275 HD
HETATM    9  H           1     -32.163  -2.986 -17.847  0.00  0.00     0.275 HD
ENDBRANCH   5   6
BRANCH   5  10
HETATM   10  C           1     -31.424  -4.567 -16.129  0.00  0.00     0.081 C 
BRANCH  10  11
HETATM   11  C           1     -30.615  -5.412 -17.065  0.00  0.00    -0.056 A 
HETATM   12  C           1     -29.471  -4.888 -17.664  0.00  0.00     0.007 A 
HETATM   13  C           1     -28.718  -5.675 -18.535  0.00  0.00     0.001 A 
HETATM   14  C           1     -29.110  -6.986 -18.807  0.00  0.00     0.000 A 
HETATM   15  C           1     -30.255  -7.510 -18.208  0.00  0.00     0.001 A 
HETATM   16  C           1     -31.008  -6.723 -17.337  0.00  0.00     0.007 A 
ENDBRANCH  10  11
ENDBRANCH   5  10
ENDBRANCH   3   5
BRANCH   2  17
HETATM   17  C           1     -34.202  -4.065 -13.044  0.00  0.00     0.185 C 
BRANCH  17  18
HETATM   18  C           1     -33.527  -4.732 -11.852  0.00  0.00     0.038 C 
BRANCH  18  19
HETATM   19  C           1     -34.585  -5.382 -10.969  0.00  0.00     0.030 C 
BRANCH  19  20
HETATM   20  C           1     -34.123  -6.777 -10.566  0.00  0.00     0.230 C 
BRANCH  20  21
HETATM   21  N           1     -35.109  -7.373  -9.606  0.00  0.00    -0.079 N 
HETATM   22  H           1     -35.604  -8.170 -10.066  0.00  0.00     0.274 HD
HETATM   23  H           1     -34.605  -7.719  -8.759  0.00  0.00     0.274 HD
HETATM   24  H           1     -35.804  -6.646  -9.325  0.00  0.00     0.274 HD
ENDBRANCH  20  21
ENDBRANCH  19  20
ENDBRANCH  18  19
ENDBRANCH  17  18
BRANCH  17  25
HETATM   25  C           1     -34.518  -2.630 -12.703  0.00  0.00     0.196 C 
HETATM   26  O           1     -34.197  -2.167 -11.587  0.00  0.00    -0.646 OA
HETATM   27  O           1     -35.102  -1.903 -13.536  0.00  0.00    -0.646 OA
ENDBRANCH  17  25
ENDBRANCH   2  17
TORSDOF 10
ENDMDL
MODEL 2
REMARK VINA RESULT:      -7.0     13.927     15.029
REMARK  10 active torsions:
REMARK  status: ('A' for Active; 'I' for Inactive)
REMARK    1  A    between atoms: N_1  and  C_17 
REMARK    2  A    between atoms: C_6  and  C_8 
REMARK    3  A    between atoms: C_6  and  C_7 
REMARK    4  A    between atoms: C_7  and  C_13 
REMARK    5  A    between atoms: C_8  and  N_25 
REMARK    6  A    between atoms: N_11  and  C_13 
REMARK       I    between atoms: N_11  and  C_19 
REMARK    7  A    between atoms: C_12  and  C_18 
REMARK    8  A    between atoms: C_13  and  C_14 
REMARK    9  A    between atoms: C_17  and  C_19 
REMARK   10  A    between atoms: C_17  and  C_18 
ROOT
HETATM    1  H           1     -21.857  -7.870  -5.973  0.00  0.00     0.163 HD
HETATM    2  N           1     -21.317  -7.253  -5.379  0.00  0.00    -0.345 N 
HETATM    3  C           1     -21.357  -5.900  -5.582  0.00  0.00     0.249 C 
HETATM    4  O           1     -20.712  -5.164  -4.873  0.00  0.00    -0.271 OA
ENDROOT
BRANCH   3   5
HETATM    5  C           1     -22.205  -5.327  -6.691  0.00  0.00     0.278 C 
BRANCH   5   6
HETATM    6  N           1     -23.582  -5.042  -6.170  0.00  0.00    -0.066 N 
HETATM    7  H           1     -23.995  -5.918  -5.779  0.00  0.00     0.275 HD
HETATM    8  H           1     -23.527  -4.317  -5.419  0.00  0.00     0.275 HD
HETATM    9  H           1     -24.183  -4.692  -6.950  0.00  0.00     0.275 HD
ENDBRANCH   5   6
BRANCH   5  10
HETATM   10  C           1     -21.576  -4.036  -7.197  0.00  0.00     0.081 C 
BRANCH  10  11
HETATM   11  C           1     -21.506  -4.066  -8.693  0.00  0.00    -0.056 A 
HETATM   12  C           1     -22.642  -3.779  -9.449  0.00  0.00     0.007 A 
HETATM   13  C           1     -22.577  -3.807 -10.842  0.00  0.00     0.001 A 
HETATM   14  C           1     -21.377  -4.123 -11.478  0.00  0.00     0.000 A 
HETATM   15  C           1     -20.241  -4.410 -10.721  0.00  0.00     0.001 A 
HETATM   16  C           1     -20.305  -4.382  -9.328  0.00  0.00     0.007 A 
ENDBRANCH  10  11
ENDBRANCH   5  10
ENDBRANCH   3   5
BRANCH   2  17
HETATM   17  C           1     -20.503  -7.803  -4.314  0.00  0.00     0.185 C 
BRANCH  17  18
HETATM   18  C           1     -21.405  -8.343  -3.211  0.00  0.00     0.038 C 
BRANCH  18  19
HETATM   19  C           1     -20.961  -7.776  -1.869  0.00  0.00     0.030 C 
BRANCH  19  20
HETATM   20  C           1     -22.097  -6.962  -1.260  0.00  0.00     0.230 C 
BRANCH  20  21
HETATM   21  N           1     -22.322  -5.726  -2.079  0.00  0.00    -0.079 N 
HETATM   22  H           1     -23.276  -5.758  -2.504  0.00  0.00     0.274 HD
HETATM   23  H           1     -22.241  -4.883  -1.466  0.00  0.00     0.274 HD
HETATM   24  H           1     -21.604  -5.675  -2.836  0.00  0.00     0.274 HD
ENDBRANCH  20  21
ENDBRANCH  19  20
ENDBRANCH  18  19
ENDBRANCH  17  18
BRANCH  17  25
HETATM   25  C           1     -19.652  -8.923  -4.858  0.00  0.00     0.196 C 
HETATM   26  O           1     -20.059  -9.606  -5.824  0.00  0.00    -0.646 OA
HETATM   27  O           1     -18.540  -9.170  -4.343  0.00  0.00    -0.646 OA
ENDBRANCH  17  25
ENDBRANCH   2  17
TORSDOF 10
ENDMDL
MODEL 3
REMARK VINA RESULT:      -6.9      4.756      6.754
REMARK  10 active torsions:
REMARK  status: ('A' for Active; 'I' for Inactive)
REMARK    1  A    between atoms: N_1  and  C_17 
REMARK    2  A    between atoms: C_6  and  C_8 
REMARK    3  A    between atoms: C_6  and  C_7 
REMARK    4  A    between atoms: C_7  and  C_13 
REMARK    5  A    between atoms: C_8  and  N_25 
REMARK    6  A    between atoms: N_11  and  C_13 
REMARK       I    between atoms: N_11  and  C_19 
REMARK    7  A    between atoms: C_12  and  C_18 
REMARK    8  A    between atoms: C_13  and  C_14 
REMARK    9  A    between atoms: C_17  and  C_19 
REMARK   10  A    between atoms: C_17  and  C_18 
ROOT
HETATM    1  H           1     -35.374  -1.927 -13.966  0.00  0.00     0.163 HD
HETATM    2  N           1     -34.968  -1.557 -13.115  0.00  0.00    -0.345 N 
HETATM    3  C           1     -34.290  -2.387 -12.264  0.00  0.00     0.249 C 
HETATM    4  O           1     -33.805  -1.946 -11.248  0.00  0.00    -0.271 OA
ENDROOT
BRANCH   3   5
HETATM    5  C           1     -34.147  -3.854 -12.592  0.00  0.00     0.278 C 
BRANCH   5   6
HETATM    6  N           1     -33.783  -4.008 -14.040  0.00  0.00    -0.066 N 
HETATM    7  H           1     -32.824  -4.414 -14.116  0.00  0.00     0.275 HD
HETATM    8  H           1     -34.469  -4.643 -14.505  0.00  0.00     0.275 HD
HETATM    9  H           1     -33.802  -3.072 -14.504  0.00  0.00     0.275 HD
ENDBRANCH   5   6
BRANCH   5  10
HETATM   10  C           1     -33.055  -4.465 -11.726  0.00  0.00     0.081 C 
BRANCH  10  11
HETATM   11  C           1     -33.600  -5.655 -10.999  0.00  0.00    -0.056 A 
HETATM   12  C           1     -32.876  -6.846 -10.971  0.00  0.00     0.007 A 
HETATM   13  C           1     -33.384  -7.955 -10.294  0.00  0.00     0.001 A 
HETATM   14  C           1     -34.616  -7.872  -9.646  0.00  0.00     0.000 A 
HETATM   15  C           1     -35.340  -6.680  -9.674  0.00  0.00     0.001 A 
HETATM   16  C           1     -34.832  -5.571 -10.351  0.00  0.00     0.007 A 
ENDBRANCH  10  11
ENDBRANCH   5  10
ENDBRANCH   3   5
BRANCH   2  17
HETATM   17  C           1     -35.105  -0.150 -12.800  0.00  0.00     0.185 C 
BRANCH  17  18
HETATM   18  C           1     -35.250   0.650 -14.089  0.00  0.00     0.038 C 
BRANCH  18  19
HETATM   19  C           1     -35.392  -0.307 -15.266  0.00  0.00     0.030 C 
BRANCH  19  20
HETATM   20  C           1     -36.795  -0.192 -15.848  0.00  0.00     0.230 C 
BRANCH  20  21
HETATM   21  N           1     -37.213   1.249 -15.864  0.00  0.00    -0.079 N 
HETATM   22  H           1     -37.974   1.383 -16.567  0.00  0.00     0.274 HD
HETATM   23  H           1     -37.562   1.521 -14.917  0.00  0.00     0.274 HD
HETATM   24  H           1     -36.394   1.846 -16.118  0.00  0.00     0.274 HD
ENDBRANCH  20  21
ENDBRANCH  19  20
ENDBRANCH  18  19
ENDBRANCH  17  18
BRANCH  17  25
HETATM   25  C           1     -36.328   0.057 -11.941  0.00  0.00     0.196 C 
HETATM   26  O           1     -36.202   0.361 -10.735  0.00  0.00    -0.646 OA
HETATM   27  O           1     -37.469  -0.077 -12.435  0.00  0.00    -0.646 OA
ENDBRANCH  17  25
ENDBRANCH   2  17
TORSDOF 10
ENDMDL
MODEL 4
REMARK VINA RESULT:      -6.8     12.438     14.253
REMARK  10 active torsions:
REMARK  status: ('A' for Active; 'I' for Inactive)
REMARK    1  A    between atoms: N_1  and  C_17 
REMARK    2  A    between atoms: C_6  and  C_8 
REMARK    3  A    between atoms: C_6  and  C_7 
REMARK    4  A    between atoms: C_7  and  C_13 
REMARK    5  A    between atoms: C_8  and  N_25 
REMARK    6  A    between atoms: N_11  and  C_13 
REMARK       I    between atoms: N_11  and  C_19 
REMARK    7  A    between atoms: C_12  and  C_18 
REMARK    8  A    between atoms: C_13  and  C_14 
REMARK    9  A    between atoms: C_17  and  C_19 
REMARK   10  A    between atoms: C_17  and  C_18 
ROOT
HETATM    1  H           1     -24.021  -5.075  -8.317  0.00  0.00     0.163 HD
HETATM    2  N           1     -23.251  -4.441  -8.487  0.00  0.00    -0.345 N 
HETATM    3  C           1     -22.286  -4.265  -7.533  0.00  0.00     0.249 C 
HETATM    4  O           1     -21.366  -3.508  -7.735  0.00  0.00    -0.271 OA
ENDROOT
BRANCH   3   5
HETATM    5  C           1     -22.370  -5.017  -6.226  0.00  0.00     0.278 C 
BRANCH   5   6
HETATM    6  N           1     -23.787  -5.449  -5.989  0.00  0.00    -0.066 N 
HETATM    7  H           1     -24.325  -5.383  -6.882  0.00  0.00     0.275 HD
HETATM    8  H           1     -23.797  -6.437  -5.649  0.00  0.00     0.275 HD
HETATM    9  H           1     -24.224  -4.827  -5.272  0.00  0.00     0.275 HD
ENDBRANCH   5   6
BRANCH   5  10
HETATM   10  C           1     -21.469  -6.242  -6.286  0.00  0.00     0.081 C 
BRANCH  10  11
HETATM   11  C           1     -21.419  -6.892  -4.937  0.00  0.00    -0.056 A 
HETATM   12  C           1     -21.335  -6.107  -3.788  0.00  0.00     0.007 A 
HETATM   13  C           1     -21.288  -6.711  -2.532  0.00  0.00     0.001 A 
HETATM   14  C           1     -21.326  -8.101  -2.426  0.00  0.00     0.000 A 
HETATM   15  C           1     -21.410  -8.887  -3.576  0.00  0.00     0.001 A 
HETATM   16  C           1     -21.456  -8.282  -4.831  0.00  0.00     0.007 A 
ENDBRANCH  10  11
ENDBRANCH   5  10
ENDBRANCH   3   5
BRANCH   2  17
HETATM   17  C           1     -23.169  -3.719  -9.742  0.00  0.00     0.185 C 
BRANCH  17  18
HETATM   18  C           1     -22.520  -4.605 -10.798  0.00  0.00     0.038 C 
BRANCH  18  19
HETATM   19  C           1     -21.591  -3.764 -11.664  0.00  0.00     0.030 C 
BRANCH  19  20
HETATM   20  C           1     -20.237  -3.632 -10.977  0.00  0.00     0.230 C 
BRANCH  20  21
HETATM   21  N           1     -19.946  -4.882 -10.201  0.00  0.00    -0.079 N 
HETATM   22  H           1     -20.371  -5.702 -10.689  0.00  0.00     0.274 HD
HETATM   23  H           1     -18.911  -5.016 -10.132  0.00  0.00     0.274 HD
HETATM   24  H           1     -20.350  -4.798  -9.242  0.00  0.00     0.274 HD
ENDBRANCH  20  21
ENDBRANCH  19  20
ENDBRANCH  18  19
ENDBRANCH  17  18
BRANCH  17  25
HETATM   25  C           1     -24.557  -3.337 -10.193  0.00  0.00     0.196 C 
HETATM   26  O           1     -25.318  -2.716  -9.419  0.00  0.00    -0.646 OA
HETATM   27  O           1     -24.948  -3.641 -11.341  0.00  0.00    -0.646 OA
ENDBRANCH  17  25
ENDBRANCH   2  17
TORSDOF 10
ENDMDL
MODEL 5
REMARK VINA RESULT:      -6.6     14.352     15.406
REMARK  10 active torsions:
REMARK  status: ('A' for Active; 'I' for Inactive)
REMARK    1  A    between atoms: N_1  and  C_17 
REMARK    2  A    between atoms: C_6  and  C_8 
REMARK    3  A    between atoms: C_6  and  C_7 
REMARK    4  A    between atoms: C_7  and  C_13 
REMARK    5  A    between atoms: C_8  and  N_25 
REMARK    6  A    between atoms: N_11  and  C_13 
REMARK       I    between atoms: N_11  and  C_19 
REMARK    7  A    between atoms: C_12  and  C_18 
REMARK    8  A    between atoms: C_13  and  C_14 
REMARK    9  A    between atoms: C_17  and  C_19 
REMARK   10  A    between atoms: C_17  and  C_18 
ROOT
HETATM    1  H           1     -19.907  -6.749  -4.547  0.00  0.00     0.163 HD
HETATM    2  N           1     -20.916  -6.815  -4.490  0.00  0.00    -0.345 N 
HETATM    3  C           1     -21.699  -6.013  -5.276  0.00  0.00     0.249 C 
HETATM    4  O           1     -22.903  -6.092  -5.209  0.00  0.00    -0.271 OA
ENDROOT
BRANCH   3   5
HETATM    5  C           1     -21.059  -5.031  -6.227  0.00  0.00     0.278 C 
BRANCH   5   6
HETATM    6  N           1     -19.837  -4.440  -5.587  0.00  0.00    -0.066 N 
HETATM    7  H           1     -19.124  -4.234  -6.322  0.00  0.00     0.275 HD
HETATM    8  H           1     -20.095  -3.556  -5.093  0.00  0.00     0.275 HD
HETATM    9  H           1     -19.441  -5.122  -4.901  0.00  0.00     0.275 HD
ENDBRANCH   5   6
BRANCH   5  10
HETATM   10  C           1     -20.665  -5.747  -7.510  0.00  0.00     0.081 C 
BRANCH  10  11
HETATM   11  C           1     -21.081  -4.925  -8.691  0.00  0.00    -0.056 A 
HETATM   12  C           1     -20.168  -4.658  -9.710  0.00  0.00     0.007 A 
HETATM   13  C           1     -20.556  -3.892 -10.809  0.00  0.00     0.001 A 
HETATM   14  C           1     -21.856  -3.393 -10.888  0.00  0.00     0.000 A 
HETATM   15  C           1     -22.769  -3.660  -9.868  0.00  0.00     0.001 A 
HETATM   16  C           1     -22.381  -4.426  -8.769  0.00  0.00     0.007 A 
ENDBRANCH  10  11
ENDBRANCH   5  10
ENDBRANCH   3   5
BRANCH   2  17
HETATM   17  C           1     -21.530  -7.759  -3.578  0.00  0.00     0.185 C 
BRANCH  17  18
HETATM   18  C           1     -20.812  -9.099  -3.672  0.00  0.00     0.038 C 
BRANCH  18  19
HETATM   19  C           1     -19.550  -8.941  -4.510  0.00  0.00     0.030 C 
BRANCH  19  20
HETATM   20  C           1     -18.338  -9.359  -3.686  0.00  0.00     0.230 C 
BRANCH  20  21
HETATM   21  N           1     -18.796  -9.946  -2.384  0.00  0.00    -0.079 N 
HETATM   22  H           1     -19.840  -9.959  -2.356  0.00  0.00     0.274 HD
HETATM   23  H           1     -18.433 -10.922  -2.295  0.00  0.00     0.274 HD
HETATM   24  H           1     -18.432  -9.367  -1.595  0.00  0.00     0.274 HD
ENDBRANCH  20  21
ENDBRANCH  19  20
ENDBRANCH  18  19
ENDBRANCH  17  18
BRANCH  17  25
HETATM   25  C           1     -21.429  -7.233  -2.167  0.00  0.00     0.196 C 
HETATM   26  O           1     -20.645  -7.770  -1.354  0.00  0.00    -0.646 OA
HETATM   27  O           1     -22.129  -6.261  -1.810  0.00  0.00    -0.646 OA
ENDBRANCH  17  25
ENDBRANCH   2  17
TORSDOF 10
ENDMDL
MODEL 6
REMARK VINA RESULT:      -6.6     14.268     16.390
REMARK  10 active torsions:
REMARK  status: ('A' for Active; 'I' for Inactive)
REMARK    1  A    between atoms: N_1  and  C_17 
REMARK    2  A    between atoms: C_6  and  C_8 
REMARK    3  A    between atoms: C_6  and  C_7 
REMARK    4  A    between atoms: C_7  and  C_13 
REMARK    5  A    between atoms: C_8  and  N_25 
REMARK    6  A    between atoms: N_11  and  C_13 
REMARK       I    between atoms: N_11  and  C_19 
REMARK    7  A    between atoms: C_12  and  C_18 
REMARK    8  A    between atoms: C_13  and  C_14 
REMARK    9  A    between atoms: C_17  and  C_19 
REMARK   10  A    between atoms: C_17  and  C_18 
ROOT
HETATM    1  H           1     -22.150  -4.990  -5.245  0.00  0.00     0.163 HD
HETATM    2  N           1     -21.749  -5.623  -5.924  0.00  0.00    -0.345 N 
HETATM    3  C           1     -21.552  -6.939  -5.601  0.00  0.00     0.249 C 
HETATM    4  O           1     -21.073  -7.696  -6.413  0.00  0.00    -0.271 OA
ENDROOT
BRANCH   3   5
HETATM    5  C           1     -21.934  -7.446  -4.232  0.00  0.00     0.278 C 
BRANCH   5   6
HETATM    6  N           1     -21.820  -8.941  -4.203  0.00  0.00    -0.066 N 
HETATM    7  H           1     -21.772  -9.269  -3.212  0.00  0.00     0.275 HD
HETATM    8  H           1     -22.655  -9.363  -4.670  0.00  0.00     0.275 HD
HETATM    9  H           1     -20.953  -9.233  -4.709  0.00  0.00     0.275 HD
ENDBRANCH   5   6
BRANCH   5  10
HETATM   10  C           1     -21.001  -6.846  -3.189  0.00  0.00     0.081 C 
BRANCH  10  11
HETATM   11  C           1     -21.347  -7.389  -1.837  0.00  0.00    -0.056 A 
HETATM   12  C           1     -22.422  -6.856  -1.126  0.00  0.00     0.007 A 
HETATM   13  C           1     -22.745  -7.361   0.133  0.00  0.00     0.001 A 
HETATM   14  C           1     -21.992  -8.399   0.681  0.00  0.00     0.000 A 
HETATM   15  C           1     -20.917  -8.933  -0.030  0.00  0.00     0.001 A 
HETATM   16  C           1     -20.594  -8.428  -1.289  0.00  0.00     0.007 A 
ENDBRANCH  10  11
ENDBRANCH   5  10
ENDBRANCH   3   5
BRANCH   2  17
HETATM   17  C           1     -21.382  -5.138  -7.240  0.00  0.00     0.185 C 
BRANCH  17  18
HETATM   18  C           1     -22.432  -4.147  -7.727  0.00  0.00     0.038 C 
BRANCH  18  19
HETATM   19  C           1     -22.873  -4.526  -9.135  0.00  0.00     0.030 C 
BRANCH  19  20
HETATM   20  C           1     -23.859  -3.488  -9.655  0.00  0.00     0.230 C 
BRANCH  20  21
HETATM   21  N           1     -25.251  -4.041  -9.588  0.00  0.00    -0.079 N 
HETATM   22  H           1     -25.209  -5.080  -9.491  0.00  0.00     0.274 HD
HETATM   23  H           1     -25.749  -3.633  -8.765  0.00  0.00     0.274 HD
HETATM   24  H           1     -25.766  -3.792 -10.463  0.00  0.00     0.274 HD
ENDBRANCH  20  21
ENDBRANCH  19  20
ENDBRANCH  18  19
ENDBRANCH  17  18
BRANCH  17  25
HETATM   25  C           1     -20.041  -4.452  -7.167  0.00  0.00     0.196 C 
HETATM   26  O           1     -19.349  -4.538  -6.128  0.00  0.00    -0.646 OA
HETATM   27  O           1     -19.620  -3.796  -8.144  0.00  0.00    -0.646 OA
ENDBRANCH  17  25
ENDBRANCH   2  17
TORSDOF 10
ENDMDL
MODEL 7
REMARK VINA RESULT:      -6.5     13.838     14.905
REMARK  10 active torsions:
REMARK  status: ('A' for Active; 'I' for Inactive)
REMARK    1  A    between atoms: N_1  and  C_17 
REMARK    2  A    between atoms: C_6  and  C_8 
REMARK    3  A    between atoms: C_6  and  C_7 
REMARK    4  A    between atoms: C_7  and  C_13 
REMARK    5  A    between atoms: C_8  and  N_25 
REMARK    6  A    between atoms: N_11  and  C_13 
REMARK       I    between atoms: N_11  and  C_19 
REMARK    7  A    between atoms: C_12  and  C_18 
REMARK    8  A    between atoms: C_13  and  C_14 
REMARK    9  A    between atoms: C_17  and  C_19 
REMARK   10  A    between atoms: C_17  and  C_18 
ROOT
HETATM    1  H           1     -22.378  -6.935  -4.688  0.00  0.00     0.163 HD
HETATM    2  N           1     -21.448  -7.147  -5.025  0.00  0.00    -0.345 N 
HETATM    3  C           1     -20.979  -6.546  -6.162  0.00  0.00     0.249 C 
HETATM    4  O           1     -19.868  -6.798  -6.566  0.00  0.00    -0.271 OA
ENDROOT
BRANCH   3   5
HETATM    5  C           1     -21.849  -5.567  -6.914  0.00  0.00     0.278 C 
BRANCH   5   6
HETATM    6  N           1     -22.955  -5.093  -6.018  0.00  0.00    -0.066 N 
HETATM    7  H           1     -22.933  -4.050  -5.958  0.00  0.00     0.275 HD
HETATM    8  H           1     -23.875  -5.400  -6.408  0.00  0.00     0.275 HD
HETATM    9  H           1     -22.828  -5.499  -5.064  0.00  0.00     0.275 HD
ENDBRANCH   5   6
BRANCH   5  10
HETATM   10  C           1     -21.010  -4.377  -7.358  0.00  0.00     0.081 C 
BRANCH  10  11
HETATM   11  C           1     -21.161  -4.183  -8.835  0.00  0.00    -0.056 A 
HETATM   12  C           1     -22.378  -3.752  -9.361  0.00  0.00     0.007 A 
HETATM   13  C           1     -22.518  -3.571 -10.736  0.00  0.00     0.001 A 
HETATM   14  C           1     -21.441  -3.822 -11.586  0.00  0.00     0.000 A 
HETATM   15  C           1     -20.223  -4.253 -11.060  0.00  0.00     0.001 A 
HETATM   16  C           1     -20.083  -4.434  -9.684  0.00  0.00     0.007 A 
ENDBRANCH  10  11
ENDBRANCH   5  10
ENDBRANCH   3   5
BRANCH   2  17
HETATM   17  C           1     -20.612  -8.085  -4.304  0.00  0.00     0.185 C 
BRANCH  17  18
HETATM   18  C           1     -20.610  -7.732  -2.822  0.00  0.00     0.038 C 
BRANCH  18  19
HETATM   19  C           1     -21.602  -6.604  -2.569  0.00  0.00     0.030 C 
BRANCH  19  20
HETATM   20  C           1     -22.323  -6.850  -1.249  0.00  0.00     0.230 C 
BRANCH  20  21
HETATM   21  N           1     -22.217  -8.300  -0.883  0.00  0.00    -0.079 N 
HETATM   22  H           1     -23.162  -8.743  -0.937  0.00  0.00     0.274 HD
HETATM   23  H           1     -21.568  -8.781  -1.547  0.00  0.00     0.274 HD
HETATM   24  H           1     -21.846  -8.387   0.090  0.00  0.00     0.274 HD
ENDBRANCH  20  21
ENDBRANCH  19  20
ENDBRANCH  18  19
ENDBRANCH  17  18
BRANCH  17  25
HETATM   25  C           1     -21.152  -9.482  -4.486  0.00  0.00     0.196 C 
HETATM   26  O           1     -21.095 -10.035  -5.606  0.00  0.00    -0.646 OA
HETATM   27  O           1     -21.659 -10.087  -3.516  0.00  0.00    -0.646 OA
ENDBRANCH  17  25
ENDBRANCH   2  17
TORSDOF 10
ENDMDL
MODEL 8
REMARK VINA RESULT:      -6.4      5.721      8.207
REMARK  10 active torsions:
REMARK  status: ('A' for Active; 'I' for Inactive)
REMARK    1  A    between atoms: N_1  and  C_17 
REMARK    2  A    between atoms: C_6  and  C_8 
REMARK    3  A    between atoms: C_6  and  C_7 
REMARK    4  A    between atoms: C_7  and  C_13 
REMARK    5  A    between atoms: C_8  and  N_25 
REMARK    6  A    between atoms: N_11  and  C_13 
REMARK       I    between atoms: N_11  and  C_19 
REMARK    7  A    between atoms: C_12  and  C_18 
REMARK    8  A    between atoms: C_13  and  C_14 
REMARK    9  A    between atoms: C_17  and  C_19 
REMARK   10  A    between atoms: C_17  and  C_18 
ROOT
HETATM    1  H           1     -27.443  -7.503 -17.975  0.00  0.00     0.163 HD
HETATM    2  N           1     -27.673  -6.655 -18.478  0.00  0.00    -0.345 N 
HETATM    3  C           1     -27.272  -6.501 -19.777  0.00  0.00     0.249 C 
HETATM    4  O           1     -27.547  -5.488 -20.378  0.00  0.00    -0.271 OA
ENDROOT
BRANCH   3   5
HETATM    5  C           1     -26.487  -7.593 -20.461  0.00  0.00     0.278 C 
BRANCH   5   6
HETATM    6  N           1     -27.435  -8.610 -21.026  0.00  0.00    -0.066 N 
HETATM    7  H           1     -27.143  -8.855 -22.000  0.00  0.00     0.275 HD
HETATM    8  H           1     -27.419  -9.469 -20.432  0.00  0.00     0.275 HD
HETATM    9  H           1     -28.401  -8.212 -21.042  0.00  0.00     0.275 HD
ENDBRANCH   5   6
BRANCH   5  10
HETATM   10  C           1     -25.655  -6.994 -21.586  0.00  0.00     0.081 C 
BRANCH  10  11
HETATM   11  C           1     -24.318  -7.668 -21.632  0.00  0.00    -0.056 A 
HETATM   12  C           1     -23.779  -8.064 -22.856  0.00  0.00     0.007 A 
HETATM   13  C           1     -22.534  -8.691 -22.899  0.00  0.00     0.001 A 
HETATM   14  C           1     -21.829  -8.923 -21.718  0.00  0.00     0.000 A 
HETATM   15  C           1     -22.368  -8.527 -20.494  0.00  0.00     0.001 A 
HETATM   16  C           1     -23.613  -7.899 -20.451  0.00  0.00     0.007 A 
ENDBRANCH  10  11
ENDBRANCH   5  10
ENDBRANCH   3   5
BRANCH   2  17
HETATM   17  C           1     -28.427  -5.606 -17.822  0.00  0.00     0.185 C 
BRANCH  17  18
HETATM   18  C           1     -29.569  -6.222 -17.024  0.00  0.00     0.038 C 
BRANCH  18  19
HETATM   19  C           1     -30.900  -5.758 -17.601  0.00  0.00     0.030 C 
BRANCH  19  20
HETATM   20  C           1     -31.450  -4.616 -16.756  0.00  0.00     0.230 C 
BRANCH  20  21
HETATM   21  N           1     -31.299  -3.323 -17.501  0.00  0.00    -0.079 N 
HETATM   22  H           1     -30.310  -3.218 -17.819  0.00  0.00     0.274 HD
HETATM   23  H           1     -31.934  -3.324 -18.332  0.00  0.00     0.274 HD
HETATM   24  H           1     -31.551  -2.528 -16.872  0.00  0.00     0.274 HD
ENDBRANCH  20  21
ENDBRANCH  19  20
ENDBRANCH  18  19
ENDBRANCH  17  18
BRANCH  17  25
HETATM   25  C           1     -27.520  -4.841 -16.891  0.00  0.00     0.196 C 
HETATM   26  O           1     -27.846  -3.700 -16.496  0.00  0.00    -0.646 OA
HETATM   27  O           1     -26.441  -5.347 -16.514  0.00  0.00    -0.646 OA
ENDBRANCH  17  25
ENDBRANCH   2  17
TORSDOF 10
ENDMDL
MODEL 9
REMARK VINA RESULT:      -6.4     13.862     15.761
REMARK  10 active torsions:
REMARK  status: ('A' for Active; 'I' for Inactive)
REMARK    1  A    between atoms: N_1  and  C_17 
REMARK    2  A    between atoms: C_6  and  C_8 
REMARK    3  A    between atoms: C_6  and  C_7 
REMARK    4  A    between atoms: C_7  and  C_13 
REMARK    5  A    between atoms: C_8  and  N_25 
REMARK    6  A    between atoms: N_11  and  C_13 
REMARK       I    between atoms: N_11  and  C_19 
REMARK    7  A    between atoms: C_12  and  C_18 
REMARK    8  A    between atoms: C_13  and  C_14 
REMARK    9  A    between atoms: C_17  and  C_19 
REMARK   10  A    between atoms: C_17  and  C_18 
ROOT
HETATM    1  H           1     -21.930  -4.179  -6.452  0.00  0.00     0.163 HD
HETATM    2  N           1     -21.474  -4.849  -7.058  0.00  0.00    -0.345 N 
HETATM    3  C           1     -20.725  -5.860  -6.520  0.00  0.00     0.249 C 
HETATM    4  O           1     -20.181  -6.660  -7.244  0.00  0.00    -0.271 OA
ENDROOT
BRANCH   3   5
HETATM    5  C           1     -20.578  -5.976  -5.022  0.00  0.00     0.278 C 
BRANCH   5   6
HETATM    6  N           1     -20.120  -4.661  -4.462  0.00  0.00    -0.066 N 
HETATM    7  H           1     -20.031  -3.965  -5.236  0.00  0.00     0.275 HD
HETATM    8  H           1     -20.817  -4.319  -3.763  0.00  0.00     0.275 HD
HETATM    9  H           1     -19.192  -4.786  -3.998  0.00  0.00     0.275 HD
ENDBRANCH   5   6
BRANCH   5  10
HETATM   10  C           1     -21.918  -6.351  -4.406  0.00  0.00     0.081 C 
BRANCH  10  11
HETATM   11  C           1     -21.697  -6.940  -3.047  0.00  0.00    -0.056 A 
HETATM   12  C           1     -20.808  -8.002  -2.885  0.00  0.00     0.007 A 
HETATM   13  C           1     -20.602  -8.552  -1.620  0.00  0.00     0.001 A 
HETATM   14  C           1     -21.285  -8.039  -0.517  0.00  0.00     0.000 A 
HETATM   15  C           1     -22.174  -6.976  -0.680  0.00  0.00     0.001 A 
HETATM   16  C           1     -22.381  -6.427  -1.945  0.00  0.00     0.007 A 
ENDBRANCH  10  11
ENDBRANCH   5  10
ENDBRANCH   3   5
BRANCH   2  17
HETATM   17  C           1     -21.616  -4.738  -8.496  0.00  0.00     0.185 C 
BRANCH  17  18
HETATM   18  C           1     -22.680  -3.698  -8.825  0.00  0.00     0.038 C 
BRANCH  18  19
HETATM   19  C           1     -22.905  -3.661 -10.331  0.00  0.00     0.030 C 
BRANCH  19  20
HETATM   20  C           1     -24.309  -4.161 -10.647  0.00  0.00     0.230 C 
BRANCH  20  21
HETATM   21  N           1     -25.273  -3.620  -9.633  0.00  0.00    -0.079 N 
HETATM   22  H           1     -24.915  -2.711  -9.262  0.00  0.00     0.274 HD
HETATM   23  H           1     -26.204  -3.470 -10.083  0.00  0.00     0.274 HD
HETATM   24  H           1     -25.371  -4.303  -8.849  0.00  0.00     0.274 HD
ENDBRANCH  20  21
ENDBRANCH  19  20
ENDBRANCH  18  19
ENDBRANCH  17  18
BRANCH  17  25
HETATM   25  C           1     -20.299  -4.316  -9.100  0.00  0.00     0.196 C 
HETATM   26  O           1     -19.610  -3.434  -8.543  0.00  0.00    -0.646 OA
HETATM   27  O           1     -19.897  -4.848 -10.158  0.00  0.00    -0.646 OA
ENDBRANCH  17  25
ENDBRANCH   2  17
TORSDOF 10
ENDMDL
