MODEL 1
REMARK VINA RESULT:      -5.4      0.000      0.000
REMARK  9 active torsions:
REMARK  status: ('A' for Active; 'I' for Inactive)
REMARK    1  A    between atoms: S_2  and  C_3 
REMARK    2  A    between atoms: C_3  and  C_4 
REMARK    3  A    between atoms: C_4  and  C_5 
REMARK    4  A    between atoms: C_4  and  N_8 
REMARK       I    between atoms: N_8  and  C_9 
REMARK    5  A    between atoms: C_9  and  C_10 
REMARK    6  A    between atoms: C_10  and  C_11 
REMARK    7  A    between atoms: C_10  and  N_15 
REMARK    8  A    between atoms: C_11  and  C_12 
REMARK    9  A    between atoms: C_12  and  Se_13 
ROOT
HETATM    1  H           1     -35.187  -1.893 -14.001  0.00  0.00     0.163 HD
HETATM    2  N           1     -34.867  -1.556 -13.102  0.00  0.00    -0.344 N 
HETATM    3  C           1     -34.231  -2.408 -12.239  0.00  0.00     0.249 C 
HETATM    4  O           1     -33.847  -2.005 -11.166  0.00  0.00    -0.271 OA
ENDROOT
BRANCH   3   5
HETATM    5  C           1     -34.009  -3.849 -12.627  0.00  0.00     0.274 C 
BRANCH   5   6
HETATM    6  C           1     -32.712  -4.350 -12.005  0.00  0.00     0.042 C 
BRANCH   6   7
HETATM    7  C           1     -32.973  -5.659 -11.272  0.00  0.00     0.003 C 
BRANCH   7   8
HETATM    8 Se           1     -34.829  -5.715 -10.681  0.00  0.00     0.000 Se
HETATM    9  C           1     -34.748  -7.561 -10.061  0.00  0.00     0.000 C 
ENDBRANCH   7   8
ENDBRANCH   6   7
ENDBRANCH   5   6
BRANCH   5  10
HETATM   10  N           1     -33.920  -3.956 -14.120  0.00  0.00    -0.067 N 
HETATM   11  H           1     -33.071  -3.448 -14.457  0.00  0.00     0.275 HD
HETATM   12  H           1     -33.854  -4.962 -14.394  0.00  0.00     0.275 HD
HETATM   13  H           1     -34.773  -3.532 -14.551  0.00  0.00     0.275 HD
ENDBRANCH   5  10
ENDBRANCH   3   5
BRANCH   2  14
HETATM   14  C           1     -35.080  -0.171 -12.728  0.00  0.00     0.194 C 
BRANCH  14  15
HETATM   15  C           1     -35.217   0.677 -13.986  0.00  0.00     0.106 C 
BRANCH  15  16
HETATM   16  S           1     -35.627  -0.391 -15.395  0.00  0.00    -0.180 SA
HETATM   17  H           1     -36.801   0.199 -15.682  0.00  0.00     0.101 HD
ENDBRANCH  15  16
ENDBRANCH  14  15
BRANCH  14  18
HETATM   18  C           1     -36.340  -0.061 -11.907  0.00  0.00     0.197 C 
HETATM   19  O           1     -37.411  -0.542 -12.337  0.00  0.00    -0.646 OA
HETATM   20  O           1     -36.313   0.511 -10.795  0.00  0.00    -0.646 OA
ENDBRANCH  14  18
ENDBRANCH   2  14
TORSDOF 9
ENDMDL
MODEL 2
REMARK VINA RESULT:      -5.3      2.443      2.808
REMARK  9 active torsions:
REMARK  status: ('A' for Active; 'I' for Inactive)
REMARK    1  A    between atoms: S_2  and  C_3 
REMARK    2  A    between atoms: C_3  and  C_4 
REMARK    3  A    between atoms: C_4  and  C_5 
REMARK    4  A    between atoms: C_4  and  N_8 
REMARK       I    between atoms: N_8  and  C_9 
REMARK    5  A    between atoms: C_9  and  C_10 
REMARK    6  A    between atoms: C_10  and  C_11 
REMARK    7  A    between atoms: C_10  and  N_15 
REMARK    8  A    between atoms: C_11  and  C_12 
REMARK    9  A    between atoms: C_12  and  Se_13 
ROOT
HETATM    1  H           1     -35.340  -0.046 -12.046  0.00  0.00     0.163 HD
HETATM    2  N           1     -35.384  -0.776 -12.746  0.00  0.00    -0.344 N 
HETATM    3  C           1     -34.620  -1.904 -12.608  0.00  0.00     0.249 C 
HETATM    4  O           1     -34.673  -2.776 -13.443  0.00  0.00    -0.271 OA
ENDROOT
BRANCH   3   5
HETATM    5  C           1     -33.710  -2.058 -11.414  0.00  0.00     0.274 C 
BRANCH   5   6
HETATM    6  C           1     -33.119  -3.462 -11.402  0.00  0.00     0.042 C 
BRANCH   6   7
HETATM    7  C           1     -33.960  -4.360 -10.504  0.00  0.00     0.003 C 
BRANCH   7   8
HETATM    8 Se           1     -34.642  -5.861 -11.542  0.00  0.00     0.000 Se
HETATM    9  C           1     -34.730  -7.082 -10.024  0.00  0.00     0.000 C 
ENDBRANCH   7   8
ENDBRANCH   6   7
ENDBRANCH   5   6
BRANCH   5  10
HETATM   10  N           1     -34.496  -1.837 -10.156  0.00  0.00    -0.067 N 
HETATM   11  H           1     -34.591  -0.812  -9.978  0.00  0.00     0.275 HD
HETATM   12  H           1     -35.446  -2.260 -10.261  0.00  0.00     0.275 HD
HETATM   13  H           1     -34.002  -2.286  -9.353  0.00  0.00     0.275 HD
ENDBRANCH   5  10
ENDBRANCH   3   5
BRANCH   2  14
HETATM   14  C           1     -36.258  -0.629 -13.894  0.00  0.00     0.194 C 
BRANCH  14  15
HETATM   15  C           1     -37.600  -0.069 -13.439  0.00  0.00     0.106 C 
BRANCH  15  16
HETATM   16  S           1     -37.713  -0.161 -11.630  0.00  0.00    -0.180 SA
HETATM   17  H           1     -36.444   0.212 -11.391  0.00  0.00     0.101 HD
ENDBRANCH  15  16
ENDBRANCH  14  15
BRANCH  14  18
HETATM   18  C           1     -35.628   0.316 -14.886  0.00  0.00     0.197 C 
HETATM   19  O           1     -34.442   0.681 -14.736  0.00  0.00    -0.646 OA
HETATM   20  O           1     -36.292   0.734 -15.859  0.00  0.00    -0.646 OA
ENDBRANCH  14  18
ENDBRANCH   2  14
TORSDOF 9
ENDMDL
MODEL 3
REMARK VINA RESULT:      -5.2     12.472     13.939
REMARK  9 active torsions:
REMARK  status: ('A' for Active; 'I' for Inactive)
REMARK    1  A    between atoms: S_2  and  C_3 
REMARK    2  A    between atoms: C_3  and  C_4 
REMARK    3  A    between atoms: C_4  and  C_5 
REMARK    4  A    between atoms: C_4  and  N_8 
REMARK       I    between atoms: N_8  and  C_9 
REMARK    5  A    between atoms: C_9  and  C_10 
REMARK    6  A    between atoms: C_10  and  C_11 
REMARK    7  A    between atoms: C_10  and  N_15 
REMARK    8  A    between atoms: C_11  and  C_12 
REMARK    9  A    between atoms: C_12  and  Se_13 
ROOT
HETATM    1  H           1     -22.333  -5.674  -9.440  0.00  0.00     0.163 HD
HETATM    2  N           1     -22.320  -4.760  -9.005  0.00  0.00    -0.344 N 
HETATM    3  C           1     -21.795  -4.608  -7.749  0.00  0.00     0.249 C 
HETATM    4  O           1     -21.779  -3.517  -7.230  0.00  0.00    -0.271 OA
ENDROOT
BRANCH   3   5
HETATM    5  C           1     -21.237  -5.801  -7.014  0.00  0.00     0.274 C 
BRANCH   5   6
HETATM    6  C           1     -21.148  -5.487  -5.526  0.00  0.00     0.042 C 
BRANCH   6   7
HETATM    7  C           1     -21.941  -6.523  -4.740  0.00  0.00     0.003 C 
BRANCH   7   8
HETATM    8 Se           1     -21.573  -6.315  -2.837  0.00  0.00     0.000 Se
HETATM    9  C           1     -21.376  -8.225  -2.499  0.00  0.00     0.000 C 
ENDBRANCH   7   8
ENDBRANCH   6   7
ENDBRANCH   5   6
BRANCH   5  10
HETATM   10  N           1     -19.869  -6.116  -7.540  0.00  0.00    -0.067 N 
HETATM   11  H           1     -19.917  -6.261  -8.574  0.00  0.00     0.275 HD
HETATM   12  H           1     -19.224  -5.321  -7.331  0.00  0.00     0.275 HD
HETATM   13  H           1     -19.510  -6.984  -7.083  0.00  0.00     0.275 HD
ENDBRANCH   5  10
ENDBRANCH   3   5
BRANCH   2  14
HETATM   14  C           1     -22.856  -3.613  -9.710  0.00  0.00     0.194 C 
BRANCH  14  15
HETATM   15  C           1     -22.002  -3.330 -10.939  0.00  0.00     0.106 C 
BRANCH  15  16
HETATM   16  S           1     -20.476  -4.309 -10.854  0.00  0.00    -0.180 SA
HETATM   17  H           1     -19.731  -3.358 -10.265  0.00  0.00     0.101 HD
ENDBRANCH  15  16
ENDBRANCH  14  15
BRANCH  14  18
HETATM   18  C           1     -24.274  -3.903 -10.139  0.00  0.00     0.197 C 
HETATM   19  O           1     -24.833  -4.959  -9.771  0.00  0.00    -0.646 OA
HETATM   20  O           1     -24.888  -3.089 -10.861  0.00  0.00    -0.646 OA
ENDBRANCH  14  18
ENDBRANCH   2  14
TORSDOF 9
ENDMDL
MODEL 4
REMARK VINA RESULT:      -4.8      2.307      2.989
REMARK  9 active torsions:
REMARK  status: ('A' for Active; 'I' for Inactive)
REMARK    1  A    between atoms: S_2  and  C_3 
REMARK    2  A    between atoms: C_3  and  C_4 
REMARK    3  A    between atoms: C_4  and  C_5 
REMARK    4  A    between atoms: C_4  and  N_8 
REMARK       I    between atoms: N_8  and  C_9 
REMARK    5  A    between atoms: C_9  and  C_10 
REMARK    6  A    between atoms: C_10  and  C_11 
REMARK    7  A    between atoms: C_10  and  N_15 
REMARK    8  A    between atoms: C_11  and  C_12 
REMARK    9  A    between atoms: C_12  and  Se_13 
ROOT
HETATM    1  H           1     -34.001  -1.754 -14.038  0.00  0.00     0.163 HD
HETATM    2  N           1     -34.872  -1.372 -13.692  0.00  0.00    -0.344 N 
HETATM    3  C           1     -35.299  -1.678 -12.428  0.00  0.00     0.249 C 
HETATM    4  O           1     -36.338  -1.221 -12.013  0.00  0.00    -0.271 OA
ENDROOT
BRANCH   3   5
HETATM    5  C           1     -34.472  -2.587 -11.551  0.00  0.00     0.274 C 
BRANCH   5   6
HETATM    6  C           1     -35.344  -3.722 -11.029  0.00  0.00     0.042 C 
BRANCH   6   7
HETATM    7  C           1     -35.050  -4.992 -11.817  0.00  0.00     0.003 C 
BRANCH   7   8
HETATM    8 Se           1     -33.638  -5.997 -10.927  0.00  0.00     0.000 Se
HETATM    9  C           1     -34.849  -7.284 -10.102  0.00  0.00     0.000 C 
ENDBRANCH   7   8
ENDBRANCH   6   7
ENDBRANCH   5   6
BRANCH   5  10
HETATM   10  N           1     -33.927  -1.803 -10.394  0.00  0.00    -0.067 N 
HETATM   11  H           1     -34.610  -1.060 -10.123  0.00  0.00     0.275 HD
HETATM   12  H           1     -33.771  -2.443  -9.583  0.00  0.00     0.275 HD
HETATM   13  H           1     -33.022  -1.361 -10.669  0.00  0.00     0.275 HD
ENDBRANCH   5  10
ENDBRANCH   3   5
BRANCH   2  14
HETATM   14  C           1     -35.666  -0.499 -14.533  0.00  0.00     0.194 C 
BRANCH  14  15
HETATM   15  C           1     -34.988   0.862 -14.634  0.00  0.00     0.106 C 
BRANCH  15  16
HETATM   16  S           1     -35.944   1.934 -15.744  0.00  0.00    -0.180 SA
HETATM   17  H           1     -35.385   1.491 -16.884  0.00  0.00     0.101 HD
ENDBRANCH  15  16
ENDBRANCH  14  15
BRANCH  14  18
HETATM   18  C           1     -35.790  -1.104 -15.910  0.00  0.00     0.197 C 
HETATM   19  O           1     -34.764  -1.459 -16.530  0.00  0.00    -0.646 OA
HETATM   20  O           1     -36.917  -1.250 -16.430  0.00  0.00    -0.646 OA
ENDBRANCH  14  18
ENDBRANCH   2  14
TORSDOF 9
ENDMDL
MODEL 5
REMARK VINA RESULT:      -4.6      2.082      5.838
REMARK  9 active torsions:
REMARK  status: ('A' for Active; 'I' for Inactive)
REMARK    1  A    between atoms: S_2  and  C_3 
REMARK    2  A    between atoms: C_3  and  C_4 
REMARK    3  A    between atoms: C_4  and  C_5 
REMARK    4  A    between atoms: C_4  and  N_8 
REMARK       I    between atoms: N_8  and  C_9 
REMARK    5  A    between atoms: C_9  and  C_10 
REMARK    6  A    between atoms: C_10  and  C_11 
REMARK    7  A    between atoms: C_10  and  N_15 
REMARK    8  A    between atoms: C_11  and  C_12 
REMARK    9  A    between atoms: C_12  and  Se_13 
ROOT
HETATM    1  H           1     -36.199  -3.465 -11.957  0.00  0.00     0.163 HD
HETATM    2  N           1     -35.338  -3.299 -11.452  0.00  0.00    -0.344 N 
HETATM    3  C           1     -35.115  -2.085 -10.859  0.00  0.00     0.249 C 
HETATM    4  O           1     -34.087  -1.887 -10.255  0.00  0.00    -0.271 OA
ENDROOT
BRANCH   3   5
HETATM    5  C           1     -36.152  -0.993 -10.960  0.00  0.00     0.274 C 
BRANCH   5   6
HETATM    6  C           1     -35.724   0.020 -12.014  0.00  0.00     0.042 C 
BRANCH   6   7
HETATM    7  C           1     -36.366  -0.334 -13.349  0.00  0.00     0.003 C 
BRANCH   7   8
HETATM    8 Se           1     -35.445   0.611 -14.783  0.00  0.00     0.000 Se
HETATM    9  C           1     -35.898  -0.695 -16.158  0.00  0.00     0.000 C 
ENDBRANCH   7   8
ENDBRANCH   6   7
ENDBRANCH   5   6
BRANCH   5  10
HETATM   10  N           1     -36.285  -0.308  -9.633  0.00  0.00    -0.067 N 
HETATM   11  H           1     -36.924   0.514  -9.726  0.00  0.00     0.275 HD
HETATM   12  H           1     -36.679  -0.976  -8.933  0.00  0.00     0.275 HD
HETATM   13  H           1     -35.345   0.018  -9.313  0.00  0.00     0.275 HD
ENDBRANCH   5  10
ENDBRANCH   3   5
BRANCH   2  14
HETATM   14  C           1     -34.341  -4.347 -11.354  0.00  0.00     0.194 C 
BRANCH  14  15
HETATM   15  C           1     -35.010  -5.702 -11.548  0.00  0.00     0.106 C 
BRANCH  15  16
HETATM   16  S           1     -34.520  -6.817 -10.203  0.00  0.00    -0.180 SA
HETATM   17  H           1     -33.907  -7.722 -10.986  0.00  0.00     0.101 HD
ENDBRANCH  15  16
ENDBRANCH  14  15
BRANCH  14  18
HETATM   18  C           1     -33.294  -4.145 -12.422  0.00  0.00     0.197 C 
HETATM   19  O           1     -33.631  -3.763 -13.564  0.00  0.00    -0.646 OA
HETATM   20  O           1     -32.089  -4.359 -12.164  0.00  0.00    -0.646 OA
ENDBRANCH  14  18
ENDBRANCH   2  14
TORSDOF 9
ENDMDL
MODEL 6
REMARK VINA RESULT:      -4.6     13.908     16.145
REMARK  9 active torsions:
REMARK  status: ('A' for Active; 'I' for Inactive)
REMARK    1  A    between atoms: S_2  and  C_3 
REMARK    2  A    between atoms: C_3  and  C_4 
REMARK    3  A    between atoms: C_4  and  C_5 
REMARK    4  A    between atoms: C_4  and  N_8 
REMARK       I    between atoms: N_8  and  C_9 
REMARK    5  A    between atoms: C_9  and  C_10 
REMARK    6  A    between atoms: C_10  and  C_11 
REMARK    7  A    between atoms: C_10  and  N_15 
REMARK    8  A    between atoms: C_11  and  C_12 
REMARK    9  A    between atoms: C_12  and  Se_13 
ROOT
HETATM    1  H           1     -19.914  -6.438  -4.814  0.00  0.00     0.163 HD
HETATM    2  N           1     -20.924  -6.420  -4.861  0.00  0.00    -0.344 N 
HETATM    3  C           1     -21.554  -5.550  -5.711  0.00  0.00     0.249 C 
HETATM    4  O           1     -22.760  -5.528  -5.769  0.00  0.00    -0.271 OA
ENDROOT
BRANCH   3   5
HETATM    5  C           1     -20.741  -4.618  -6.576  0.00  0.00     0.274 C 
BRANCH   5   6
HETATM    6  C           1     -21.650  -3.950  -7.599  0.00  0.00     0.042 C 
BRANCH   6   7
HETATM    7  C           1     -21.529  -4.671  -8.935  0.00  0.00     0.003 C 
BRANCH   7   8
HETATM    8 Se           1     -22.425  -3.631 -10.318  0.00  0.00     0.000 Se
HETATM    9  C           1     -24.150  -3.602  -9.410  0.00  0.00     0.000 C 
ENDBRANCH   7   8
ENDBRANCH   6   7
ENDBRANCH   5   6
BRANCH   5  10
HETATM   10  N           1     -19.678  -5.401  -7.290  0.00  0.00    -0.067 N 
HETATM   11  H           1     -18.813  -5.429  -6.704  0.00  0.00     0.275 HD
HETATM   12  H           1     -20.016  -6.375  -7.457  0.00  0.00     0.275 HD
HETATM   13  H           1     -19.464  -4.944  -8.205  0.00  0.00     0.275 HD
ENDBRANCH   5  10
ENDBRANCH   3   5
BRANCH   2  14
HETATM   14  C           1     -21.706  -7.314  -4.030  0.00  0.00     0.194 C 
BRANCH  14  15
HETATM   15  C           1     -21.130  -8.721  -4.120  0.00  0.00     0.106 C 
BRANCH  15  16
HETATM   16  S           1     -19.507  -8.660  -4.929  0.00  0.00    -0.180 SA
HETATM   17  H           1     -19.976  -8.692  -6.189  0.00  0.00     0.101 HD
ENDBRANCH  15  16
ENDBRANCH  14  15
BRANCH  14  18
HETATM   18  C           1     -21.658  -6.840  -2.598  0.00  0.00     0.197 C 
HETATM   19  O           1     -20.923  -7.423  -1.772  0.00  0.00    -0.646 OA
HETATM   20  O           1     -22.353  -5.865  -2.240  0.00  0.00    -0.646 OA
ENDBRANCH  14  18
ENDBRANCH   2  14
TORSDOF 9
ENDMDL
MODEL 7
REMARK VINA RESULT:      -4.5      3.504      4.595
REMARK  9 active torsions:
REMARK  status: ('A' for Active; 'I' for Inactive)
REMARK    1  A    between atoms: S_2  and  C_3 
REMARK    2  A    between atoms: C_3  and  C_4 
REMARK    3  A    between atoms: C_4  and  C_5 
REMARK    4  A    between atoms: C_4  and  N_8 
REMARK       I    between atoms: N_8  and  C_9 
REMARK    5  A    between atoms: C_9  and  C_10 
REMARK    6  A    between atoms: C_10  and  C_11 
REMARK    7  A    between atoms: C_10  and  N_15 
REMARK    8  A    between atoms: C_11  and  C_12 
REMARK    9  A    between atoms: C_12  and  Se_13 
ROOT
HETATM    1  H           1     -36.762  -0.287 -12.175  0.00  0.00     0.163 HD
HETATM    2  N           1     -36.159  -0.794 -12.809  0.00  0.00    -0.344 N 
HETATM    3  C           1     -35.374  -1.813 -12.340  0.00  0.00     0.249 C 
HETATM    4  O           1     -34.654  -2.419 -13.098  0.00  0.00    -0.271 OA
ENDROOT
BRANCH   3   5
HETATM    5  C           1     -35.408  -2.180 -10.877  0.00  0.00     0.274 C 
BRANCH   5   6
HETATM    6  C           1     -36.633  -1.555 -10.224  0.00  0.00     0.042 C 
BRANCH   6   7
HETATM    7  C           1     -36.193  -0.448  -9.274  0.00  0.00     0.003 C 
BRANCH   7   8
HETATM    8 Se           1     -37.487   1.008  -9.332  0.00  0.00     0.000 Se
HETATM    9  C           1     -37.304   1.464  -7.445  0.00  0.00     0.000 C 
ENDBRANCH   7   8
ENDBRANCH   6   7
ENDBRANCH   5   6
BRANCH   5  10
HETATM   10  N           1     -34.168  -1.668 -10.205  0.00  0.00    -0.067 N 
HETATM   11  H           1     -33.400  -2.369 -10.309  0.00  0.00     0.275 HD
HETATM   12  H           1     -33.879  -0.768 -10.649  0.00  0.00     0.275 HD
HETATM   13  H           1     -34.361  -1.511  -9.191  0.00  0.00     0.275 HD
ENDBRANCH   5  10
ENDBRANCH   3   5
BRANCH   2  14
HETATM   14  C           1     -36.125  -0.441 -14.215  0.00  0.00     0.194 C 
BRANCH  14  15
HETATM   15  C           1     -37.445   0.211 -14.605  0.00  0.00     0.106 C 
BRANCH  15  16
HETATM   16  S           1     -38.075  -0.556 -16.125  0.00  0.00    -0.180 SA
HETATM   17  H           1     -37.113  -0.077 -16.933  0.00  0.00     0.101 HD
ENDBRANCH  15  16
ENDBRANCH  14  15
BRANCH  14  18
HETATM   18  C           1     -34.993   0.524 -14.464  0.00  0.00     0.197 C 
HETATM   19  O           1     -34.798   1.475 -13.677  0.00  0.00    -0.646 OA
HETATM   20  O           1     -34.250   0.372 -15.458  0.00  0.00    -0.646 OA
ENDBRANCH  14  18
ENDBRANCH   2  14
TORSDOF 9
ENDMDL
MODEL 8
REMARK VINA RESULT:      -4.3     14.068     16.208
REMARK  9 active torsions:
REMARK  status: ('A' for Active; 'I' for Inactive)
REMARK    1  A    between atoms: S_2  and  C_3 
REMARK    2  A    between atoms: C_3  and  C_4 
REMARK    3  A    between atoms: C_4  and  C_5 
REMARK    4  A    between atoms: C_4  and  N_8 
REMARK       I    between atoms: N_8  and  C_9 
REMARK    5  A    between atoms: C_9  and  C_10 
REMARK    6  A    between atoms: C_10  and  C_11 
REMARK    7  A    between atoms: C_10  and  N_15 
REMARK    8  A    between atoms: C_11  and  C_12 
REMARK    9  A    between atoms: C_12  and  Se_13 
ROOT
HETATM    1  H           1     -21.204  -6.747  -6.951  0.00  0.00     0.163 HD
HETATM    2  N           1     -20.845  -6.285  -6.126  0.00  0.00    -0.344 N 
HETATM    3  C           1     -20.525  -4.954  -6.170  0.00  0.00     0.249 C 
HETATM    4  O           1     -20.098  -4.402  -5.185  0.00  0.00    -0.271 OA
ENDROOT
BRANCH   3   5
HETATM    5  C           1     -20.708  -4.176  -7.451  0.00  0.00     0.274 C 
BRANCH   5   6
HETATM    6  C           1     -21.725  -4.885  -8.336  0.00  0.00     0.042 C 
BRANCH   6   7
HETATM    7  C           1     -23.066  -4.166  -8.244  0.00  0.00     0.003 C 
BRANCH   7   8
HETATM    8 Se           1     -23.870  -4.064 -10.016  0.00  0.00     0.000 Se
HETATM    9  C           1     -22.203  -4.393 -10.972  0.00  0.00     0.000 C 
ENDBRANCH   7   8
ENDBRANCH   6   7
ENDBRANCH   5   6
BRANCH   5  10
HETATM   10  N           1     -19.396  -4.087  -8.172  0.00  0.00    -0.067 N 
HETATM   11  H           1     -18.685  -4.672  -7.677  0.00  0.00     0.275 HD
HETATM   12  H           1     -19.512  -4.436  -9.150  0.00  0.00     0.275 HD
HETATM   13  H           1     -19.076  -3.093  -8.191  0.00  0.00     0.275 HD
ENDBRANCH   5  10
ENDBRANCH   3   5
BRANCH   2  14
HETATM   14  C           1     -20.669  -7.031  -4.895  0.00  0.00     0.194 C 
BRANCH  14  15
HETATM   15  C           1     -21.990  -7.078  -4.138  0.00  0.00     0.106 C 
BRANCH  15  16
HETATM   16  S           1     -21.769  -6.354  -2.489  0.00  0.00    -0.180 SA
HETATM   17  H           1     -21.488  -5.111  -2.917  0.00  0.00     0.101 HD
ENDBRANCH  15  16
ENDBRANCH  14  15
BRANCH  14  18
HETATM   18  C           1     -20.223  -8.436  -5.219  0.00  0.00     0.197 C 
HETATM   19  O           1     -20.953  -9.407  -4.921  0.00  0.00    -0.646 OA
HETATM   20  O           1     -19.126  -8.628  -5.785  0.00  0.00    -0.646 OA
ENDBRANCH  14  18
ENDBRANCH   2  14
TORSDOF 9
ENDMDL
MODEL 9
REMARK VINA RESULT:      -4.2     14.189     16.592
REMARK  9 active torsions:
REMARK  status: ('A' for Active; 'I' for Inactive)
REMARK    1  A    between atoms: S_2  and  C_3 
REMARK    2  A    between atoms: C_3  and  C_4 
REMARK    3  A    between atoms: C_4  and  C_5 
REMARK    4  A    between atoms: C_4  and  N_8 
REMARK       I    between atoms: N_8  and  C_9 
REMARK    5  A    between atoms: C_9  and  C_10 
REMARK    6  A    between atoms: C_10  and  C_11 
REMARK    7  A    between atoms: C_10  and  N_15 
REMARK    8  A    between atoms: C_11  and  C_12 
REMARK    9  A    between atoms: C_12  and  Se_13 
ROOT
HETATM    1  H           1     -21.736  -7.605  -6.650  0.00  0.00     0.163 HD
HETATM    2  N           1     -21.240  -6.991  -6.017  0.00  0.00    -0.344 N 
HETATM    3  C           1     -21.265  -5.637  -6.216  0.00  0.00     0.249 C 
HETATM    4  O           1     -20.673  -4.904  -5.459  0.00  0.00    -0.271 OA
ENDROOT
BRANCH   3   5
HETATM    5  C           1     -22.033  -5.058  -7.379  0.00  0.00     0.274 C 
BRANCH   5   6
HETATM    6  C           1     -21.213  -3.953  -8.031  0.00  0.00     0.042 C 
BRANCH   6   7
HETATM    7  C           1     -20.128  -4.572  -8.903  0.00  0.00     0.003 C 
BRANCH   7   8
HETATM    8 Se           1     -20.545  -4.259 -10.780  0.00  0.00     0.000 Se
HETATM    9  C           1     -22.302  -3.488 -10.431  0.00  0.00     0.000 C 
ENDBRANCH   7   8
ENDBRANCH   6   7
ENDBRANCH   5   6
BRANCH   5  10
HETATM   10  N           1     -23.332  -4.492  -6.887  0.00  0.00    -0.067 N 
HETATM   11  H           1     -24.100  -4.755  -7.546  0.00  0.00     0.275 HD
HETATM   12  H           1     -23.542  -4.877  -5.938  0.00  0.00     0.275 HD
HETATM   13  H           1     -23.261  -3.451  -6.834  0.00  0.00     0.275 HD
ENDBRANCH   5  10
ENDBRANCH   3   5
BRANCH   2  14
HETATM   14  C           1     -20.502  -7.546  -4.899  0.00  0.00     0.194 C 
BRANCH  14  15
HETATM   15  C           1     -21.442  -7.734  -3.715  0.00  0.00     0.106 C 
BRANCH  15  16
HETATM   16  S           1     -20.487  -8.247  -2.260  0.00  0.00    -0.180 SA
HETATM   17  H           1     -20.546  -7.062  -1.627  0.00  0.00     0.101 HD
ENDBRANCH  15  16
ENDBRANCH  14  15
BRANCH  14  18
HETATM   18  C           1     -19.917  -8.879  -5.295  0.00  0.00     0.197 C 
HETATM   19  O           1     -18.679  -9.053  -5.265  0.00  0.00    -0.646 OA
HETATM   20  O           1     -20.671  -9.810  -5.652  0.00  0.00    -0.646 OA
ENDBRANCH  14  18
ENDBRANCH   2  14
TORSDOF 9
ENDMDL
