MODEL 1
REMARK VINA RESULT:      -6.7      0.000      0.000
REMARK  9 active torsions:
REMARK  status: ('A' for Active; 'I' for Inactive)
REMARK    1  A    between atoms: C_2  and  C_12 
REMARK    2  A    between atoms: C_2  and  N_3 
REMARK    3  A    between atoms: N_6  and  C_16 
REMARK       I    between atoms: N_6  and  C_7 
REMARK    4  A    between atoms: C_7  and  C_8 
REMARK    5  A    between atoms: C_8  and  C_13 
REMARK    6  A    between atoms: C_8  and  N_19 
REMARK    7  A    between atoms: C_9  and  C_16 
REMARK    8  A    between atoms: C_12  and  C_21 
REMARK    9  A    between atoms: C_13  and  C_21 
ROOT
HETATM    1  C           1     -34.297  -2.397 -12.028  0.00  0.00     0.274 C 
ENDROOT
BRANCH   1   2
HETATM    2  C           1     -35.267  -1.620 -12.881  0.00  0.00     0.249 C 
HETATM    3  N           1     -34.872  -1.130 -14.097  0.00  0.00    -0.345 N 
HETATM    4  H           1     -33.927  -1.288 -14.423  0.00  0.00     0.163 HD
HETATM    5  O           1     -36.396  -1.430 -12.492  0.00  0.00    -0.271 OA
BRANCH   3   6
HETATM    6  C           1     -35.806  -0.383 -14.916  0.00  0.00     0.181 C 
HETATM    7  C           1     -35.375   1.077 -14.973  0.00  0.00     0.043 C 
BRANCH   6   8
HETATM    8  C           1     -35.823  -0.959 -16.310  0.00  0.00     0.196 C 
HETATM    9  O           1     -36.782  -0.718 -17.075  0.00  0.00    -0.646 OA
HETATM   10  O           1     -34.877  -1.677 -16.701  0.00  0.00    -0.646 OA
ENDBRANCH   6   8
ENDBRANCH   3   6
ENDBRANCH   1   2
BRANCH   1  11
HETATM   11  C           1     -34.989  -3.631 -11.462  0.00  0.00     0.042 C 
BRANCH  11  12
HETATM   12  C           1     -34.033  -4.369 -10.534  0.00  0.00     0.004 C 
BRANCH  12  13
HETATM   13  C           1     -33.847  -5.798 -11.029  0.00  0.00     0.027 C 
BRANCH  13  14
HETATM   14  C           1     -34.651  -6.748 -10.151  0.00  0.00     0.229 C 
BRANCH  14  15
HETATM   15  N           1     -34.752  -8.086 -10.824  0.00  0.00    -0.079 N 
HETATM   16  H           1     -35.227  -7.975 -11.748  0.00  0.00     0.274 HD
HETATM   17  H           1     -33.794  -8.475 -10.968  0.00  0.00     0.274 HD
HETATM   18  H           1     -35.307  -8.736 -10.223  0.00  0.00     0.274 HD
ENDBRANCH  14  15
ENDBRANCH  13  14
ENDBRANCH  12  13
ENDBRANCH  11  12
ENDBRANCH   1  11
BRANCH   1  19
HETATM   19  N           1     -33.820  -1.532 -10.899  0.00  0.00    -0.067 N 
HETATM   20  H           1     -34.464  -0.716 -10.790  0.00  0.00     0.275 HD
HETATM   21  H           1     -32.855  -1.189 -11.107  0.00  0.00     0.275 HD
HETATM   22  H           1     -33.809  -2.086 -10.014  0.00  0.00     0.275 HD
ENDBRANCH   1  19
TORSDOF 9
ENDMDL
MODEL 2
REMARK VINA RESULT:      -6.2      2.487      3.336
REMARK  9 active torsions:
REMARK  status: ('A' for Active; 'I' for Inactive)
REMARK    1  A    between atoms: C_2  and  C_12 
REMARK    2  A    between atoms: C_2  and  N_3 
REMARK    3  A    between atoms: N_6  and  C_16 
REMARK       I    between atoms: N_6  and  C_7 
REMARK    4  A    between atoms: C_7  and  C_8 
REMARK    5  A    between atoms: C_8  and  C_13 
REMARK    6  A    between atoms: C_8  and  N_19 
REMARK    7  A    between atoms: C_9  and  C_16 
REMARK    8  A    between atoms: C_12  and  C_21 
REMARK    9  A    between atoms: C_13  and  C_21 
ROOT
HETATM    1  C           1     -33.762  -4.282 -11.850  0.00  0.00     0.274 C 
ENDROOT
BRANCH   1   2
HETATM    2  C           1     -33.924  -2.793 -11.665  0.00  0.00     0.249 C 
HETATM    3  N           1     -34.819  -2.099 -12.434  0.00  0.00    -0.345 N 
HETATM    4  H           1     -35.372  -2.585 -13.128  0.00  0.00     0.163 HD
HETATM    5  O           1     -33.262  -2.213 -10.836  0.00  0.00    -0.271 OA
BRANCH   3   6
HETATM    6  C           1     -34.973  -0.669 -12.255  0.00  0.00     0.181 C 
HETATM    7  C           1     -35.074   0.004 -13.618  0.00  0.00     0.043 C 
BRANCH   6   8
HETATM    8  C           1     -36.228  -0.395 -11.463  0.00  0.00     0.196 C 
HETATM    9  O           1     -37.240  -1.109 -11.628  0.00  0.00    -0.646 OA
HETATM   10  O           1     -36.255   0.548 -10.642  0.00  0.00    -0.646 OA
ENDBRANCH   6   8
ENDBRANCH   3   6
ENDBRANCH   1   2
BRANCH   1  11
HETATM   11  C           1     -34.054  -4.994 -10.536  0.00  0.00     0.042 C 
BRANCH  11  12
HETATM   12  C           1     -34.023  -6.501 -10.757  0.00  0.00     0.004 C 
BRANCH  12  13
HETATM   13  C           1     -34.927  -7.182  -9.738  0.00  0.00     0.027 C 
BRANCH  13  14
HETATM   14  C           1     -34.330  -8.528  -9.348  0.00  0.00     0.229 C 
BRANCH  14  15
HETATM   15  N           1     -33.393  -8.991 -10.426  0.00  0.00    -0.079 N 
HETATM   16  H           1     -33.843  -8.857 -11.359  0.00  0.00     0.274 HD
HETATM   17  H           1     -32.511  -8.434 -10.381  0.00  0.00     0.274 HD
HETATM   18  H           1     -33.176 -10.004 -10.287  0.00  0.00     0.274 HD
ENDBRANCH  14  15
ENDBRANCH  13  14
ENDBRANCH  12  13
ENDBRANCH  11  12
ENDBRANCH   1  11
BRANCH   1  19
HETATM   19  N           1     -32.357  -4.582 -12.279  0.00  0.00    -0.067 N 
HETATM   20  H           1     -31.700  -4.366 -11.495  0.00  0.00     0.275 HD
HETATM   21  H           1     -32.113  -3.996 -13.109  0.00  0.00     0.275 HD
HETATM   22  H           1     -32.277  -5.592 -12.532  0.00  0.00     0.275 HD
ENDBRANCH   1  19
TORSDOF 9
ENDMDL
MODEL 3
REMARK VINA RESULT:      -6.1      2.445      6.087
REMARK  9 active torsions:
REMARK  status: ('A' for Active; 'I' for Inactive)
REMARK    1  A    between atoms: C_2  and  C_12 
REMARK    2  A    between atoms: C_2  and  N_3 
REMARK    3  A    between atoms: N_6  and  C_16 
REMARK       I    between atoms: N_6  and  C_7 
REMARK    4  A    between atoms: C_7  and  C_8 
REMARK    5  A    between atoms: C_8  and  C_13 
REMARK    6  A    between atoms: C_8  and  N_19 
REMARK    7  A    between atoms: C_9  and  C_16 
REMARK    8  A    between atoms: C_12  and  C_21 
REMARK    9  A    between atoms: C_13  and  C_21 
ROOT
HETATM    1  C           1     -35.630  -0.088 -13.188  0.00  0.00     0.274 C 
ENDROOT
BRANCH   1   2
HETATM    2  C           1     -35.123  -1.508 -13.183  0.00  0.00     0.249 C 
HETATM    3  N           1     -34.835  -2.130 -11.998  0.00  0.00    -0.345 N 
HETATM    4  H           1     -34.961  -1.636 -11.124  0.00  0.00     0.163 HD
HETATM    5  O           1     -34.972  -2.099 -14.227  0.00  0.00    -0.271 OA
BRANCH   3   6
HETATM    6  C           1     -34.348  -3.495 -11.994  0.00  0.00     0.181 C 
HETATM    7  C           1     -32.884  -3.510 -11.576  0.00  0.00     0.043 C 
BRANCH   6   8
HETATM    8  C           1     -35.158  -4.315 -11.021  0.00  0.00     0.196 C 
HETATM    9  O           1     -36.282  -3.914 -10.649  0.00  0.00    -0.646 OA
HETATM   10  O           1     -34.706  -5.397 -10.586  0.00  0.00    -0.646 OA
ENDBRANCH   6   8
ENDBRANCH   3   6
ENDBRANCH   1   2
BRANCH   1  11
HETATM   11  C           1     -34.828   0.737 -14.186  0.00  0.00     0.042 C 
BRANCH  11  12
HETATM   12  C           1     -35.686   1.029 -15.410  0.00  0.00     0.004 C 
BRANCH  12  13
HETATM   13  C           1     -37.091   0.484 -15.187  0.00  0.00     0.027 C 
BRANCH  13  14
HETATM   14  C           1     -37.428  -0.518 -16.283  0.00  0.00     0.229 C 
BRANCH  14  15
HETATM   15  N           1     -36.185  -0.851 -17.055  0.00  0.00    -0.079 N 
HETATM   16  H           1     -35.496  -1.316 -16.422  0.00  0.00     0.274 HD
HETATM   17  H           1     -36.427  -1.497 -17.840  0.00  0.00     0.274 HD
HETATM   18  H           1     -35.768   0.027 -17.439  0.00  0.00     0.274 HD
ENDBRANCH  14  15
ENDBRANCH  13  14
ENDBRANCH  12  13
ENDBRANCH  11  12
ENDBRANCH   1  11
BRANCH   1  19
HETATM   19  N           1     -35.478   0.501 -11.817  0.00  0.00    -0.067 N 
HETATM   20  H           1     -34.592   1.055 -11.772  0.00  0.00     0.275 HD
HETATM   21  H           1     -35.445  -0.267 -11.110  0.00  0.00     0.275 HD
HETATM   22  H           1     -36.289   1.126 -11.613  0.00  0.00     0.275 HD
ENDBRANCH   1  19
TORSDOF 9
ENDMDL
MODEL 4
REMARK VINA RESULT:      -5.9     13.394     14.564
REMARK  9 active torsions:
REMARK  status: ('A' for Active; 'I' for Inactive)
REMARK    1  A    between atoms: C_2  and  C_12 
REMARK    2  A    between atoms: C_2  and  N_3 
REMARK    3  A    between atoms: N_6  and  C_16 
REMARK       I    between atoms: N_6  and  C_7 
REMARK    4  A    between atoms: C_7  and  C_8 
REMARK    5  A    between atoms: C_8  and  C_13 
REMARK    6  A    between atoms: C_8  and  N_19 
REMARK    7  A    between atoms: C_9  and  C_16 
REMARK    8  A    between atoms: C_12  and  C_21 
REMARK    9  A    between atoms: C_13  and  C_21 
ROOT
HETATM    1  C           1     -21.185  -5.814  -6.931  0.00  0.00     0.274 C 
ENDROOT
BRANCH   1   2
HETATM    2  C           1     -21.653  -4.611  -7.712  0.00  0.00     0.249 C 
HETATM    3  N           1     -22.274  -4.777  -8.921  0.00  0.00    -0.345 N 
HETATM    4  H           1     -22.418  -5.707  -9.292  0.00  0.00     0.163 HD
HETATM    5  O           1     -21.480  -3.499  -7.269  0.00  0.00    -0.271 OA
BRANCH   3   6
HETATM    6  C           1     -22.723  -3.620  -9.670  0.00  0.00     0.181 C 
HETATM    7  C           1     -21.815  -3.413 -10.875  0.00  0.00     0.043 C 
BRANCH   6   8
HETATM    8  C           1     -24.139  -3.844 -10.139  0.00  0.00     0.196 C 
HETATM    9  O           1     -24.749  -4.885  -9.811  0.00  0.00    -0.646 OA
HETATM   10  O           1     -24.704  -2.989 -10.855  0.00  0.00    -0.646 OA
ENDBRANCH   6   8
ENDBRANCH   3   6
ENDBRANCH   1   2
BRANCH   1  11
HETATM   11  C           1     -21.084  -5.456  -5.454  0.00  0.00     0.042 C 
BRANCH  11  12
HETATM   12  C           1     -21.994  -6.372  -4.646  0.00  0.00     0.004 C 
BRANCH  12  13
HETATM   13  C           1     -21.147  -7.311  -3.798  0.00  0.00     0.027 C 
BRANCH  13  14
HETATM   14  C           1     -21.412  -7.043  -2.323  0.00  0.00     0.229 C 
BRANCH  14  15
HETATM   15  N           1     -22.384  -5.908  -2.187  0.00  0.00    -0.079 N 
HETATM   16  H           1     -22.182  -5.188  -2.917  0.00  0.00     0.274 HD
HETATM   17  H           1     -23.357  -6.267  -2.312  0.00  0.00     0.274 HD
HETATM   18  H           1     -22.288  -5.478  -1.240  0.00  0.00     0.274 HD
ENDBRANCH  14  15
ENDBRANCH  13  14
ENDBRANCH  12  13
ENDBRANCH  11  12
ENDBRANCH   1  11
BRANCH   1  19
HETATM   19  N           1     -19.839  -6.243  -7.434  0.00  0.00    -0.067 N 
HETATM   20  H           1     -19.877  -6.364  -8.472  0.00  0.00     0.275 HD
HETATM   21  H           1     -19.572  -7.149  -6.987  0.00  0.00     0.275 HD
HETATM   22  H           1     -19.129  -5.515  -7.195  0.00  0.00     0.275 HD
ENDBRANCH   1  19
TORSDOF 9
ENDMDL
MODEL 5
REMARK VINA RESULT:      -5.6      2.801      6.074
REMARK  9 active torsions:
REMARK  status: ('A' for Active; 'I' for Inactive)
REMARK    1  A    between atoms: C_2  and  C_12 
REMARK    2  A    between atoms: C_2  and  N_3 
REMARK    3  A    between atoms: N_6  and  C_16 
REMARK       I    between atoms: N_6  and  C_7 
REMARK    4  A    between atoms: C_7  and  C_8 
REMARK    5  A    between atoms: C_8  and  C_13 
REMARK    6  A    between atoms: C_8  and  N_19 
REMARK    7  A    between atoms: C_9  and  C_16 
REMARK    8  A    between atoms: C_12  and  C_21 
REMARK    9  A    between atoms: C_13  and  C_21 
ROOT
HETATM    1  C           1     -36.084  -1.137 -10.795  0.00  0.00     0.274 C 
ENDROOT
BRANCH   1   2
HETATM    2  C           1     -34.884  -2.038 -10.648  0.00  0.00     0.249 C 
HETATM    3  N           1     -34.953  -3.345 -11.051  0.00  0.00    -0.345 N 
HETATM    4  H           1     -35.811  -3.707 -11.448  0.00  0.00     0.163 HD
HETATM    5  O           1     -33.858  -1.607 -10.173  0.00  0.00    -0.271 OA
BRANCH   3   6
HETATM    6  C           1     -33.799  -4.210 -10.909  0.00  0.00     0.181 C 
HETATM    7  C           1     -34.261  -5.617 -10.551  0.00  0.00     0.043 C 
BRANCH   6   8
HETATM    8  C           1     -33.036  -4.247 -12.210  0.00  0.00     0.196 C 
HETATM    9  O           1     -31.862  -4.677 -12.234  0.00  0.00    -0.646 OA
HETATM   10  O           1     -33.577  -3.847 -13.264  0.00  0.00    -0.646 OA
ENDBRANCH   6   8
ENDBRANCH   3   6
ENDBRANCH   1   2
BRANCH   1  11
HETATM   11  C           1     -35.791  -0.065 -11.837  0.00  0.00     0.042 C 
BRANCH  11  12
HETATM   12  C           1     -35.471  -0.727 -13.171  0.00  0.00     0.004 C 
BRANCH  12  13
HETATM   13  C           1     -35.105   0.342 -14.193  0.00  0.00     0.027 C 
BRANCH  13  14
HETATM   14  C           1     -36.151   0.366 -15.300  0.00  0.00     0.229 C 
BRANCH  14  15
HETATM   15  N           1     -36.269   1.758 -15.847  0.00  0.00    -0.079 N 
HETATM   16  H           1     -37.078   2.241 -15.395  0.00  0.00     0.274 HD
HETATM   17  H           1     -35.391   2.286 -15.645  0.00  0.00     0.274 HD
HETATM   18  H           1     -36.422   1.714 -16.880  0.00  0.00     0.274 HD
ENDBRANCH  14  15
ENDBRANCH  13  14
ENDBRANCH  12  13
ENDBRANCH  11  12
ENDBRANCH   1  11
BRANCH   1  19
HETATM   19  N           1     -36.383  -0.485  -9.478  0.00  0.00    -0.067 N 
HETATM   20  H           1     -37.266  -0.883  -9.085  0.00  0.00     0.275 HD
HETATM   21  H           1     -36.496   0.545  -9.617  0.00  0.00     0.275 HD
HETATM   22  H           1     -35.596  -0.661  -8.815  0.00  0.00     0.275 HD
ENDBRANCH   1  19
TORSDOF 9
ENDMDL
MODEL 6
REMARK VINA RESULT:      -5.4     14.189     16.429
REMARK  9 active torsions:
REMARK  status: ('A' for Active; 'I' for Inactive)
REMARK    1  A    between atoms: C_2  and  C_12 
REMARK    2  A    between atoms: C_2  and  N_3 
REMARK    3  A    between atoms: N_6  and  C_16 
REMARK       I    between atoms: N_6  and  C_7 
REMARK    4  A    between atoms: C_7  and  C_8 
REMARK    5  A    between atoms: C_8  and  C_13 
REMARK    6  A    between atoms: C_8  and  N_19 
REMARK    7  A    between atoms: C_9  and  C_16 
REMARK    8  A    between atoms: C_12  and  C_21 
REMARK    9  A    between atoms: C_13  and  C_21 
ROOT
HETATM    1  C           1     -20.708  -4.872  -6.782  0.00  0.00     0.274 C 
ENDROOT
BRANCH   1   2
HETATM    2  C           1     -21.549  -5.685  -5.830  0.00  0.00     0.249 C 
HETATM    3  N           1     -20.957  -6.606  -5.007  0.00  0.00    -0.345 N 
HETATM    4  H           1     -19.955  -6.742  -5.039  0.00  0.00     0.163 HD
HETATM    5  O           1     -22.746  -5.523  -5.792  0.00  0.00    -0.271 OA
BRANCH   3   6
HETATM    6  C           1     -21.766  -7.387  -4.092  0.00  0.00     0.181 C 
HETATM    7  C           1     -21.323  -8.843  -4.140  0.00  0.00     0.043 C 
BRANCH   6   8
HETATM    8  C           1     -21.596  -6.853  -2.691  0.00  0.00     0.196 C 
HETATM    9  O           1     -22.277  -5.879  -2.306  0.00  0.00    -0.646 OA
HETATM   10  O           1     -20.773  -7.387  -1.915  0.00  0.00    -0.646 OA
ENDBRANCH   6   8
ENDBRANCH   3   6
ENDBRANCH   1   2
BRANCH   1  11
HETATM   11  C           1     -21.576  -3.817  -7.455  0.00  0.00     0.042 C 
BRANCH  11  12
HETATM   12  C           1     -21.747  -4.165  -8.929  0.00  0.00     0.004 C 
BRANCH  12  13
HETATM   13  C           1     -23.199  -4.539  -9.197  0.00  0.00     0.027 C 
BRANCH  13  14
HETATM   14  C           1     -23.966  -3.304  -9.653  0.00  0.00     0.229 C 
BRANCH  14  15
HETATM   15  N           1     -25.432  -3.620  -9.716  0.00  0.00    -0.079 N 
HETATM   16  H           1     -25.745  -3.999  -8.794  0.00  0.00     0.274 HD
HETATM   17  H           1     -25.965  -2.749  -9.935  0.00  0.00     0.274 HD
HETATM   18  H           1     -25.603  -4.333 -10.461  0.00  0.00     0.274 HD
ENDBRANCH  14  15
ENDBRANCH  13  14
ENDBRANCH  12  13
ENDBRANCH  11  12
ENDBRANCH   1  11
BRANCH   1  19
HETATM   19  N           1     -20.122  -5.776  -7.826  0.00  0.00    -0.067 N 
HETATM   20  H           1     -20.329  -5.392  -8.776  0.00  0.00     0.275 HD
HETATM   21  H           1     -20.540  -6.729  -7.736  0.00  0.00     0.275 HD
HETATM   22  H           1     -19.087  -5.837  -7.693  0.00  0.00     0.275 HD
ENDBRANCH   1  19
TORSDOF 9
ENDMDL
MODEL 7
REMARK VINA RESULT:      -5.4     14.710     16.720
REMARK  9 active torsions:
REMARK  status: ('A' for Active; 'I' for Inactive)
REMARK    1  A    between atoms: C_2  and  C_12 
REMARK    2  A    between atoms: C_2  and  N_3 
REMARK    3  A    between atoms: N_6  and  C_16 
REMARK       I    between atoms: N_6  and  C_7 
REMARK    4  A    between atoms: C_7  and  C_8 
REMARK    5  A    between atoms: C_8  and  C_13 
REMARK    6  A    between atoms: C_8  and  N_19 
REMARK    7  A    between atoms: C_9  and  C_16 
REMARK    8  A    between atoms: C_12  and  C_21 
REMARK    9  A    between atoms: C_13  and  C_21 
ROOT
HETATM    1  C           1     -22.127  -4.936  -7.041  0.00  0.00     0.274 C 
ENDROOT
BRANCH   1   2
HETATM    2  C           1     -21.369  -5.337  -5.800  0.00  0.00     0.249 C 
HETATM    3  N           1     -22.001  -6.032  -4.804  0.00  0.00    -0.345 N 
HETATM    4  H           1     -22.978  -6.277  -4.901  0.00  0.00     0.163 HD
HETATM    5  O           1     -20.201  -5.044  -5.685  0.00  0.00    -0.271 OA
BRANCH   3   6
HETATM    6  C           1     -21.271  -6.417  -3.613  0.00  0.00     0.181 C 
HETATM    7  C           1     -22.146  -6.189  -2.387  0.00  0.00     0.043 C 
BRANCH   6   8
HETATM    8  C           1     -20.898  -7.876  -3.701  0.00  0.00     0.196 C 
HETATM    9  O           1     -19.841  -8.218  -4.274  0.00  0.00    -0.646 OA
HETATM   10  O           1     -21.646  -8.744  -3.201  0.00  0.00    -0.646 OA
ENDBRANCH   6   8
ENDBRANCH   3   6
ENDBRANCH   1   2
BRANCH   1  11
HETATM   11  C           1     -21.452  -3.732  -7.685  0.00  0.00     0.042 C 
BRANCH  11  12
HETATM   12  C           1     -20.894  -4.131  -9.046  0.00  0.00     0.004 C 
BRANCH  12  13
HETATM   13  C           1     -22.043  -4.374 -10.015  0.00  0.00     0.027 C 
BRANCH  13  14
HETATM   14  C           1     -21.547  -4.204 -11.445  0.00  0.00     0.229 C 
BRANCH  14  15
HETATM   15  N           1     -20.621  -3.026 -11.517  0.00  0.00    -0.079 N 
HETATM   16  H           1     -20.514  -2.727 -12.512  0.00  0.00     0.274 HD
HETATM   17  H           1     -21.018  -2.238 -10.957  0.00  0.00     0.274 HD
HETATM   18  H           1     -19.687  -3.293 -11.131  0.00  0.00     0.274 HD
ENDBRANCH  14  15
ENDBRANCH  13  14
ENDBRANCH  12  13
ENDBRANCH  11  12
ENDBRANCH   1  11
BRANCH   1  19
HETATM   19  N           1     -23.536  -4.580  -6.672  0.00  0.00    -0.067 N 
HETATM   20  H           1     -24.199  -5.071  -7.313  0.00  0.00     0.275 HD
HETATM   21  H           1     -23.668  -3.547  -6.758  0.00  0.00     0.275 HD
HETATM   22  H           1     -23.723  -4.873  -5.687  0.00  0.00     0.275 HD
ENDBRANCH   1  19
TORSDOF 9
ENDMDL
MODEL 8
REMARK VINA RESULT:      -5.3     14.851     16.489
REMARK  9 active torsions:
REMARK  status: ('A' for Active; 'I' for Inactive)
REMARK    1  A    between atoms: C_2  and  C_12 
REMARK    2  A    between atoms: C_2  and  N_3 
REMARK    3  A    between atoms: N_6  and  C_16 
REMARK       I    between atoms: N_6  and  C_7 
REMARK    4  A    between atoms: C_7  and  C_8 
REMARK    5  A    between atoms: C_8  and  C_13 
REMARK    6  A    between atoms: C_8  and  N_19 
REMARK    7  A    between atoms: C_9  and  C_16 
REMARK    8  A    between atoms: C_12  and  C_21 
REMARK    9  A    between atoms: C_13  and  C_21 
ROOT
HETATM    1  C           1     -21.437  -8.135  -4.798  0.00  0.00     0.274 C 
ENDROOT
BRANCH   1   2
HETATM    2  C           1     -21.347  -6.707  -5.275  0.00  0.00     0.249 C 
HETATM    3  N           1     -20.965  -6.436  -6.562  0.00  0.00    -0.345 N 
HETATM    4  H           1     -20.743  -7.195  -7.194  0.00  0.00     0.163 HD
HETATM    5  O           1     -21.612  -5.800  -4.521  0.00  0.00    -0.271 OA
BRANCH   3   6
HETATM    6  C           1     -20.880  -5.064  -7.020  0.00  0.00     0.181 C 
HETATM    7  C           1     -19.620  -4.887  -7.857  0.00  0.00     0.043 C 
BRANCH   6   8
HETATM    8  C           1     -22.091  -4.736  -7.857  0.00  0.00     0.196 C 
HETATM    9  O           1     -22.031  -4.815  -9.103  0.00  0.00    -0.646 OA
HETATM   10  O           1     -23.157  -4.386  -7.304  0.00  0.00    -0.646 OA
ENDBRANCH   6   8
ENDBRANCH   3   6
ENDBRANCH   1   2
BRANCH   1  11
HETATM   11  C           1     -20.561  -8.317  -3.565  0.00  0.00     0.042 C 
BRANCH  11  12
HETATM   12  C           1     -21.423  -8.757  -2.389  0.00  0.00     0.004 C 
BRANCH  12  13
HETATM   13  C           1     -21.142  -7.862  -1.190  0.00  0.00     0.027 C 
BRANCH  13  14
HETATM   14  C           1     -22.357  -6.986  -0.913  0.00  0.00     0.229 C 
BRANCH  14  15
HETATM   15  N           1     -22.319  -5.781  -1.808  0.00  0.00    -0.079 N 
HETATM   16  H           1     -21.561  -5.899  -2.517  0.00  0.00     0.274 HD
HETATM   17  H           1     -23.239  -5.681  -2.293  0.00  0.00     0.274 HD
HETATM   18  H           1     -22.130  -4.929  -1.234  0.00  0.00     0.274 HD
ENDBRANCH  14  15
ENDBRANCH  13  14
ENDBRANCH  12  13
ENDBRANCH  11  12
ENDBRANCH   1  11
BRANCH   1  19
HETATM   19  N           1     -20.967  -9.055  -5.885  0.00  0.00    -0.067 N 
HETATM   20  H           1     -19.965  -9.304  -5.721  0.00  0.00     0.275 HD
HETATM   21  H           1     -21.061  -8.578  -6.810  0.00  0.00     0.275 HD
HETATM   22  H           1     -21.546  -9.924  -5.882  0.00  0.00     0.275 HD
ENDBRANCH   1  19
TORSDOF 9
ENDMDL
MODEL 9
REMARK VINA RESULT:      -5.3     13.432     14.554
REMARK  9 active torsions:
REMARK  status: ('A' for Active; 'I' for Inactive)
REMARK    1  A    between atoms: C_2  and  C_12 
REMARK    2  A    between atoms: C_2  and  N_3 
REMARK    3  A    between atoms: N_6  and  C_16 
REMARK       I    between atoms: N_6  and  C_7 
REMARK    4  A    between atoms: C_7  and  C_8 
REMARK    5  A    between atoms: C_8  and  C_13 
REMARK    6  A    between atoms: C_8  and  N_19 
REMARK    7  A    between atoms: C_9  and  C_16 
REMARK    8  A    between atoms: C_12  and  C_21 
REMARK    9  A    between atoms: C_13  and  C_21 
ROOT
HETATM    1  C           1     -21.133  -5.648  -7.061  0.00  0.00     0.274 C 
ENDROOT
BRANCH   1   2
HETATM    2  C           1     -21.688  -4.511  -7.882  0.00  0.00     0.249 C 
HETATM    3  N           1     -22.206  -4.753  -9.127  0.00  0.00    -0.345 N 
HETATM    4  H           1     -22.217  -5.695  -9.496  0.00  0.00     0.163 HD
HETATM    5  O           1     -21.676  -3.385  -7.442  0.00  0.00    -0.271 OA
BRANCH   3   6
HETATM    6  C           1     -22.740  -3.660  -9.914  0.00  0.00     0.181 C 
HETATM    7  C           1     -21.940  -3.527 -11.204  0.00  0.00     0.043 C 
BRANCH   6   8
HETATM    8  C           1     -24.186  -3.937 -10.245  0.00  0.00     0.196 C 
HETATM    9  O           1     -24.860  -3.087 -10.866  0.00  0.00    -0.646 OA
HETATM   10  O           1     -24.710  -5.018  -9.897  0.00  0.00    -0.646 OA
ENDBRANCH   6   8
ENDBRANCH   3   6
ENDBRANCH   1   2
BRANCH   1  11
HETATM   11  C           1     -21.997  -5.854  -5.824  0.00  0.00     0.042 C 
BRANCH  11  12
HETATM   12  C           1     -21.103  -6.015  -4.601  0.00  0.00     0.004 C 
BRANCH  12  13
HETATM   13  C           1     -21.401  -7.348  -3.927  0.00  0.00     0.027 C 
BRANCH  13  14
HETATM   14  C           1     -20.746  -8.474  -4.716  0.00  0.00     0.229 C 
BRANCH  14  15
HETATM   15  N           1     -19.390  -8.764  -4.141  0.00  0.00    -0.079 N 
HETATM   16  H           1     -19.394  -9.711  -3.701  0.00  0.00     0.274 HD
HETATM   17  H           1     -18.677  -8.738  -4.905  0.00  0.00     0.274 HD
HETATM   18  H           1     -19.157  -8.046  -3.420  0.00  0.00     0.274 HD
ENDBRANCH  14  15
ENDBRANCH  13  14
ENDBRANCH  12  13
ENDBRANCH  11  12
ENDBRANCH   1  11
BRANCH   1  19
HETATM   19  N           1     -19.730  -5.322  -6.641  0.00  0.00    -0.067 N 
HETATM   20  H           1     -19.089  -6.090  -6.942  0.00  0.00     0.275 HD
HETATM   21  H           1     -19.692  -5.222  -5.602  0.00  0.00     0.275 HD
HETATM   22  H           1     -19.432  -4.425  -7.087  0.00  0.00     0.275 HD
ENDBRANCH   1  19
TORSDOF 9
ENDMDL
