MODEL 1
REMARK VINA RESULT:      -7.7      0.000      0.000
REMARK  9 active torsions:
REMARK  status: ('A' for Active; 'I' for Inactive)
REMARK    1  A    between atoms: O_1  and  C_18 
REMARK    2  A    between atoms: N_2  and  C_6 
REMARK    3  A    between atoms: O_3  and  C_4 
REMARK    4  A    between atoms: C_4  and  C_6 
REMARK    5  A    between atoms: C_6  and  C_17 
REMARK    6  A    between atoms: C_9  and  C_14 
REMARK    7  A    between atoms: C_12  and  C_23 
REMARK    8  A    between atoms: C_14  and  C_23 
REMARK    9  A    between atoms: N_16  and  C_23 
REMARK       I    between atoms: N_16  and  C_17 
ROOT
HETATM    1  C           1     -36.015  -1.124 -12.208  0.00  0.00     0.189 C 
ENDROOT
BRANCH   1   2
HETATM    2  C           1     -36.871  -0.414 -11.189  0.00  0.00     0.197 C 
HETATM    3  O           1     -38.075  -0.724 -11.058  0.00  0.00    -0.646 OA
HETATM    4  O           1     -36.376   0.484 -10.473  0.00  0.00    -0.646 OA
ENDBRANCH   1   2
BRANCH   1   5
HETATM    5  C           1     -34.609  -1.307 -11.653  0.00  0.00     0.074 C 
BRANCH   5   6
HETATM    6  C           1     -34.342  -2.764 -11.439  0.00  0.00    -0.056 A 
HETATM    7  C           1     -33.097  -3.301 -11.767  0.00  0.00     0.010 A 
HETATM    8  C           1     -32.848  -4.659 -11.568  0.00  0.00     0.037 A 
HETATM    9  C           1     -33.844  -5.480 -11.038  0.00  0.00     0.065 A 
HETATM   10  C           1     -35.089  -4.943 -10.710  0.00  0.00     0.037 A 
HETATM   11  C           1     -35.338  -3.585 -10.909  0.00  0.00     0.010 A 
BRANCH   9  12
HETATM   12  O           1     -33.603  -6.799 -10.843  0.00  0.00    -0.361 OA
HETATM   13  H           1     -32.653  -6.908 -10.668  0.00  0.00     0.217 HD
ENDBRANCH   9  12
ENDBRANCH   5   6
ENDBRANCH   1   5
BRANCH   1  14
HETATM   14  N           1     -35.956  -0.332 -13.423  0.00  0.00    -0.344 N 
HETATM   15  H           1     -36.273   0.629 -13.416  0.00  0.00     0.163 HD
HETATM   16  C           1     -35.471  -0.884 -14.577  0.00  0.00     0.251 C 
HETATM   17  O           1     -35.092  -2.032 -14.585  0.00  0.00    -0.271 OA
BRANCH  16  18
HETATM   18  C           1     -35.409  -0.061 -15.839  0.00  0.00     0.297 C 
BRANCH  18  19
HETATM   19  N           1     -36.153  -0.767 -16.933  0.00  0.00    -0.064 N 
HETATM   20  H           1     -36.159  -1.795 -16.744  0.00  0.00     0.275 HD
HETATM   21  H           1     -37.135  -0.414 -16.971  0.00  0.00     0.275 HD
HETATM   22  H           1     -35.681  -0.586 -17.849  0.00  0.00     0.275 HD
ENDBRANCH  18  19
BRANCH  18  23
HETATM   23  C           1     -36.047   1.301 -15.591  0.00  0.00     0.206 C 
BRANCH  23  24
HETATM   24  O           1     -37.433   1.208 -15.773  0.00  0.00    -0.398 OA
HETATM   25  H           1     -37.580   1.056 -16.691  0.00  0.00     0.209 HD
ENDBRANCH  23  24
ENDBRANCH  18  23
ENDBRANCH  16  18
ENDBRANCH   1  14
TORSDOF 9
ENDMDL
MODEL 2
REMARK VINA RESULT:      -7.4      9.431     11.465
REMARK  9 active torsions:
REMARK  status: ('A' for Active; 'I' for Inactive)
REMARK    1  A    between atoms: O_1  and  C_18 
REMARK    2  A    between atoms: N_2  and  C_6 
REMARK    3  A    between atoms: O_3  and  C_4 
REMARK    4  A    between atoms: C_4  and  C_6 
REMARK    5  A    between atoms: C_6  and  C_17 
REMARK    6  A    between atoms: C_9  and  C_14 
REMARK    7  A    between atoms: C_12  and  C_23 
REMARK    8  A    between atoms: C_14  and  C_23 
REMARK    9  A    between atoms: N_16  and  C_23 
REMARK       I    between atoms: N_16  and  C_17 
ROOT
HETATM    1  C           1     -26.773  -6.224 -17.468  0.00  0.00     0.189 C 
ENDROOT
BRANCH   1   2
HETATM    2  C           1     -26.271  -6.443 -16.063  0.00  0.00     0.197 C 
HETATM    3  O           1     -26.814  -7.299 -15.331  0.00  0.00    -0.646 OA
HETATM    4  O           1     -25.310  -5.770 -15.631  0.00  0.00    -0.646 OA
ENDBRANCH   1   2
BRANCH   1   5
HETATM    5  C           1     -28.136  -6.886 -17.631  0.00  0.00     0.074 C 
BRANCH   5   6
HETATM    6  C           1     -29.209  -5.845 -17.558  0.00  0.00    -0.056 A 
HETATM    7  C           1     -28.920  -4.522 -17.891  0.00  0.00     0.010 A 
HETATM    8  C           1     -29.919  -3.551 -17.823  0.00  0.00     0.037 A 
HETATM    9  C           1     -31.208  -3.905 -17.424  0.00  0.00     0.065 A 
HETATM   10  C           1     -31.497  -5.228 -17.091  0.00  0.00     0.037 A 
HETATM   11  C           1     -30.497  -6.199 -17.159  0.00  0.00     0.010 A 
BRANCH   9  12
HETATM   12  O           1     -32.180  -2.962 -17.358  0.00  0.00    -0.361 OA
HETATM   13  H           1     -33.031  -3.395 -17.542  0.00  0.00     0.217 HD
ENDBRANCH   9  12
ENDBRANCH   5   6
ENDBRANCH   1   5
BRANCH   1  14
HETATM   14  N           1     -25.838  -6.806 -18.412  0.00  0.00    -0.344 N 
HETATM   15  H           1     -25.060  -7.361 -18.076  0.00  0.00     0.163 HD
HETATM   16  C           1     -26.006  -6.607 -19.755  0.00  0.00     0.251 C 
HETATM   17  O           1     -26.935  -5.945 -20.156  0.00  0.00    -0.271 OA
BRANCH  16  18
HETATM   18  C           1     -25.033  -7.213 -20.735  0.00  0.00     0.297 C 
BRANCH  18  19
HETATM   19  N           1     -23.895  -7.841 -19.987  0.00  0.00    -0.064 N 
HETATM   20  H           1     -23.051  -7.878 -20.602  0.00  0.00     0.275 HD
HETATM   21  H           1     -23.682  -7.272 -19.137  0.00  0.00     0.275 HD
HETATM   22  H           1     -24.159  -8.811 -19.700  0.00  0.00     0.275 HD
ENDBRANCH  18  19
BRANCH  18  23
HETATM   23  C           1     -25.742  -8.276 -21.565  0.00  0.00     0.206 C 
BRANCH  23  24
HETATM   24  O           1     -26.970  -8.592 -20.969  0.00  0.00    -0.398 OA
HETATM   25  H           1     -27.625  -8.061 -21.391  0.00  0.00     0.209 HD
ENDBRANCH  23  24
ENDBRANCH  18  23
ENDBRANCH  16  18
ENDBRANCH   1  14
TORSDOF 9
ENDMDL
MODEL 3
REMARK VINA RESULT:      -6.9      2.826      5.060
REMARK  9 active torsions:
REMARK  status: ('A' for Active; 'I' for Inactive)
REMARK    1  A    between atoms: O_1  and  C_18 
REMARK    2  A    between atoms: N_2  and  C_6 
REMARK    3  A    between atoms: O_3  and  C_4 
REMARK    4  A    between atoms: C_4  and  C_6 
REMARK    5  A    between atoms: C_6  and  C_17 
REMARK    6  A    between atoms: C_9  and  C_14 
REMARK    7  A    between atoms: C_12  and  C_23 
REMARK    8  A    between atoms: C_14  and  C_23 
REMARK    9  A    between atoms: N_16  and  C_23 
REMARK       I    between atoms: N_16  and  C_17 
ROOT
HETATM    1  C           1     -36.742  -0.266 -11.398  0.00  0.00     0.189 C 
ENDROOT
BRANCH   1   2
HETATM    2  C           1     -35.919  -1.467 -11.003  0.00  0.00     0.197 C 
HETATM    3  O           1     -36.465  -2.584 -10.875  0.00  0.00    -0.646 OA
HETATM    4  O           1     -34.691  -1.345 -10.804  0.00  0.00    -0.646 OA
ENDBRANCH   1   2
BRANCH   1   5
HETATM    5  C           1     -38.054  -0.270 -10.623  0.00  0.00     0.074 C 
BRANCH   5   6
HETATM    6  C           1     -37.805   0.180  -9.218  0.00  0.00    -0.056 A 
HETATM    7  C           1     -38.065  -0.683  -8.153  0.00  0.00     0.010 A 
HETATM    8  C           1     -37.834  -0.264  -6.843  0.00  0.00     0.037 A 
HETATM    9  C           1     -37.340   1.018  -6.598  0.00  0.00     0.065 A 
HETATM   10  C           1     -37.080   1.881  -7.662  0.00  0.00     0.037 A 
HETATM   11  C           1     -37.312   1.461  -8.973  0.00  0.00     0.010 A 
BRANCH   9  12
HETATM   12  O           1     -37.115   1.425  -5.325  0.00  0.00    -0.361 OA
HETATM   13  H           1     -36.731   0.679  -4.834  0.00  0.00     0.217 HD
ENDBRANCH   9  12
ENDBRANCH   5   6
ENDBRANCH   1   5
BRANCH   1  14
HETATM   14  N           1     -37.021  -0.320 -12.820  0.00  0.00    -0.344 N 
HETATM   15  H           1     -37.849  -0.795 -13.156  0.00  0.00     0.163 HD
HETATM   16  C           1     -36.165   0.271 -13.709  0.00  0.00     0.251 C 
HETATM   17  O           1     -35.175   0.839 -13.308  0.00  0.00    -0.271 OA
BRANCH  16  18
HETATM   18  C           1     -36.455   0.215 -15.188  0.00  0.00     0.297 C 
BRANCH  18  19
HETATM   19  N           1     -36.222   1.567 -15.794  0.00  0.00    -0.064 N 
HETATM   20  H           1     -35.198   1.777 -15.797  0.00  0.00     0.275 HD
HETATM   21  H           1     -36.581   1.575 -16.776  0.00  0.00     0.275 HD
HETATM   22  H           1     -36.723   2.292 -15.233  0.00  0.00     0.275 HD
ENDBRANCH  18  19
BRANCH  18  23
HETATM   23  C           1     -35.534  -0.802 -15.850  0.00  0.00     0.206 C 
BRANCH  23  24
HETATM   24  O           1     -35.131  -1.754 -14.903  0.00  0.00    -0.398 OA
HETATM   25  H           1     -35.887  -2.281 -14.704  0.00  0.00     0.209 HD
ENDBRANCH  23  24
ENDBRANCH  18  23
ENDBRANCH  16  18
ENDBRANCH   1  14
TORSDOF 9
ENDMDL
MODEL 4
REMARK VINA RESULT:      -6.8     13.155     16.271
REMARK  9 active torsions:
REMARK  status: ('A' for Active; 'I' for Inactive)
REMARK    1  A    between atoms: O_1  and  C_18 
REMARK    2  A    between atoms: N_2  and  C_6 
REMARK    3  A    between atoms: O_3  and  C_4 
REMARK    4  A    between atoms: C_4  and  C_6 
REMARK    5  A    between atoms: C_6  and  C_17 
REMARK    6  A    between atoms: C_9  and  C_14 
REMARK    7  A    between atoms: C_12  and  C_23 
REMARK    8  A    between atoms: C_14  and  C_23 
REMARK    9  A    between atoms: N_16  and  C_23 
REMARK       I    between atoms: N_16  and  C_17 
ROOT
HETATM    1  C           1     -21.013  -5.009  -7.041  0.00  0.00     0.189 C 
ENDROOT
BRANCH   1   2
HETATM    2  C           1     -19.576  -4.594  -6.846  0.00  0.00     0.197 C 
HETATM    3  O           1     -19.119  -4.446  -5.692  0.00  0.00    -0.646 OA
HETATM    4  O           1     -18.841  -4.399  -7.839  0.00  0.00    -0.646 OA
ENDBRANCH   1   2
BRANCH   1   5
HETATM    5  C           1     -21.821  -3.823  -7.550  0.00  0.00     0.074 C 
BRANCH   5   6
HETATM    6  C           1     -22.322  -4.116  -8.930  0.00  0.00    -0.056 A 
HETATM    7  C           1     -23.681  -4.346  -9.144  0.00  0.00     0.010 A 
HETATM    8  C           1     -24.149  -4.618 -10.429  0.00  0.00     0.037 A 
HETATM    9  C           1     -23.257  -4.659 -11.502  0.00  0.00     0.065 A 
HETATM   10  C           1     -21.898  -4.429 -11.288  0.00  0.00     0.037 A 
HETATM   11  C           1     -21.431  -4.156 -10.002  0.00  0.00     0.010 A 
BRANCH   9  12
HETATM   12  O           1     -23.711  -4.923 -12.751  0.00  0.00    -0.361 OA
HETATM   13  H           1     -23.397  -4.217 -13.340  0.00  0.00     0.217 HD
ENDBRANCH   9  12
ENDBRANCH   5   6
ENDBRANCH   1   5
BRANCH   1  14
HETATM   14  N           1     -21.560  -5.459  -5.775  0.00  0.00    -0.344 N 
HETATM   15  H           1     -21.964  -4.790  -5.133  0.00  0.00     0.163 HD
HETATM   16  C           1     -21.532  -6.788  -5.451  0.00  0.00     0.251 C 
HETATM   17  O           1     -21.050  -7.588  -6.219  0.00  0.00    -0.271 OA
BRANCH  16  18
HETATM   18  C           1     -22.102  -7.256  -4.135  0.00  0.00     0.297 C 
BRANCH  18  19
HETATM   19  N           1     -21.686  -8.675  -3.886  0.00  0.00    -0.064 N 
HETATM   20  H           1     -20.783  -8.687  -3.359  0.00  0.00     0.275 HD
HETATM   21  H           1     -22.423  -9.161  -3.326  0.00  0.00     0.275 HD
HETATM   22  H           1     -21.561  -9.167  -4.800  0.00  0.00     0.275 HD
ENDBRANCH  18  19
BRANCH  18  23
HETATM   23  C           1     -21.580  -6.371  -3.010  0.00  0.00     0.206 C 
BRANCH  23  24
HETATM   24  O           1     -22.658  -5.874  -2.266  0.00  0.00    -0.398 OA
HETATM   25  H           1     -23.211  -6.609  -2.058  0.00  0.00     0.209 HD
ENDBRANCH  23  24
ENDBRANCH  18  23
ENDBRANCH  16  18
ENDBRANCH   1  14
TORSDOF 9
ENDMDL
MODEL 5
REMARK VINA RESULT:      -6.7      8.582     10.881
REMARK  9 active torsions:
REMARK  status: ('A' for Active; 'I' for Inactive)
REMARK    1  A    between atoms: O_1  and  C_18 
REMARK    2  A    between atoms: N_2  and  C_6 
REMARK    3  A    between atoms: O_3  and  C_4 
REMARK    4  A    between atoms: C_4  and  C_6 
REMARK    5  A    between atoms: C_6  and  C_17 
REMARK    6  A    between atoms: C_9  and  C_14 
REMARK    7  A    between atoms: C_12  and  C_23 
REMARK    8  A    between atoms: C_14  and  C_23 
REMARK    9  A    between atoms: N_16  and  C_23 
REMARK       I    between atoms: N_16  and  C_17 
ROOT
HETATM    1  C           1     -27.840  -6.286 -16.814  0.00  0.00     0.189 C 
ENDROOT
BRANCH   1   2
HETATM    2  C           1     -28.101  -6.817 -15.427  0.00  0.00     0.197 C 
HETATM    3  O           1     -28.804  -6.160 -14.628  0.00  0.00    -0.646 OA
HETATM    4  O           1     -27.616  -7.914 -15.075  0.00  0.00    -0.646 OA
ENDBRANCH   1   2
BRANCH   1   5
HETATM    5  C           1     -28.993  -6.671 -17.732  0.00  0.00     0.074 C 
BRANCH   5   6
HETATM    6  C           1     -30.089  -5.659 -17.607  0.00  0.00    -0.056 A 
HETATM    7  C           1     -29.853  -4.329 -17.955  0.00  0.00     0.010 A 
HETATM    8  C           1     -30.874  -3.385 -17.839  0.00  0.00     0.037 A 
HETATM    9  C           1     -32.132  -3.773 -17.377  0.00  0.00     0.065 A 
HETATM   10  C           1     -32.368  -5.103 -17.030  0.00  0.00     0.037 A 
HETATM   11  C           1     -31.347  -6.047 -17.146  0.00  0.00     0.010 A 
BRANCH   9  12
HETATM   12  O           1     -33.125  -2.857 -17.265  0.00  0.00    -0.361 OA
HETATM   13  H           1     -33.194  -2.603 -16.330  0.00  0.00     0.217 HD
ENDBRANCH   9  12
ENDBRANCH   5   6
ENDBRANCH   1   5
BRANCH   1  14
HETATM   14  N           1     -26.606  -6.855 -17.324  0.00  0.00    -0.344 N 
HETATM   15  H           1     -26.637  -7.569 -18.040  0.00  0.00     0.163 HD
HETATM   16  C           1     -25.402  -6.427 -16.836  0.00  0.00     0.251 C 
HETATM   17  O           1     -25.365  -5.573 -15.981  0.00  0.00    -0.271 OA
BRANCH  16  18
HETATM   18  C           1     -24.120  -7.019 -17.366  0.00  0.00     0.297 C 
BRANCH  18  19
HETATM   19  N           1     -23.758  -8.230 -16.560  0.00  0.00    -0.064 N 
HETATM   20  H           1     -23.295  -7.933 -15.671  0.00  0.00     0.275 HD
HETATM   21  H           1     -24.624  -8.771 -16.337  0.00  0.00     0.275 HD
HETATM   22  H           1     -23.103  -8.832 -17.108  0.00  0.00     0.275 HD
ENDBRANCH  18  19
BRANCH  18  23
HETATM   23  C           1     -24.307  -7.418 -18.824  0.00  0.00     0.206 C 
BRANCH  23  24
HETATM   24  O           1     -24.786  -6.319 -19.552  0.00  0.00    -0.398 OA
HETATM   25  H           1     -24.248  -5.581 -19.319  0.00  0.00     0.209 HD
ENDBRANCH  23  24
ENDBRANCH  18  23
ENDBRANCH  16  18
ENDBRANCH   1  14
TORSDOF 9
ENDMDL
MODEL 6
REMARK VINA RESULT:      -6.6      2.391      5.386
REMARK  9 active torsions:
REMARK  status: ('A' for Active; 'I' for Inactive)
REMARK    1  A    between atoms: O_1  and  C_18 
REMARK    2  A    between atoms: N_2  and  C_6 
REMARK    3  A    between atoms: O_3  and  C_4 
REMARK    4  A    between atoms: C_4  and  C_6 
REMARK    5  A    between atoms: C_6  and  C_17 
REMARK    6  A    between atoms: C_9  and  C_14 
REMARK    7  A    between atoms: C_12  and  C_23 
REMARK    8  A    between atoms: C_14  and  C_23 
REMARK    9  A    between atoms: N_16  and  C_23 
REMARK       I    between atoms: N_16  and  C_17 
ROOT
HETATM    1  C           1     -36.351  -0.441 -10.630  0.00  0.00     0.189 C 
ENDROOT
BRANCH   1   2
HETATM    2  C           1     -36.682  -0.205  -9.177  0.00  0.00     0.197 C 
HETATM    3  O           1     -37.858  -0.340  -8.774  0.00  0.00    -0.646 OA
HETATM    4  O           1     -35.781   0.124  -8.376  0.00  0.00    -0.646 OA
ENDBRANCH   1   2
BRANCH   1   5
HETATM    5  C           1     -37.547  -0.060 -11.493  0.00  0.00     0.074 C 
BRANCH   5   6
HETATM    6  C           1     -37.135  -0.031 -12.932  0.00  0.00    -0.056 A 
HETATM    7  C           1     -38.075  -0.288 -13.930  0.00  0.00     0.010 A 
HETATM    8  C           1     -37.692  -0.261 -15.271  0.00  0.00     0.037 A 
HETATM    9  C           1     -36.370   0.025 -15.614  0.00  0.00     0.065 A 
HETATM   10  C           1     -35.431   0.282 -14.615  0.00  0.00     0.037 A 
HETATM   11  C           1     -35.814   0.255 -13.273  0.00  0.00     0.010 A 
BRANCH   9  12
HETATM   12  O           1     -35.998   0.052 -16.916  0.00  0.00    -0.361 OA
HETATM   13  H           1     -36.465   0.787 -17.347  0.00  0.00     0.217 HD
ENDBRANCH   9  12
ENDBRANCH   5   6
ENDBRANCH   1   5
BRANCH   1  14
HETATM   14  N           1     -36.037  -1.842 -10.831  0.00  0.00    -0.344 N 
HETATM   15  H           1     -36.782  -2.523 -10.902  0.00  0.00     0.163 HD
HETATM   16  C           1     -34.732  -2.245 -10.927  0.00  0.00     0.251 C 
HETATM   17  O           1     -33.842  -1.432 -10.843  0.00  0.00    -0.271 OA
BRANCH  16  18
HETATM   18  C           1     -34.405  -3.702 -11.137  0.00  0.00     0.297 C 
BRANCH  18  19
HETATM   19  N           1     -35.603  -4.537 -10.794  0.00  0.00    -0.064 N 
HETATM   20  H           1     -35.320  -5.302 -10.140  0.00  0.00     0.275 HD
HETATM   21  H           1     -36.326  -3.937 -10.335  0.00  0.00     0.275 HD
HETATM   22  H           1     -35.999  -4.955 -11.666  0.00  0.00     0.275 HD
ENDBRANCH  18  19
BRANCH  18  23
HETATM   23  C           1     -34.027  -3.934 -12.594  0.00  0.00     0.206 C 
BRANCH  23  24
HETATM   24  O           1     -34.568  -2.913 -13.387  0.00  0.00    -0.398 OA
HETATM   25  H           1     -35.504  -2.952 -13.283  0.00  0.00     0.209 HD
ENDBRANCH  23  24
ENDBRANCH  18  23
ENDBRANCH  16  18
ENDBRANCH   1  14
TORSDOF 9
ENDMDL
MODEL 7
REMARK VINA RESULT:      -6.4      8.446     10.685
REMARK  9 active torsions:
REMARK  status: ('A' for Active; 'I' for Inactive)
REMARK    1  A    between atoms: O_1  and  C_18 
REMARK    2  A    between atoms: N_2  and  C_6 
REMARK    3  A    between atoms: O_3  and  C_4 
REMARK    4  A    between atoms: C_4  and  C_6 
REMARK    5  A    between atoms: C_6  and  C_17 
REMARK    6  A    between atoms: C_9  and  C_14 
REMARK    7  A    between atoms: C_12  and  C_23 
REMARK    8  A    between atoms: C_14  and  C_23 
REMARK    9  A    between atoms: N_16  and  C_23 
REMARK       I    between atoms: N_16  and  C_17 
ROOT
HETATM    1  C           1     -26.856  -6.020 -17.055  0.00  0.00     0.189 C 
ENDROOT
BRANCH   1   2
HETATM    2  C           1     -25.636  -6.738 -16.533  0.00  0.00     0.197 C 
HETATM    3  O           1     -24.585  -6.757 -17.210  0.00  0.00    -0.646 OA
HETATM    4  O           1     -25.676  -7.313 -15.424  0.00  0.00    -0.646 OA
ENDBRANCH   1   2
BRANCH   1   5
HETATM    5  C           1     -27.690  -5.518 -15.884  0.00  0.00     0.074 C 
BRANCH   5   6
HETATM    6  C           1     -28.936  -4.869 -16.401  0.00  0.00    -0.056 A 
HETATM    7  C           1     -28.854  -3.682 -17.129  0.00  0.00     0.010 A 
HETATM    8  C           1     -30.014  -3.077 -17.611  0.00  0.00     0.037 A 
HETATM    9  C           1     -31.258  -3.660 -17.366  0.00  0.00     0.065 A 
HETATM   10  C           1     -31.341  -4.847 -16.638  0.00  0.00     0.037 A 
HETATM   11  C           1     -30.179  -5.453 -16.156  0.00  0.00     0.010 A 
BRANCH   9  12
HETATM   12  O           1     -32.386  -3.074 -17.835  0.00  0.00    -0.361 OA
HETATM   13  H           1     -33.111  -3.716 -17.762  0.00  0.00     0.217 HD
ENDBRANCH   9  12
ENDBRANCH   5   6
ENDBRANCH   1   5
BRANCH   1  14
HETATM   14  N           1     -27.648  -6.935 -17.855  0.00  0.00    -0.344 N 
HETATM   15  H           1     -28.181  -7.668 -17.406  0.00  0.00     0.163 HD
HETATM   16  C           1     -27.674  -6.807 -19.217  0.00  0.00     0.251 C 
HETATM   17  O           1     -27.037  -5.931 -19.754  0.00  0.00    -0.271 OA
BRANCH  16  18
HETATM   18  C           1     -28.498  -7.758 -20.049  0.00  0.00     0.297 C 
BRANCH  18  19
HETATM   19  N           1     -27.587  -8.618 -20.874  0.00  0.00    -0.064 N 
HETATM   20  H           1     -27.112  -9.315 -20.257  0.00  0.00     0.275 HD
HETATM   21  H           1     -28.145  -9.119 -21.601  0.00  0.00     0.275 HD
HETATM   22  H           1     -26.867  -8.019 -21.339  0.00  0.00     0.275 HD
ENDBRANCH  18  19
BRANCH  18  23
HETATM   23  C           1     -29.336  -8.640 -19.133  0.00  0.00     0.206 C 
BRANCH  23  24
HETATM   24  O           1     -30.566  -8.018 -18.881  0.00  0.00    -0.398 OA
HETATM   25  H           1     -30.428  -7.090 -18.972  0.00  0.00     0.209 HD
ENDBRANCH  23  24
ENDBRANCH  18  23
ENDBRANCH  16  18
ENDBRANCH   1  14
TORSDOF 9
ENDMDL
MODEL 8
REMARK VINA RESULT:      -6.2     14.177     17.285
REMARK  9 active torsions:
REMARK  status: ('A' for Active; 'I' for Inactive)
REMARK    1  A    between atoms: O_1  and  C_18 
REMARK    2  A    between atoms: N_2  and  C_6 
REMARK    3  A    between atoms: O_3  and  C_4 
REMARK    4  A    between atoms: C_4  and  C_6 
REMARK    5  A    between atoms: C_6  and  C_17 
REMARK    6  A    between atoms: C_9  and  C_14 
REMARK    7  A    between atoms: C_12  and  C_23 
REMARK    8  A    between atoms: C_14  and  C_23 
REMARK    9  A    between atoms: N_16  and  C_23 
REMARK       I    between atoms: N_16  and  C_17 
ROOT
HETATM    1  C           1     -21.073  -5.682  -5.655  0.00  0.00     0.189 C 
ENDROOT
BRANCH   1   2
HETATM    2  C           1     -20.621  -6.930  -6.372  0.00  0.00     0.197 C 
HETATM    3  O           1     -21.385  -7.916  -6.453  0.00  0.00    -0.646 OA
HETATM    4  O           1     -19.482  -6.977  -6.886  0.00  0.00    -0.646 OA
ENDBRANCH   1   2
BRANCH   1   5
HETATM    5  C           1     -20.377  -4.468  -6.257  0.00  0.00     0.074 C 
BRANCH   5   6
HETATM    6  C           1     -20.933  -4.198  -7.620  0.00  0.00    -0.056 A 
HETATM    7  C           1     -22.304  -4.002  -7.786  0.00  0.00     0.010 A 
HETATM    8  C           1     -22.824  -3.750  -9.056  0.00  0.00     0.037 A 
HETATM    9  C           1     -21.972  -3.692 -10.159  0.00  0.00     0.065 A 
HETATM   10  C           1     -20.601  -3.888  -9.993  0.00  0.00     0.037 A 
HETATM   11  C           1     -20.081  -4.140  -8.723  0.00  0.00     0.010 A 
BRANCH   9  12
HETATM   12  O           1     -22.476  -3.447 -11.393  0.00  0.00    -0.361 OA
HETATM   13  H           1     -22.460  -4.278 -11.895  0.00  0.00     0.217 HD
ENDBRANCH   9  12
ENDBRANCH   5   6
ENDBRANCH   1   5
BRANCH   1  14
HETATM   14  N           1     -20.734  -5.785  -4.249  0.00  0.00    -0.344 N 
HETATM   15  H           1     -19.818  -5.499  -3.927  0.00  0.00     0.163 HD
HETATM   16  C           1     -21.653  -6.267  -3.357  0.00  0.00     0.251 C 
HETATM   17  O           1     -22.747  -6.607  -3.741  0.00  0.00    -0.271 OA
BRANCH  16  18
HETATM   18  C           1     -21.301  -6.373  -1.894  0.00  0.00     0.297 C 
BRANCH  18  19
HETATM   19  N           1     -22.554  -6.307  -1.072  0.00  0.00    -0.064 N 
HETATM   20  H           1     -23.234  -5.655  -1.524  0.00  0.00     0.275 HD
HETATM   21  H           1     -22.977  -7.260  -1.005  0.00  0.00     0.275 HD
HETATM   22  H           1     -22.325  -5.959  -0.114  0.00  0.00     0.275 HD
ENDBRANCH  18  19
BRANCH  18  23
HETATM   23  C           1     -20.595  -7.698  -1.635  0.00  0.00     0.206 C 
BRANCH  23  24
HETATM   24  O           1     -20.409  -8.374  -2.849  0.00  0.00    -0.398 OA
HETATM   25  H           1     -20.940  -7.935  -3.492  0.00  0.00     0.209 HD
ENDBRANCH  23  24
ENDBRANCH  18  23
ENDBRANCH  16  18
ENDBRANCH   1  14
TORSDOF 9
ENDMDL
MODEL 9
REMARK VINA RESULT:      -6.1     13.682     16.084
REMARK  9 active torsions:
REMARK  status: ('A' for Active; 'I' for Inactive)
REMARK    1  A    between atoms: O_1  and  C_18 
REMARK    2  A    between atoms: N_2  and  C_6 
REMARK    3  A    between atoms: O_3  and  C_4 
REMARK    4  A    between atoms: C_4  and  C_6 
REMARK    5  A    between atoms: C_6  and  C_17 
REMARK    6  A    between atoms: C_9  and  C_14 
REMARK    7  A    between atoms: C_12  and  C_23 
REMARK    8  A    between atoms: C_14  and  C_23 
REMARK    9  A    between atoms: N_16  and  C_23 
REMARK       I    between atoms: N_16  and  C_17 
ROOT
HETATM    1  C           1     -21.296  -5.342  -6.204  0.00  0.00     0.189 C 
ENDROOT
BRANCH   1   2
HETATM    2  C           1     -19.917  -4.760  -6.017  0.00  0.00     0.197 C 
HETATM    3  O           1     -19.586  -4.282  -4.910  0.00  0.00    -0.646 OA
HETATM    4  O           1     -19.105  -4.757  -6.967  0.00  0.00    -0.646 OA
ENDBRANCH   1   2
BRANCH   1   5
HETATM    5  C           1     -21.242  -6.852  -6.014  0.00  0.00     0.074 C 
BRANCH   5   6
HETATM    6  C           1     -21.156  -7.169  -4.554  0.00  0.00    -0.056 A 
HETATM    7  C           1     -21.927  -6.452  -3.639  0.00  0.00     0.010 A 
HETATM    8  C           1     -21.847  -6.746  -2.277  0.00  0.00     0.037 A 
HETATM    9  C           1     -20.997  -7.759  -1.832  0.00  0.00     0.065 A 
HETATM   10  C           1     -20.226  -8.476  -2.747  0.00  0.00     0.037 A 
HETATM   11  C           1     -20.306  -8.181  -4.109  0.00  0.00     0.010 A 
BRANCH   9  12
HETATM   12  O           1     -20.920  -8.046  -0.509  0.00  0.00    -0.361 OA
HETATM   13  H           1     -21.070  -8.999  -0.400  0.00  0.00     0.217 HD
ENDBRANCH   9  12
ENDBRANCH   5   6
ENDBRANCH   1   5
BRANCH   1  14
HETATM   14  N           1     -21.768  -5.040  -7.543  0.00  0.00    -0.344 N 
HETATM   15  H           1     -21.161  -5.189  -8.338  0.00  0.00     0.163 HD
HETATM   16  C           1     -23.035  -4.557  -7.729  0.00  0.00     0.251 C 
HETATM   17  O           1     -23.760  -4.380  -6.779  0.00  0.00    -0.271 OA
BRANCH  16  18
HETATM   18  C           1     -23.525  -4.243  -9.121  0.00  0.00     0.297 C 
BRANCH  18  19
HETATM   19  N           1     -24.637  -3.240  -9.044  0.00  0.00    -0.064 N 
HETATM   20  H           1     -25.185  -3.392  -8.167  0.00  0.00     0.275 HD
HETATM   21  H           1     -24.236  -2.275  -9.041  0.00  0.00     0.275 HD
HETATM   22  H           1     -25.267  -3.354  -9.871  0.00  0.00     0.275 HD
ENDBRANCH  18  19
BRANCH  18  23
HETATM   23  C           1     -22.381  -3.670  -9.947  0.00  0.00     0.206 C 
BRANCH  23  24
HETATM   24  O           1     -22.799  -3.506 -11.275  0.00  0.00    -0.398 OA
HETATM   25  H           1     -23.229  -2.669 -11.326  0.00  0.00     0.209 HD
ENDBRANCH  23  24
ENDBRANCH  18  23
ENDBRANCH  16  18
ENDBRANCH   1  14
TORSDOF 9
ENDMDL
