MODEL 1
REMARK VINA RESULT:      -5.9      0.000      0.000
REMARK  9 active torsions:
REMARK  status: ('A' for Active; 'I' for Inactive)
REMARK    1  A    between atoms: C_1  and  C_2 
REMARK    2  A    between atoms: C_1  and  C_8 
REMARK    3  A    between atoms: C_1  and  N_14 
REMARK       I    between atoms: C_2  and  N_3 
REMARK    4  A    between atoms: N_3  and  C_21 
REMARK    5  A    between atoms: Se_6  and  C_7 
REMARK    6  A    between atoms: C_7  and  C_8 
REMARK    7  A    between atoms: C_10  and  C_21 
REMARK    8  A    between atoms: C_18  and  C_20 
REMARK    9  A    between atoms: C_20  and  C_21 
ROOT
HETATM    1  C           1     -26.449  -6.904 -16.468  0.00  0.00     0.249 C 
HETATM    2  N           1     -27.599  -6.575 -17.133  0.00  0.00    -0.344 N 
HETATM    3  O           1     -26.506  -7.335 -15.341  0.00  0.00    -0.271 OA
HETATM    4  H           1     -27.551  -6.214 -18.078  0.00  0.00     0.163 HD
ENDROOT
BRANCH   1   5
HETATM    5  C           1     -25.110  -6.728 -17.142  0.00  0.00     0.274 C 
BRANCH   5   6
HETATM    6  C           1     -25.295  -6.756 -18.654  0.00  0.00     0.042 C 
BRANCH   6   7
HETATM    7  C           1     -24.068  -7.379 -19.305  0.00  0.00     0.003 C 
BRANCH   7   8
HETATM    8 Se           1     -24.499  -7.912 -21.130  0.00  0.00     0.000 Se
HETATM    9  C           1     -22.696  -8.516 -21.554  0.00  0.00     0.000 C 
ENDBRANCH   7   8
ENDBRANCH   6   7
ENDBRANCH   5   6
BRANCH   5  10
HETATM   10  N           1     -24.193  -7.841 -16.731  0.00  0.00    -0.067 N 
HETATM   11  H           1     -24.597  -8.339 -15.906  0.00  0.00     0.275 HD
HETATM   12  H           1     -24.084  -8.512 -17.524  0.00  0.00     0.275 HD
HETATM   13  H           1     -23.259  -7.446 -16.476  0.00  0.00     0.275 HD
ENDBRANCH   5  10
ENDBRANCH   1   5
BRANCH   2  14
HETATM   14  C           1     -28.885  -6.744 -16.486  0.00  0.00     0.195 C 
BRANCH  14  15
HETATM   15  C           1     -29.850  -7.394 -17.447  0.00  0.00     0.197 C 
HETATM   16  O           1     -31.040  -7.015 -17.490  0.00  0.00    -0.646 OA
HETATM   17  O           1     -29.459  -8.312 -18.201  0.00  0.00    -0.646 OA
ENDBRANCH  14  15
BRANCH  14  18
HETATM   18  C           1     -29.425  -5.383 -16.067  0.00  0.00     0.149 C 
BRANCH  18  19
HETATM   19  C           1     -28.814  -4.310 -16.933  0.00  0.00     0.175 C 
HETATM   20  O           1     -27.832  -3.656 -16.519  0.00  0.00    -0.648 OA
HETATM   21  O           1     -29.289  -4.073 -18.065  0.00  0.00    -0.648 OA
ENDBRANCH  18  19
ENDBRANCH  14  18
ENDBRANCH   2  14
TORSDOF 9
ENDMDL
MODEL 2
REMARK VINA RESULT:      -5.8      1.973      3.192
REMARK  9 active torsions:
REMARK  status: ('A' for Active; 'I' for Inactive)
REMARK    1  A    between atoms: C_1  and  C_2 
REMARK    2  A    between atoms: C_1  and  C_8 
REMARK    3  A    between atoms: C_1  and  N_14 
REMARK       I    between atoms: C_2  and  N_3 
REMARK    4  A    between atoms: N_3  and  C_21 
REMARK    5  A    between atoms: Se_6  and  C_7 
REMARK    6  A    between atoms: C_7  and  C_8 
REMARK    7  A    between atoms: C_10  and  C_21 
REMARK    8  A    between atoms: C_18  and  C_20 
REMARK    9  A    between atoms: C_20  and  C_21 
ROOT
HETATM    1  C           1     -25.318  -6.909 -19.023  0.00  0.00     0.249 C 
HETATM    2  N           1     -26.455  -6.694 -18.292  0.00  0.00    -0.344 N 
HETATM    3  O           1     -24.250  -6.530 -18.603  0.00  0.00    -0.271 OA
HETATM    4  H           1     -27.349  -7.012 -18.644  0.00  0.00     0.163 HD
ENDROOT
BRANCH   1   5
HETATM    5  C           1     -25.398  -7.617 -20.353  0.00  0.00     0.274 C 
BRANCH   5   6
HETATM    6  C           1     -24.862  -6.703 -21.448  0.00  0.00     0.042 C 
BRANCH   6   7
HETATM    7  C           1     -23.974  -7.505 -22.390  0.00  0.00     0.003 C 
BRANCH   7   8
HETATM    8 Se           1     -22.665  -8.510 -21.353  0.00  0.00     0.000 Se
HETATM    9  C           1     -21.880  -9.400 -22.899  0.00  0.00     0.000 C 
ENDBRANCH   7   8
ENDBRANCH   6   7
ENDBRANCH   5   6
BRANCH   5  10
HETATM   10  N           1     -26.826  -7.966 -20.649  0.00  0.00    -0.067 N 
HETATM   11  H           1     -27.438  -7.610 -19.880  0.00  0.00     0.275 HD
HETATM   12  H           1     -27.111  -7.525 -21.552  0.00  0.00     0.275 HD
HETATM   13  H           1     -26.924  -9.004 -20.720  0.00  0.00     0.275 HD
ENDBRANCH   5  10
ENDBRANCH   1   5
BRANCH   2  14
HETATM   14  C           1     -26.378  -6.014 -17.014  0.00  0.00     0.195 C 
BRANCH  14  15
HETATM   15  C           1     -26.257  -7.033 -15.909  0.00  0.00     0.197 C 
HETATM   16  O           1     -27.285  -7.476 -15.351  0.00  0.00    -0.646 OA
HETATM   17  O           1     -25.129  -7.437 -15.551  0.00  0.00    -0.646 OA
ENDBRANCH  14  15
BRANCH  14  18
HETATM   18  C           1     -27.638  -5.184 -16.805  0.00  0.00     0.149 C 
BRANCH  18  19
HETATM   19  C           1     -28.664  -5.554 -17.848  0.00  0.00     0.175 C 
HETATM   20  O           1     -28.763  -4.877 -18.894  0.00  0.00    -0.648 OA
HETATM   21  O           1     -29.416  -6.536 -17.665  0.00  0.00    -0.648 OA
ENDBRANCH  18  19
ENDBRANCH  14  18
ENDBRANCH   2  14
TORSDOF 9
ENDMDL
MODEL 3
REMARK VINA RESULT:      -5.6      2.185      3.604
REMARK  9 active torsions:
REMARK  status: ('A' for Active; 'I' for Inactive)
REMARK    1  A    between atoms: C_1  and  C_2 
REMARK    2  A    between atoms: C_1  and  C_8 
REMARK    3  A    between atoms: C_1  and  N_14 
REMARK       I    between atoms: C_2  and  N_3 
REMARK    4  A    between atoms: N_3  and  C_21 
REMARK    5  A    between atoms: Se_6  and  C_7 
REMARK    6  A    between atoms: C_7  and  C_8 
REMARK    7  A    between atoms: C_10  and  C_21 
REMARK    8  A    between atoms: C_18  and  C_20 
REMARK    9  A    between atoms: C_20  and  C_21 
ROOT
HETATM    1  C           1     -26.912  -6.517 -19.977  0.00  0.00     0.249 C 
HETATM    2  N           1     -27.494  -6.682 -18.749  0.00  0.00    -0.344 N 
HETATM    3  O           1     -27.192  -5.556 -20.653  0.00  0.00    -0.271 OA
HETATM    4  H           1     -27.260  -7.487 -18.183  0.00  0.00     0.163 HD
ENDROOT
BRANCH   1   5
HETATM    5  C           1     -25.923  -7.537 -20.486  0.00  0.00     0.274 C 
BRANCH   5   6
HETATM    6  C           1     -24.932  -6.859 -21.423  0.00  0.00     0.042 C 
BRANCH   6   7
HETATM    7  C           1     -24.226  -7.913 -22.266  0.00  0.00     0.003 C 
BRANCH   7   8
HETATM    8 Se           1     -22.650  -8.557 -21.317  0.00  0.00     0.000 Se
HETATM    9  C           1     -21.805  -9.317 -22.899  0.00  0.00     0.000 C 
ENDBRANCH   7   8
ENDBRANCH   6   7
ENDBRANCH   5   6
BRANCH   5  10
HETATM   10  N           1     -26.655  -8.615 -21.229  0.00  0.00    -0.067 N 
HETATM   11  H           1     -26.489  -9.535 -20.761  0.00  0.00     0.275 HD
HETATM   12  H           1     -27.678  -8.404 -21.229  0.00  0.00     0.275 HD
HETATM   13  H           1     -26.307  -8.658 -22.213  0.00  0.00     0.275 HD
ENDBRANCH   5  10
ENDBRANCH   1   5
BRANCH   2  14
HETATM   14  C           1     -28.444  -5.703 -18.260  0.00  0.00     0.195 C 
BRANCH  14  15
HETATM   15  C           1     -28.033  -5.248 -16.882  0.00  0.00     0.197 C 
HETATM   16  O           1     -28.880  -5.187 -15.964  0.00  0.00    -0.646 OA
HETATM   17  O           1     -26.844  -4.932 -16.656  0.00  0.00    -0.646 OA
ENDBRANCH  14  15
BRANCH  14  18
HETATM   18  C           1     -29.831  -6.329 -18.195  0.00  0.00     0.149 C 
BRANCH  18  19
HETATM   19  C           1     -29.702  -7.831 -18.119  0.00  0.00     0.175 C 
HETATM   20  O           1     -29.444  -8.381 -17.027  0.00  0.00    -0.648 OA
HETATM   21  O           1     -29.855  -8.525 -19.148  0.00  0.00    -0.648 OA
ENDBRANCH  18  19
ENDBRANCH  14  18
ENDBRANCH   2  14
TORSDOF 9
ENDMDL
MODEL 4
REMARK VINA RESULT:      -5.6     10.605     12.169
REMARK  9 active torsions:
REMARK  status: ('A' for Active; 'I' for Inactive)
REMARK    1  A    between atoms: C_1  and  C_2 
REMARK    2  A    between atoms: C_1  and  C_8 
REMARK    3  A    between atoms: C_1  and  N_14 
REMARK       I    between atoms: C_2  and  N_3 
REMARK    4  A    between atoms: N_3  and  C_21 
REMARK    5  A    between atoms: Se_6  and  C_7 
REMARK    6  A    between atoms: C_7  and  C_8 
REMARK    7  A    between atoms: C_10  and  C_21 
REMARK    8  A    between atoms: C_18  and  C_20 
REMARK    9  A    between atoms: C_20  and  C_21 
ROOT
HETATM    1  C           1     -21.703  -4.732  -7.639  0.00  0.00     0.249 C 
HETATM    2  N           1     -22.297  -4.941  -8.854  0.00  0.00    -0.344 N 
HETATM    3  O           1     -21.576  -3.609  -7.214  0.00  0.00    -0.271 OA
HETATM    4  H           1     -22.404  -5.882  -9.210  0.00  0.00     0.163 HD
ENDROOT
BRANCH   1   5
HETATM    5  C           1     -21.204  -5.906  -6.832  0.00  0.00     0.274 C 
BRANCH   5   6
HETATM    6  C           1     -21.204  -5.542  -5.353  0.00  0.00     0.042 C 
BRANCH   6   7
HETATM    7  C           1     -21.913  -6.632  -4.560  0.00  0.00     0.003 C 
BRANCH   7   8
HETATM    8 Se           1     -21.709  -6.286  -2.653  0.00  0.00     0.000 Se
HETATM    9  C           1     -20.728  -7.930  -2.292  0.00  0.00     0.000 C 
ENDBRANCH   7   8
ENDBRANCH   6   7
ENDBRANCH   5   6
BRANCH   5  10
HETATM   10  N           1     -19.809  -6.252  -7.261  0.00  0.00    -0.067 N 
HETATM   11  H           1     -19.166  -5.463  -7.025  0.00  0.00     0.275 HD
HETATM   12  H           1     -19.497  -7.115  -6.762  0.00  0.00     0.275 HD
HETATM   13  H           1     -19.793  -6.418  -8.292  0.00  0.00     0.275 HD
ENDBRANCH   5  10
ENDBRANCH   1   5
BRANCH   2  14
HETATM   14  C           1     -22.776  -3.814  -9.630  0.00  0.00     0.195 C 
BRANCH  14  15
HETATM   15  C           1     -24.284  -3.836  -9.671  0.00  0.00     0.197 C 
HETATM   16  O           1     -24.888  -4.915  -9.856  0.00  0.00    -0.646 OA
HETATM   17  O           1     -24.930  -2.776  -9.520  0.00  0.00    -0.646 OA
ENDBRANCH  14  15
BRANCH  14  18
HETATM   18  C           1     -22.227  -3.904 -11.047  0.00  0.00     0.149 C 
BRANCH  18  19
HETATM   19  C           1     -20.728  -3.735 -11.019  0.00  0.00     0.175 C 
HETATM   20  O           1     -19.994  -4.710 -10.748  0.00  0.00    -0.648 OA
HETATM   21  O           1     -20.219  -2.620 -11.267  0.00  0.00    -0.648 OA
ENDBRANCH  18  19
ENDBRANCH  14  18
ENDBRANCH   2  14
TORSDOF 9
ENDMDL
MODEL 5
REMARK VINA RESULT:      -5.1     12.323     14.237
REMARK  9 active torsions:
REMARK  status: ('A' for Active; 'I' for Inactive)
REMARK    1  A    between atoms: C_1  and  C_2 
REMARK    2  A    between atoms: C_1  and  C_8 
REMARK    3  A    between atoms: C_1  and  N_14 
REMARK       I    between atoms: C_2  and  N_3 
REMARK    4  A    between atoms: N_3  and  C_21 
REMARK    5  A    between atoms: Se_6  and  C_7 
REMARK    6  A    between atoms: C_7  and  C_8 
REMARK    7  A    between atoms: C_10  and  C_21 
REMARK    8  A    between atoms: C_18  and  C_20 
REMARK    9  A    between atoms: C_20  and  C_21 
ROOT
HETATM    1  C           1     -21.440  -5.799  -5.646  0.00  0.00     0.249 C 
HETATM    2  N           1     -20.878  -6.687  -4.770  0.00  0.00    -0.344 N 
HETATM    3  O           1     -22.638  -5.649  -5.669  0.00  0.00    -0.271 OA
HETATM    4  H           1     -19.874  -6.813  -4.751  0.00  0.00     0.163 HD
ENDROOT
BRANCH   1   5
HETATM    5  C           1     -20.562  -5.008  -6.585  0.00  0.00     0.274 C 
BRANCH   5   6
HETATM    6  C           1     -21.372  -3.877  -7.207  0.00  0.00     0.042 C 
BRANCH   6   7
HETATM    7  C           1     -21.654  -4.197  -8.668  0.00  0.00     0.003 C 
BRANCH   7   8
HETATM    8 Se           1     -23.562  -4.006  -9.020  0.00  0.00     0.000 Se
HETATM    9  C           1     -23.477  -4.774 -10.808  0.00  0.00     0.000 C 
ENDBRANCH   7   8
ENDBRANCH   6   7
ENDBRANCH   5   6
BRANCH   5  10
HETATM   10  N           1     -20.050  -5.909  -7.670  0.00  0.00    -0.067 N 
HETATM   11  H           1     -19.060  -6.172  -7.466  0.00  0.00     0.275 HD
HETATM   12  H           1     -20.638  -6.772  -7.710  0.00  0.00     0.275 HD
HETATM   13  H           1     -20.097  -5.412  -8.587  0.00  0.00     0.275 HD
ENDBRANCH   5  10
ENDBRANCH   1   5
BRANCH   2  14
HETATM   14  C           1     -21.721  -7.447  -3.868  0.00  0.00     0.195 C 
BRANCH  14  15
HETATM   15  C           1     -21.615  -6.873  -2.477  0.00  0.00     0.197 C 
HETATM   16  O           1     -20.862  -7.409  -1.635  0.00  0.00    -0.646 OA
HETATM   17  O           1     -22.279  -5.860  -2.166  0.00  0.00    -0.646 OA
ENDBRANCH  14  15
BRANCH  14  18
HETATM   18  C           1     -21.268  -8.901  -3.854  0.00  0.00     0.149 C 
BRANCH  18  19
HETATM   19  C           1     -19.981  -9.035  -4.631  0.00  0.00     0.175 C 
HETATM   20  O           1     -18.884  -8.870  -4.055  0.00  0.00    -0.648 OA
HETATM   21  O           1     -20.012  -9.313  -5.849  0.00  0.00    -0.648 OA
ENDBRANCH  18  19
ENDBRANCH  14  18
ENDBRANCH   2  14
TORSDOF 9
ENDMDL
MODEL 6
REMARK VINA RESULT:      -4.9     11.237     12.787
REMARK  9 active torsions:
REMARK  status: ('A' for Active; 'I' for Inactive)
REMARK    1  A    between atoms: C_1  and  C_2 
REMARK    2  A    between atoms: C_1  and  C_8 
REMARK    3  A    between atoms: C_1  and  N_14 
REMARK       I    between atoms: C_2  and  N_3 
REMARK    4  A    between atoms: N_3  and  C_21 
REMARK    5  A    between atoms: Se_6  and  C_7 
REMARK    6  A    between atoms: C_7  and  C_8 
REMARK    7  A    between atoms: C_10  and  C_21 
REMARK    8  A    between atoms: C_18  and  C_20 
REMARK    9  A    between atoms: C_20  and  C_21 
ROOT
HETATM    1  C           1     -21.453  -5.808  -6.677  0.00  0.00     0.249 C 
HETATM    2  N           1     -21.992  -4.696  -7.265  0.00  0.00    -0.344 N 
HETATM    3  O           1     -21.035  -6.711  -7.362  0.00  0.00    -0.271 OA
HETATM    4  H           1     -22.342  -3.940  -6.691  0.00  0.00     0.163 HD
ENDROOT
BRANCH   1   5
HETATM    5  C           1     -21.383  -5.907  -5.173  0.00  0.00     0.274 C 
BRANCH   5   6
HETATM    6  C           1     -20.459  -7.053  -4.781  0.00  0.00     0.042 C 
BRANCH   6   7
HETATM    7  C           1     -21.251  -8.108  -4.020  0.00  0.00     0.003 C 
BRANCH   7   8
HETATM    8 Se           1     -20.378  -8.474  -2.316  0.00  0.00     0.000 Se
HETATM    9  C           1     -18.803  -9.298  -3.113  0.00  0.00     0.000 C 
ENDBRANCH   7   8
ENDBRANCH   6   7
ENDBRANCH   5   6
BRANCH   5  10
HETATM   10  N           1     -22.756  -6.163  -4.624  0.00  0.00    -0.067 N 
HETATM   11  H           1     -23.417  -6.348  -5.411  0.00  0.00     0.275 HD
HETATM   12  H           1     -22.727  -6.993  -3.991  0.00  0.00     0.275 HD
HETATM   13  H           1     -23.078  -5.326  -4.089  0.00  0.00     0.275 HD
ENDBRANCH   5  10
ENDBRANCH   1   5
BRANCH   2  14
HETATM   14  C           1     -22.059  -4.601  -8.710  0.00  0.00     0.195 C 
BRANCH  14  15
HETATM   15  C           1     -20.706  -4.211  -9.252  0.00  0.00     0.197 C 
HETATM   16  O           1     -19.870  -3.655  -8.506  0.00  0.00    -0.646 OA
HETATM   17  O           1     -20.420  -4.444 -10.447  0.00  0.00    -0.646 OA
ENDBRANCH  14  15
BRANCH  14  18
HETATM   18  C           1     -23.087  -3.548  -9.102  0.00  0.00     0.149 C 
BRANCH  18  19
HETATM   19  C           1     -23.977  -4.092 -10.192  0.00  0.00     0.175 C 
HETATM   20  O           1     -24.819  -3.349 -10.740  0.00  0.00    -0.648 OA
HETATM   21  O           1     -23.872  -5.287 -10.547  0.00  0.00    -0.648 OA
ENDBRANCH  18  19
ENDBRANCH  14  18
ENDBRANCH   2  14
TORSDOF 9
ENDMDL
MODEL 7
REMARK VINA RESULT:      -4.8     12.325     14.121
REMARK  9 active torsions:
REMARK  status: ('A' for Active; 'I' for Inactive)
REMARK    1  A    between atoms: C_1  and  C_2 
REMARK    2  A    between atoms: C_1  and  C_8 
REMARK    3  A    between atoms: C_1  and  N_14 
REMARK       I    between atoms: C_2  and  N_3 
REMARK    4  A    between atoms: N_3  and  C_21 
REMARK    5  A    between atoms: Se_6  and  C_7 
REMARK    6  A    between atoms: C_7  and  C_8 
REMARK    7  A    between atoms: C_10  and  C_21 
REMARK    8  A    between atoms: C_18  and  C_20 
REMARK    9  A    between atoms: C_20  and  C_21 
ROOT
HETATM    1  C           1     -21.361  -5.617  -5.776  0.00  0.00     0.249 C 
HETATM    2  N           1     -21.521  -6.897  -5.319  0.00  0.00    -0.344 N 
HETATM    3  O           1     -20.529  -4.898  -5.277  0.00  0.00    -0.271 OA
HETATM    4  H           1     -22.218  -7.500  -5.737  0.00  0.00     0.163 HD
ENDROOT
BRANCH   1   5
HETATM    5  C           1     -22.227  -5.104  -6.901  0.00  0.00     0.274 C 
BRANCH   5   6
HETATM    6  C           1     -21.635  -3.811  -7.447  0.00  0.00     0.042 C 
BRANCH   6   7
HETATM    7  C           1     -21.172  -4.030  -8.881  0.00  0.00     0.003 C 
BRANCH   7   8
HETATM    8 Se           1     -22.725  -4.187 -10.050  0.00  0.00     0.000 Se
HETATM    9  C           1     -21.686  -4.231 -11.698  0.00  0.00     0.000 C 
ENDBRANCH   7   8
ENDBRANCH   6   7
ENDBRANCH   5   6
BRANCH   5  10
HETATM   10  N           1     -23.611  -4.842  -6.387  0.00  0.00    -0.067 N 
HETATM   11  H           1     -24.297  -5.419  -6.923  0.00  0.00     0.275 HD
HETATM   12  H           1     -23.660  -5.095  -5.374  0.00  0.00     0.275 HD
HETATM   13  H           1     -23.841  -3.829  -6.505  0.00  0.00     0.275 HD
ENDBRANCH   5  10
ENDBRANCH   1   5
BRANCH   2  14
HETATM   14  C           1     -20.690  -7.391  -4.238  0.00  0.00     0.195 C 
BRANCH  14  15
HETATM   15  C           1     -19.727  -8.420  -4.774  0.00  0.00     0.197 C 
HETATM   16  O           1     -19.250  -8.292  -5.923  0.00  0.00    -0.646 OA
HETATM   17  O           1     -19.404  -9.402  -4.069  0.00  0.00    -0.646 OA
ENDBRANCH  14  15
BRANCH  14  18
HETATM   18  C           1     -21.571  -8.025  -3.170  0.00  0.00     0.149 C 
BRANCH  18  19
HETATM   19  C           1     -21.891  -7.003  -2.107  0.00  0.00     0.175 C 
HETATM   20  O           1     -22.330  -5.879  -2.434  0.00  0.00    -0.648 OA
HETATM   21  O           1     -21.717  -7.280  -0.900  0.00  0.00    -0.648 OA
ENDBRANCH  18  19
ENDBRANCH  14  18
ENDBRANCH   2  14
TORSDOF 9
ENDMDL
MODEL 8
REMARK VINA RESULT:      -4.8     13.333     15.039
REMARK  9 active torsions:
REMARK  status: ('A' for Active; 'I' for Inactive)
REMARK    1  A    between atoms: C_1  and  C_2 
REMARK    2  A    between atoms: C_1  and  C_8 
REMARK    3  A    between atoms: C_1  and  N_14 
REMARK       I    between atoms: C_2  and  N_3 
REMARK    4  A    between atoms: N_3  and  C_21 
REMARK    5  A    between atoms: Se_6  and  C_7 
REMARK    6  A    between atoms: C_7  and  C_8 
REMARK    7  A    between atoms: C_10  and  C_21 
REMARK    8  A    between atoms: C_18  and  C_20 
REMARK    9  A    between atoms: C_20  and  C_21 
ROOT
HETATM    1  C           1     -21.408  -6.387  -4.310  0.00  0.00     0.249 C 
HETATM    2  N           1     -20.923  -5.314  -5.007  0.00  0.00    -0.344 N 
HETATM    3  O           1     -21.946  -7.296  -4.898  0.00  0.00    -0.271 OA
HETATM    4  H           1     -20.473  -4.553  -4.514  0.00  0.00     0.163 HD
ENDROOT
BRANCH   1   5
HETATM    5  C           1     -21.274  -6.435  -2.808  0.00  0.00     0.274 C 
BRANCH   5   6
HETATM    6  C           1     -21.144  -7.883  -2.355  0.00  0.00     0.042 C 
BRANCH   6   7
HETATM    7  C           1     -21.685  -8.024  -0.938  0.00  0.00     0.003 C 
BRANCH   7   8
HETATM    8 Se           1     -22.251  -9.864  -0.637  0.00  0.00     0.000 Se
HETATM    9  C           1     -20.928 -10.220   0.747  0.00  0.00     0.000 C 
ENDBRANCH   7   8
ENDBRANCH   6   7
ENDBRANCH   5   6
BRANCH   5  10
HETATM   10  N           1     -22.489  -5.822  -2.177  0.00  0.00    -0.067 N 
HETATM   11  H           1     -23.346  -6.310  -2.523  0.00  0.00     0.275 HD
HETATM   12  H           1     -22.428  -5.920  -1.139  0.00  0.00     0.275 HD
HETATM   13  H           1     -22.540  -4.809  -2.430  0.00  0.00     0.275 HD
ENDBRANCH   5  10
ENDBRANCH   1   5
BRANCH   2  14
HETATM   14  C           1     -21.052  -5.268  -6.450  0.00  0.00     0.195 C 
BRANCH  14  15
HETATM   15  C           1     -19.727  -5.610  -7.084  0.00  0.00     0.197 C 
HETATM   16  O           1     -19.367  -6.805  -7.176  0.00  0.00    -0.646 OA
HETATM   17  O           1     -18.988  -4.701  -7.521  0.00  0.00    -0.646 OA
ENDBRANCH  14  15
BRANCH  14  18
HETATM   18  C           1     -21.474  -3.868  -6.877  0.00  0.00     0.149 C 
BRANCH  18  19
HETATM   19  C           1     -22.334  -3.956  -8.113  0.00  0.00     0.175 C 
HETATM   20  O           1     -21.836  -3.735  -9.238  0.00  0.00    -0.648 OA
HETATM   21  O           1     -23.545  -4.250  -8.013  0.00  0.00    -0.648 OA
ENDBRANCH  18  19
ENDBRANCH  14  18
ENDBRANCH   2  14
TORSDOF 9
ENDMDL
MODEL 9
REMARK VINA RESULT:      -4.7      2.276      3.381
REMARK  9 active torsions:
REMARK  status: ('A' for Active; 'I' for Inactive)
REMARK    1  A    between atoms: C_1  and  C_2 
REMARK    2  A    between atoms: C_1  and  C_8 
REMARK    3  A    between atoms: C_1  and  N_14 
REMARK       I    between atoms: C_2  and  N_3 
REMARK    4  A    between atoms: N_3  and  C_21 
REMARK    5  A    between atoms: Se_6  and  C_7 
REMARK    6  A    between atoms: C_7  and  C_8 
REMARK    7  A    between atoms: C_10  and  C_21 
REMARK    8  A    between atoms: C_18  and  C_20 
REMARK    9  A    between atoms: C_20  and  C_21 
ROOT
HETATM    1  C           1     -27.109  -6.706 -19.846  0.00  0.00     0.249 C 
HETATM    2  N           1     -27.629  -6.802 -18.584  0.00  0.00    -0.344 N 
HETATM    3  O           1     -27.125  -5.647 -20.427  0.00  0.00    -0.271 OA
HETATM    4  H           1     -27.616  -7.690 -18.098  0.00  0.00     0.163 HD
ENDROOT
BRANCH   1   5
HETATM    5  C           1     -26.516  -7.923 -20.513  0.00  0.00     0.274 C 
BRANCH   5   6
HETATM    6  C           1     -25.511  -7.485 -21.570  0.00  0.00     0.042 C 
BRANCH   6   7
HETATM    7  C           1     -24.123  -7.984 -21.190  0.00  0.00     0.003 C 
BRANCH   7   8
HETATM    8 Se           1     -23.081  -8.303 -22.806  0.00  0.00     0.000 Se
HETATM    9  C           1     -21.562  -9.086 -21.871  0.00  0.00     0.000 C 
ENDBRANCH   7   8
ENDBRANCH   6   7
ENDBRANCH   5   6
BRANCH   5  10
HETATM   10  N           1     -27.609  -8.719 -21.164  0.00  0.00    -0.067 N 
HETATM   11  H           1     -28.350  -8.934 -20.459  0.00  0.00     0.275 HD
HETATM   12  H           1     -28.023  -8.164 -21.946  0.00  0.00     0.275 HD
HETATM   13  H           1     -27.214  -9.611 -21.538  0.00  0.00     0.275 HD
ENDBRANCH   5  10
ENDBRANCH   1   5
BRANCH   2  14
HETATM   14  C           1     -28.199  -5.633 -17.944  0.00  0.00     0.195 C 
BRANCH  14  15
HETATM   15  C           1     -27.343  -5.239 -16.765  0.00  0.00     0.197 C 
HETATM   16  O           1     -26.145  -5.593 -16.716  0.00  0.00    -0.646 OA
HETATM   17  O           1     -27.832  -4.556 -15.838  0.00  0.00    -0.646 OA
ENDBRANCH  14  15
BRANCH  14  18
HETATM   18  C           1     -29.608  -5.953 -17.464  0.00  0.00     0.149 C 
BRANCH  18  19
HETATM   19  C           1     -30.463  -4.713 -17.547  0.00  0.00     0.175 C 
HETATM   20  O           1     -30.103  -3.753 -18.262  0.00  0.00    -0.648 OA
HETATM   21  O           1     -31.532  -4.645 -16.901  0.00  0.00    -0.648 OA
ENDBRANCH  18  19
ENDBRANCH  14  18
ENDBRANCH   2  14
TORSDOF 9
ENDMDL
