MODEL 1
REMARK VINA RESULT:      -7.0      0.000      0.000
REMARK  10 active torsions:
REMARK  status: ('A' for Active; 'I' for Inactive)
REMARK    1  A    between atoms: C_2  and  C_9 
REMARK    2  A    between atoms: C_9  and  C_10 
REMARK    3  A    between atoms: C_9  and  N_17 
REMARK    4  A    between atoms: C_10  and  C_11 
REMARK       I    between atoms: N_17  and  C_18 
REMARK    5  A    between atoms: C_18  and  C_19 
REMARK    6  A    between atoms: C_19  and  C_20 
REMARK    7  A    between atoms: C_19  and  N_26 
REMARK    8  A    between atoms: C_20  and  O_21 
REMARK    9  A    between atoms: O_21  and  P_22 
REMARK   10  A    between atoms: P_22  and  O_23 
ROOT
HETATM    1  H           1     -19.142  -7.506  -7.259  0.00  0.00     0.163 HD
HETATM    2  N           1     -19.667  -7.068  -6.513  0.00  0.00    -0.344 N 
HETATM    3  C           1     -20.207  -5.823  -6.696  0.00  0.00     0.251 C 
HETATM    4  O           1     -19.566  -4.839  -6.414  0.00  0.00    -0.271 OA
ENDROOT
BRANCH   3   5
HETATM    5  C           1     -21.604  -5.681  -7.251  0.00  0.00     0.298 C 
BRANCH   5   6
HETATM    6  C           1     -21.554  -4.900  -8.558  0.00  0.00     0.224 C 
BRANCH   6   7
HETATM    7  O           1     -22.492  -3.860  -8.518  0.00  0.00    -0.287 OA
BRANCH   7   8
HETATM    8  P           1     -23.490  -3.758  -9.783  0.00  0.00     0.406 P 
HETATM    9  O           1     -22.771  -3.162 -10.931  0.00  0.00    -0.624 OA
HETATM   10  O           1     -23.967  -5.111 -10.146  0.00  0.00    -0.624 OA
BRANCH   8  11
HETATM   11  O           1     -24.753  -2.828  -9.399  0.00  0.00    -0.300 OA
HETATM   12  H           1     -24.498  -2.382  -8.609  0.00  0.00     0.223 HD
ENDBRANCH   8  11
ENDBRANCH   7   8
ENDBRANCH   6   7
ENDBRANCH   5   6
BRANCH   5  13
HETATM   13  N           1     -22.460  -4.947  -6.263  0.00  0.00    -0.064 N 
HETATM   14  H           1     -23.317  -4.588  -6.743  0.00  0.00     0.275 HD
HETATM   15  H           1     -22.740  -5.597  -5.494  0.00  0.00     0.275 HD
HETATM   16  H           1     -21.923  -4.145  -5.864  0.00  0.00     0.275 HD
ENDBRANCH   5  13
ENDBRANCH   3   5
BRANCH   2  17
HETATM   17  C           1     -19.847  -7.757  -5.250  0.00  0.00     0.189 C 
BRANCH  17  18
HETATM   18  C           1     -19.185  -9.111  -5.318  0.00  0.00     0.197 C 
HETATM   19  O           1     -19.776 -10.069  -5.862  0.00  0.00    -0.646 OA
HETATM   20  O           1     -18.045  -9.276  -4.832  0.00  0.00    -0.646 OA
ENDBRANCH  17  18
BRANCH  17  21
HETATM   21  C           1     -21.334  -7.933  -4.976  0.00  0.00     0.074 C 
BRANCH  21  22
HETATM   22  C           1     -21.607  -7.687  -3.524  0.00  0.00    -0.056 A 
HETATM   23  C           1     -21.903  -6.399  -3.079  0.00  0.00     0.007 A 
HETATM   24  C           1     -22.158  -6.170  -1.726  0.00  0.00     0.001 A 
HETATM   25  C           1     -22.117  -7.229  -0.820  0.00  0.00     0.000 A 
HETATM   26  C           1     -21.822  -8.517  -1.266  0.00  0.00     0.001 A 
HETATM   27  C           1     -21.567  -8.747  -2.618  0.00  0.00     0.007 A 
ENDBRANCH  21  22
ENDBRANCH  17  21
ENDBRANCH   2  17
TORSDOF 10
ENDMDL
MODEL 2
REMARK VINA RESULT:      -6.9      3.680      7.369
REMARK  10 active torsions:
REMARK  status: ('A' for Active; 'I' for Inactive)
REMARK    1  A    between atoms: C_2  and  C_9 
REMARK    2  A    between atoms: C_9  and  C_10 
REMARK    3  A    between atoms: C_9  and  N_17 
REMARK    4  A    between atoms: C_10  and  C_11 
REMARK       I    between atoms: N_17  and  C_18 
REMARK    5  A    between atoms: C_18  and  C_19 
REMARK    6  A    between atoms: C_19  and  C_20 
REMARK    7  A    between atoms: C_19  and  N_26 
REMARK    8  A    between atoms: C_20  and  O_21 
REMARK    9  A    between atoms: O_21  and  P_22 
REMARK   10  A    between atoms: P_22  and  O_23 
ROOT
HETATM    1  H           1     -23.259  -5.544  -5.496  0.00  0.00     0.163 HD
HETATM    2  N           1     -22.305  -5.865  -5.602  0.00  0.00    -0.344 N 
HETATM    3  C           1     -21.692  -6.540  -4.580  0.00  0.00     0.251 C 
HETATM    4  O           1     -21.074  -5.930  -3.739  0.00  0.00    -0.271 OA
ENDROOT
BRANCH   3   5
HETATM    5  C           1     -21.790  -8.044  -4.504  0.00  0.00     0.298 C 
BRANCH   5   6
HETATM    6  C           1     -21.119  -8.532  -3.226  0.00  0.00     0.224 C 
BRANCH   6   7
HETATM    7  O           1     -22.098  -8.921  -2.303  0.00  0.00    -0.287 OA
BRANCH   7   8
HETATM    8  P           1     -22.094  -8.135  -0.893  0.00  0.00     0.406 P 
HETATM    9  O           1     -23.038  -8.790   0.041  0.00  0.00    -0.624 OA
HETATM   10  O           1     -20.731  -8.162  -0.317  0.00  0.00    -0.624 OA
BRANCH   8  11
HETATM   11  O           1     -22.549  -6.603  -1.128  0.00  0.00    -0.300 OA
HETATM   12  H           1     -23.062  -6.382  -0.370  0.00  0.00     0.223 HD
ENDBRANCH   8  11
ENDBRANCH   7   8
ENDBRANCH   6   7
ENDBRANCH   5   6
BRANCH   5  13
HETATM   13  N           1     -21.103  -8.649  -5.691  0.00  0.00    -0.064 N 
HETATM   14  H           1     -21.625  -9.501  -5.999  0.00  0.00     0.275 HD
HETATM   15  H           1     -21.081  -7.954  -6.472  0.00  0.00     0.275 HD
HETATM   16  H           1     -20.127  -8.914  -5.431  0.00  0.00     0.275 HD
ENDBRANCH   5  13
ENDBRANCH   3   5
BRANCH   2  17
HETATM   17  C           1     -21.586  -5.611  -6.835  0.00  0.00     0.189 C 
BRANCH  17  18
HETATM   18  C           1     -20.101  -5.617  -6.561  0.00  0.00     0.197 C 
HETATM   19  O           1     -19.547  -4.595  -6.100  0.00  0.00    -0.646 OA
HETATM   20  O           1     -19.426  -6.643  -6.794  0.00  0.00    -0.646 OA
ENDBRANCH  17  18
BRANCH  17  21
HETATM   21  C           1     -21.993  -4.252  -7.389  0.00  0.00     0.074 C 
BRANCH  21  22
HETATM   22  C           1     -21.955  -4.292  -8.885  0.00  0.00    -0.056 A 
HETATM   23  C           1     -23.116  -4.572  -9.605  0.00  0.00     0.007 A 
HETATM   24  C           1     -23.081  -4.608 -11.000  0.00  0.00     0.001 A 
HETATM   25  C           1     -21.885  -4.363 -11.673  0.00  0.00     0.000 A 
HETATM   26  C           1     -20.725  -4.081 -10.954  0.00  0.00     0.001 A 
HETATM   27  C           1     -20.759  -4.045  -9.559  0.00  0.00     0.007 A 
ENDBRANCH  21  22
ENDBRANCH  17  21
ENDBRANCH   2  17
TORSDOF 10
ENDMDL
MODEL 3
REMARK VINA RESULT:      -6.6     11.893     14.385
REMARK  10 active torsions:
REMARK  status: ('A' for Active; 'I' for Inactive)
REMARK    1  A    between atoms: C_2  and  C_9 
REMARK    2  A    between atoms: C_9  and  C_10 
REMARK    3  A    between atoms: C_9  and  N_17 
REMARK    4  A    between atoms: C_10  and  C_11 
REMARK       I    between atoms: N_17  and  C_18 
REMARK    5  A    between atoms: C_18  and  C_19 
REMARK    6  A    between atoms: C_19  and  C_20 
REMARK    7  A    between atoms: C_19  and  N_26 
REMARK    8  A    between atoms: C_20  and  O_21 
REMARK    9  A    between atoms: O_21  and  P_22 
REMARK   10  A    between atoms: P_22  and  O_23 
ROOT
HETATM    1  H           1     -27.126  -8.165 -16.847  0.00  0.00     0.163 HD
HETATM    2  N           1     -26.822  -7.206 -16.734  0.00  0.00    -0.344 N 
HETATM    3  C           1     -25.502  -6.930 -16.495  0.00  0.00     0.251 C 
HETATM    4  O           1     -25.093  -6.876 -15.360  0.00  0.00    -0.271 OA
ENDROOT
BRANCH   3   5
HETATM    5  C           1     -24.561  -6.693 -17.651  0.00  0.00     0.298 C 
BRANCH   5   6
HETATM    6  C           1     -25.264  -7.038 -18.957  0.00  0.00     0.224 C 
BRANCH   6   7
HETATM    7  O           1     -24.401  -6.791 -20.033  0.00  0.00    -0.287 OA
BRANCH   7   8
HETATM    8  P           1     -24.445  -7.864 -21.238  0.00  0.00     0.406 P 
HETATM    9  O           1     -25.801  -8.451 -21.327  0.00  0.00    -0.624 OA
HETATM   10  O           1     -24.114  -7.189 -22.513  0.00  0.00    -0.624 OA
BRANCH   8  11
HETATM   11  O           1     -23.370  -9.037 -20.955  0.00  0.00    -0.300 OA
HETATM   12  H           1     -23.838  -9.839 -21.111  0.00  0.00     0.223 HD
ENDBRANCH   8  11
ENDBRANCH   7   8
ENDBRANCH   6   7
ENDBRANCH   5   6
BRANCH   5  13
HETATM   13  N           1     -23.348  -7.561 -17.492  0.00  0.00    -0.064 N 
HETATM   14  H           1     -22.905  -7.715 -18.426  0.00  0.00     0.275 HD
HETATM   15  H           1     -22.665  -7.091 -16.856  0.00  0.00     0.275 HD
HETATM   16  H           1     -23.630  -8.481 -17.085  0.00  0.00     0.275 HD
ENDBRANCH   5  13
ENDBRANCH   3   5
BRANCH   2  17
HETATM   17  C           1     -27.784  -6.124 -16.823  0.00  0.00     0.189 C 
BRANCH  17  18
HETATM   18  C           1     -28.267  -5.768 -15.438  0.00  0.00     0.197 C 
HETATM   19  O           1     -28.174  -4.590 -15.028  0.00  0.00    -0.646 OA
HETATM   20  O           1     -28.761  -6.648 -14.702  0.00  0.00    -0.646 OA
ENDBRANCH  17  18
BRANCH  17  21
HETATM   21  C           1     -28.966  -6.566 -17.675  0.00  0.00     0.074 C 
BRANCH  21  22
HETATM   22  C           1     -30.069  -5.560 -17.559  0.00  0.00    -0.056 A 
HETATM   23  C           1     -31.296  -5.932 -17.012  0.00  0.00     0.007 A 
HETATM   24  C           1     -32.324  -4.994 -16.903  0.00  0.00     0.001 A 
HETATM   25  C           1     -32.123  -3.685 -17.340  0.00  0.00     0.000 A 
HETATM   26  C           1     -30.895  -3.313 -17.885  0.00  0.00     0.001 A 
HETATM   27  C           1     -29.867  -4.250 -17.995  0.00  0.00     0.007 A 
ENDBRANCH  21  22
ENDBRANCH  17  21
ENDBRANCH   2  17
TORSDOF 10
ENDMDL
MODEL 4
REMARK VINA RESULT:      -6.5      3.666      5.078
REMARK  10 active torsions:
REMARK  status: ('A' for Active; 'I' for Inactive)
REMARK    1  A    between atoms: C_2  and  C_9 
REMARK    2  A    between atoms: C_9  and  C_10 
REMARK    3  A    between atoms: C_9  and  N_17 
REMARK    4  A    between atoms: C_10  and  C_11 
REMARK       I    between atoms: N_17  and  C_18 
REMARK    5  A    between atoms: C_18  and  C_19 
REMARK    6  A    between atoms: C_19  and  C_20 
REMARK    7  A    between atoms: C_19  and  N_26 
REMARK    8  A    between atoms: C_20  and  O_21 
REMARK    9  A    between atoms: O_21  and  P_22 
REMARK   10  A    between atoms: P_22  and  O_23 
ROOT
HETATM    1  H           1     -20.095  -7.445  -1.668  0.00  0.00     0.163 HD
HETATM    2  N           1     -21.089  -7.528  -1.840  0.00  0.00    -0.344 N 
HETATM    3  C           1     -21.701  -6.694  -2.736  0.00  0.00     0.251 C 
HETATM    4  O           1     -22.162  -5.641  -2.363  0.00  0.00    -0.271 OA
ENDROOT
BRANCH   3   5
HETATM    5  C           1     -21.800  -7.090  -4.189  0.00  0.00     0.298 C 
BRANCH   5   6
HETATM    6  C           1     -20.451  -6.878  -4.865  0.00  0.00     0.224 C 
BRANCH   6   7
HETATM    7  O           1     -20.274  -5.516  -5.141  0.00  0.00    -0.287 OA
BRANCH   7   8
HETATM    8  P           1     -20.373  -5.090  -6.695  0.00  0.00     0.406 P 
HETATM    9  O           1     -19.044  -4.641  -7.169  0.00  0.00    -0.624 OA
HETATM   10  O           1     -20.818  -6.251  -7.498  0.00  0.00    -0.624 OA
BRANCH   8  11
HETATM   11  O           1     -21.435  -3.884  -6.858  0.00  0.00    -0.300 OA
HETATM   12  H           1     -20.930  -3.097  -6.749  0.00  0.00     0.223 HD
ENDBRANCH   8  11
ENDBRANCH   7   8
ENDBRANCH   6   7
ENDBRANCH   5   6
BRANCH   5  13
HETATM   13  N           1     -22.836  -6.244  -4.867  0.00  0.00    -0.064 N 
HETATM   14  H           1     -23.347  -6.819  -5.575  0.00  0.00     0.275 HD
HETATM   15  H           1     -23.514  -5.886  -4.156  0.00  0.00     0.275 HD
HETATM   16  H           1     -22.371  -5.438  -5.343  0.00  0.00     0.275 HD
ENDBRANCH   5  13
ENDBRANCH   3   5
BRANCH   2  17
HETATM   17  C           1     -21.865  -8.532  -1.138  0.00  0.00     0.189 C 
BRANCH  17  18
HETATM   18  C           1     -22.340  -7.968   0.179  0.00  0.00     0.197 C 
HETATM   19  O           1     -23.506  -7.529   0.287  0.00  0.00    -0.646 OA
HETATM   20  O           1     -21.569  -7.940   1.162  0.00  0.00    -0.646 OA
ENDBRANCH  17  18
BRANCH  17  21
HETATM   21  C           1     -20.997  -9.757  -0.882  0.00  0.00     0.074 C 
BRANCH  21  22
HETATM   22  C           1     -21.856 -10.886  -0.401  0.00  0.00    -0.056 A 
HETATM   23  C           1     -23.108 -11.103  -0.976  0.00  0.00     0.007 A 
HETATM   24  C           1     -23.908 -12.155  -0.529  0.00  0.00     0.001 A 
HETATM   25  C           1     -23.455 -12.989   0.493  0.00  0.00     0.000 A 
HETATM   26  C           1     -22.203 -12.772   1.067  0.00  0.00     0.001 A 
HETATM   27  C           1     -21.403 -11.721   0.620  0.00  0.00     0.007 A 
ENDBRANCH  21  22
ENDBRANCH  17  21
ENDBRANCH   2  17
TORSDOF 10
ENDMDL
MODEL 5
REMARK VINA RESULT:      -6.3      4.435      6.950
REMARK  10 active torsions:
REMARK  status: ('A' for Active; 'I' for Inactive)
REMARK    1  A    between atoms: C_2  and  C_9 
REMARK    2  A    between atoms: C_9  and  C_10 
REMARK    3  A    between atoms: C_9  and  N_17 
REMARK    4  A    between atoms: C_10  and  C_11 
REMARK       I    between atoms: N_17  and  C_18 
REMARK    5  A    between atoms: C_18  and  C_19 
REMARK    6  A    between atoms: C_19  and  C_20 
REMARK    7  A    between atoms: C_19  and  N_26 
REMARK    8  A    between atoms: C_20  and  O_21 
REMARK    9  A    between atoms: O_21  and  P_22 
REMARK   10  A    between atoms: P_22  and  O_23 
ROOT
HETATM    1  H           1     -19.886  -8.716  -2.866  0.00  0.00     0.163 HD
HETATM    2  N           1     -20.228  -8.382  -3.758  0.00  0.00    -0.344 N 
HETATM    3  C           1     -20.129  -9.175  -4.870  0.00  0.00     0.251 C 
HETATM    4  O           1     -19.145  -9.117  -5.568  0.00  0.00    -0.271 OA
ENDROOT
BRANCH   3   5
HETATM    5  C           1     -21.251 -10.121  -5.223  0.00  0.00     0.298 C 
BRANCH   5   6
HETATM    6  C           1     -21.506 -11.064  -4.054  0.00  0.00     0.224 C 
BRANCH   6   7
HETATM    7  O           1     -22.413 -10.472  -3.165  0.00  0.00    -0.287 OA
BRANCH   7   8
HETATM    8  P           1     -22.170 -10.775  -1.598  0.00  0.00     0.406 P 
HETATM    9  O           1     -23.249 -10.150  -0.801  0.00  0.00    -0.624 OA
HETATM   10  O           1     -22.172 -12.238  -1.372  0.00  0.00    -0.624 OA
BRANCH   8  11
HETATM   11  O           1     -20.745 -10.164  -1.146  0.00  0.00    -0.300 OA
HETATM   12  H           1     -20.472  -9.622  -1.866  0.00  0.00     0.223 HD
ENDBRANCH   8  11
ENDBRANCH   7   8
ENDBRANCH   6   7
ENDBRANCH   5   6
BRANCH   5  13
HETATM   13  N           1     -20.868 -10.919  -6.433  0.00  0.00    -0.064 N 
HETATM   14  H           1     -20.065 -11.547  -6.198  0.00  0.00     0.275 HD
HETATM   15  H           1     -21.682 -11.498  -6.741  0.00  0.00     0.275 HD
HETATM   16  H           1     -20.588 -10.272  -7.204  0.00  0.00     0.275 HD
ENDBRANCH   5  13
ENDBRANCH   3   5
BRANCH   2  17
HETATM   17  C           1     -20.822  -7.063  -3.860  0.00  0.00     0.189 C 
BRANCH  17  18
HETATM   18  C           1     -21.586  -6.758  -2.595  0.00  0.00     0.197 C 
HETATM   19  O           1     -21.271  -7.321  -1.523  0.00  0.00    -0.646 OA
HETATM   20  O           1     -22.534  -5.944  -2.617  0.00  0.00    -0.646 OA
ENDBRANCH  17  18
BRANCH  17  21
HETATM   21  C           1     -21.772  -7.025  -5.049  0.00  0.00     0.074 C 
BRANCH  21  22
HETATM   22  C           1     -21.367  -5.923  -5.978  0.00  0.00    -0.056 A 
HETATM   23  C           1     -22.339  -5.122  -6.575  0.00  0.00     0.007 A 
HETATM   24  C           1     -21.961  -4.094  -7.440  0.00  0.00     0.001 A 
HETATM   25  C           1     -20.611  -3.869  -7.707  0.00  0.00     0.000 A 
HETATM   26  C           1     -19.639  -4.670  -7.109  0.00  0.00     0.001 A 
HETATM   27  C           1     -20.016  -5.697  -6.244  0.00  0.00     0.007 A 
ENDBRANCH  21  22
ENDBRANCH  17  21
ENDBRANCH   2  17
TORSDOF 10
ENDMDL
MODEL 6
REMARK VINA RESULT:      -6.2      4.514      6.953
REMARK  10 active torsions:
REMARK  status: ('A' for Active; 'I' for Inactive)
REMARK    1  A    between atoms: C_2  and  C_9 
REMARK    2  A    between atoms: C_9  and  C_10 
REMARK    3  A    between atoms: C_9  and  N_17 
REMARK    4  A    between atoms: C_10  and  C_11 
REMARK       I    between atoms: N_17  and  C_18 
REMARK    5  A    between atoms: C_18  and  C_19 
REMARK    6  A    between atoms: C_19  and  C_20 
REMARK    7  A    between atoms: C_19  and  N_26 
REMARK    8  A    between atoms: C_20  and  O_21 
REMARK    9  A    between atoms: O_21  and  P_22 
REMARK   10  A    between atoms: P_22  and  O_23 
ROOT
HETATM    1  H           1     -19.577  -7.679  -3.170  0.00  0.00     0.163 HD
HETATM    2  N           1     -20.441  -8.180  -3.328  0.00  0.00    -0.344 N 
HETATM    3  C           1     -20.617  -8.896  -4.482  0.00  0.00     0.251 C 
HETATM    4  O           1     -21.100  -8.365  -5.454  0.00  0.00    -0.271 OA
ENDROOT
BRANCH   3   5
HETATM    5  C           1     -20.206 -10.347  -4.539  0.00  0.00     0.298 C 
BRANCH   5   6
HETATM    6  C           1     -18.904 -10.536  -3.771  0.00  0.00     0.224 C 
BRANCH   6   7
HETATM    7  O           1     -17.951  -9.618  -4.231  0.00  0.00    -0.287 OA
BRANCH   7   8
HETATM    8  P           1     -16.406 -10.037  -4.021  0.00  0.00     0.406 P 
HETATM    9  O           1     -16.314 -11.500  -3.820  0.00  0.00    -0.624 OA
HETATM   10  O           1     -15.623  -9.652  -5.217  0.00  0.00    -0.624 OA
BRANCH   8  11
HETATM   11  O           1     -15.814  -9.278  -2.724  0.00  0.00    -0.300 OA
HETATM   12  H           1     -15.966  -8.363  -2.885  0.00  0.00     0.223 HD
ENDBRANCH   8  11
ENDBRANCH   7   8
ENDBRANCH   6   7
ENDBRANCH   5   6
BRANCH   5  13
HETATM   13  N           1     -20.005 -10.753  -5.968  0.00  0.00    -0.064 N 
HETATM   14  H           1     -20.505 -10.082  -6.595  0.00  0.00     0.275 HD
HETATM   15  H           1     -18.984 -10.743  -6.193  0.00  0.00     0.275 HD
HETATM   16  H           1     -20.386 -11.715  -6.114  0.00  0.00     0.275 HD
ENDBRANCH   5  13
ENDBRANCH   3   5
BRANCH   2  17
HETATM   17  C           1     -21.496  -8.141  -2.333  0.00  0.00     0.189 C 
BRANCH  17  18
HETATM   18  C           1     -22.013  -6.729  -2.205  0.00  0.00     0.197 C 
HETATM   19  O           1     -22.535  -6.349  -1.134  0.00  0.00    -0.646 OA
HETATM   20  O           1     -21.921  -5.940  -3.170  0.00  0.00    -0.646 OA
ENDBRANCH  17  18
BRANCH  17  21
HETATM   21  C           1     -20.943  -8.601  -0.991  0.00  0.00     0.074 C 
BRANCH  21  22
HETATM   22  C           1     -21.699  -9.808  -0.526  0.00  0.00    -0.056 A 
HETATM   23  C           1     -21.010 -10.909  -0.019  0.00  0.00     0.007 A 
HETATM   24  C           1     -21.715 -12.033   0.415  0.00  0.00     0.001 A 
HETATM   25  C           1     -23.108 -12.054   0.340  0.00  0.00     0.000 A 
HETATM   26  C           1     -23.796 -10.953  -0.166  0.00  0.00     0.001 A 
HETATM   27  C           1     -23.092  -9.828  -0.600  0.00  0.00     0.007 A 
ENDBRANCH  21  22
ENDBRANCH  17  21
ENDBRANCH   2  17
TORSDOF 10
ENDMDL
MODEL 7
REMARK VINA RESULT:      -6.2      3.478      7.189
REMARK  10 active torsions:
REMARK  status: ('A' for Active; 'I' for Inactive)
REMARK    1  A    between atoms: C_2  and  C_9 
REMARK    2  A    between atoms: C_9  and  C_10 
REMARK    3  A    between atoms: C_9  and  N_17 
REMARK    4  A    between atoms: C_10  and  C_11 
REMARK       I    between atoms: N_17  and  C_18 
REMARK    5  A    between atoms: C_18  and  C_19 
REMARK    6  A    between atoms: C_19  and  C_20 
REMARK    7  A    between atoms: C_19  and  N_26 
REMARK    8  A    between atoms: C_20  and  O_21 
REMARK    9  A    between atoms: O_21  and  P_22 
REMARK   10  A    between atoms: P_22  and  O_23 
ROOT
HETATM    1  H           1     -23.196  -5.501  -5.500  0.00  0.00     0.163 HD
HETATM    2  N           1     -22.241  -5.812  -5.618  0.00  0.00    -0.344 N 
HETATM    3  C           1     -21.600  -6.461  -4.597  0.00  0.00     0.251 C 
HETATM    4  O           1     -20.973  -5.830  -3.780  0.00  0.00    -0.271 OA
ENDROOT
BRANCH   3   5
HETATM    5  C           1     -21.678  -7.965  -4.492  0.00  0.00     0.298 C 
BRANCH   5   6
HETATM    6  C           1     -20.583  -8.466  -3.560  0.00  0.00     0.224 C 
BRANCH   6   7
HETATM    7  O           1     -19.344  -8.394  -4.211  0.00  0.00    -0.287 OA
BRANCH   7   8
HETATM    8  P           1     -18.627  -9.806  -4.527  0.00  0.00     0.406 P 
HETATM    9  O           1     -19.285 -10.879  -3.747  0.00  0.00    -0.624 OA
HETATM   10  O           1     -18.741 -10.105  -5.972  0.00  0.00    -0.624 OA
BRANCH   8  11
HETATM   11  O           1     -17.068  -9.723  -4.116  0.00  0.00    -0.300 OA
HETATM   12  H           1     -16.961 -10.364  -3.434  0.00  0.00     0.223 HD
ENDBRANCH   8  11
ENDBRANCH   7   8
ENDBRANCH   6   7
ENDBRANCH   5   6
BRANCH   5  13
HETATM   13  N           1     -21.492  -8.570  -5.852  0.00  0.00    -0.064 N 
HETATM   14  H           1     -22.129  -8.100  -6.533  0.00  0.00     0.275 HD
HETATM   15  H           1     -20.500  -8.440  -6.157  0.00  0.00     0.275 HD
HETATM   16  H           1     -21.714  -9.590  -5.813  0.00  0.00     0.275 HD
ENDBRANCH   5  13
ENDBRANCH   3   5
BRANCH   2  17
HETATM   17  C           1     -21.548  -5.572  -6.870  0.00  0.00     0.189 C 
BRANCH  17  18
HETATM   18  C           1     -20.058  -5.586  -6.630  0.00  0.00     0.197 C 
HETATM   19  O           1     -19.489  -4.570  -6.173  0.00  0.00    -0.646 OA
HETATM   20  O           1     -19.393  -6.612  -6.887  0.00  0.00    -0.646 OA
ENDBRANCH  17  18
BRANCH  17  21
HETATM   21  C           1     -21.960  -4.215  -7.424  0.00  0.00     0.074 C 
BRANCH  21  22
HETATM   22  C           1     -21.906  -4.249  -8.920  0.00  0.00    -0.056 A 
HETATM   23  C           1     -20.697  -4.027  -9.579  0.00  0.00     0.007 A 
HETATM   24  C           1     -20.646  -4.060 -10.973  0.00  0.00     0.001 A 
HETATM   25  C           1     -21.804  -4.315 -11.707  0.00  0.00     0.000 A 
HETATM   26  C           1     -23.012  -4.537 -11.048  0.00  0.00     0.001 A 
HETATM   27  C           1     -23.064  -4.505  -9.654  0.00  0.00     0.007 A 
ENDBRANCH  21  22
ENDBRANCH  17  21
ENDBRANCH   2  17
TORSDOF 10
ENDMDL
MODEL 8
REMARK VINA RESULT:      -6.2      3.736      6.407
REMARK  10 active torsions:
REMARK  status: ('A' for Active; 'I' for Inactive)
REMARK    1  A    between atoms: C_2  and  C_9 
REMARK    2  A    between atoms: C_9  and  C_10 
REMARK    3  A    between atoms: C_9  and  N_17 
REMARK    4  A    between atoms: C_10  and  C_11 
REMARK       I    between atoms: N_17  and  C_18 
REMARK    5  A    between atoms: C_18  and  C_19 
REMARK    6  A    between atoms: C_19  and  C_20 
REMARK    7  A    between atoms: C_19  and  N_26 
REMARK    8  A    between atoms: C_20  and  O_21 
REMARK    9  A    between atoms: O_21  and  P_22 
REMARK   10  A    between atoms: P_22  and  O_23 
ROOT
HETATM    1  H           1     -19.530  -8.662  -5.634  0.00  0.00     0.163 HD
HETATM    2  N           1     -20.355  -9.097  -5.241  0.00  0.00    -0.344 N 
HETATM    3  C           1     -20.580 -10.434  -5.433  0.00  0.00     0.251 C 
HETATM    4  O           1     -21.211 -10.808  -6.394  0.00  0.00    -0.271 OA
ENDROOT
BRANCH   3   5
HETATM    5  C           1     -20.041 -11.439  -4.445  0.00  0.00     0.298 C 
BRANCH   5   6
HETATM    6  C           1     -18.668 -10.989  -3.961  0.00  0.00     0.224 C 
BRANCH   6   7
HETATM    7  O           1     -17.680 -11.513  -4.805  0.00  0.00    -0.287 OA
BRANCH   7   8
HETATM    8  P           1     -16.711 -10.434  -5.515  0.00  0.00     0.406 P 
HETATM    9  O           1     -15.984  -9.666  -4.479  0.00  0.00    -0.624 OA
HETATM   10  O           1     -15.739 -11.139  -6.381  0.00  0.00    -0.624 OA
BRANCH   8  11
HETATM   11  O           1     -17.595  -9.423  -6.412  0.00  0.00    -0.300 OA
HETATM   12  H           1     -17.806  -8.707  -5.837  0.00  0.00     0.223 HD
ENDBRANCH   8  11
ENDBRANCH   7   8
ENDBRANCH   6   7
ENDBRANCH   5   6
BRANCH   5  13
HETATM   13  N           1     -19.922 -12.778  -5.110  0.00  0.00    -0.064 N 
HETATM   14  H           1     -19.605 -13.488  -4.411  0.00  0.00     0.275 HD
HETATM   15  H           1     -20.852 -13.060  -5.495  0.00  0.00     0.275 HD
HETATM   16  H           1     -19.225 -12.720  -5.887  0.00  0.00     0.275 HD
ENDBRANCH   5  13
ENDBRANCH   3   5
BRANCH   2  17
HETATM   17  C           1     -21.298  -8.307  -4.475  0.00  0.00     0.189 C 
BRANCH  17  18
HETATM   18  C           1     -21.733  -7.114  -5.292  0.00  0.00     0.197 C 
HETATM   19  O           1     -21.229  -6.911  -6.418  0.00  0.00    -0.646 OA
HETATM   20  O           1     -22.595  -6.329  -4.843  0.00  0.00    -0.646 OA
ENDBRANCH  17  18
BRANCH  17  21
HETATM   21  C           1     -20.634  -7.828  -3.192  0.00  0.00     0.074 C 
BRANCH  21  22
HETATM   22  C           1     -21.494  -8.188  -2.020  0.00  0.00    -0.056 A 
HETATM   23  C           1     -21.829  -9.521  -1.785  0.00  0.00     0.007 A 
HETATM   24  C           1     -22.630  -9.857  -0.693  0.00  0.00     0.001 A 
HETATM   25  C           1     -23.095  -8.859   0.164  0.00  0.00     0.000 A 
HETATM   26  C           1     -22.758  -7.527  -0.070  0.00  0.00     0.001 A 
HETATM   27  C           1     -21.958  -7.190  -1.162  0.00  0.00     0.007 A 
ENDBRANCH  21  22
ENDBRANCH  17  21
ENDBRANCH   2  17
TORSDOF 10
ENDMDL
MODEL 9
REMARK VINA RESULT:      -6.0      2.258      3.472
REMARK  10 active torsions:
REMARK  status: ('A' for Active; 'I' for Inactive)
REMARK    1  A    between atoms: C_2  and  C_9 
REMARK    2  A    between atoms: C_9  and  C_10 
REMARK    3  A    between atoms: C_9  and  N_17 
REMARK    4  A    between atoms: C_10  and  C_11 
REMARK       I    between atoms: N_17  and  C_18 
REMARK    5  A    between atoms: C_18  and  C_19 
REMARK    6  A    between atoms: C_19  and  C_20 
REMARK    7  A    between atoms: C_19  and  N_26 
REMARK    8  A    between atoms: C_20  and  O_21 
REMARK    9  A    between atoms: O_21  and  P_22 
REMARK   10  A    between atoms: P_22  and  O_23 
ROOT
HETATM    1  H           1     -21.935  -9.848  -3.329  0.00  0.00     0.163 HD
HETATM    2  N           1     -21.116  -9.439  -3.761  0.00  0.00    -0.344 N 
HETATM    3  C           1     -21.190  -8.940  -5.034  0.00  0.00     0.251 C 
HETATM    4  O           1     -20.956  -9.657  -5.978  0.00  0.00    -0.271 OA
ENDROOT
BRANCH   3   5
HETATM    5  C           1     -21.562  -7.494  -5.257  0.00  0.00     0.298 C 
BRANCH   5   6
HETATM    6  C           1     -20.361  -6.740  -5.812  0.00  0.00     0.224 C 
BRANCH   6   7
HETATM    7  O           1     -20.536  -6.528  -7.186  0.00  0.00    -0.287 OA
BRANCH   7   8
HETATM    8  P           1     -20.829  -5.005  -7.635  0.00  0.00     0.406 P 
HETATM    9  O           1     -22.166  -4.924  -8.266  0.00  0.00    -0.624 OA
HETATM   10  O           1     -20.789  -4.123  -6.447  0.00  0.00    -0.624 OA
BRANCH   8  11
HETATM   11  O           1     -19.706  -4.530  -8.695  0.00  0.00    -0.300 OA
HETATM   12  H           1     -20.151  -4.499  -9.524  0.00  0.00     0.223 HD
ENDBRANCH   8  11
ENDBRANCH   7   8
ENDBRANCH   6   7
ENDBRANCH   5   6
BRANCH   5  13
HETATM   13  N           1     -21.978  -6.880  -3.954  0.00  0.00    -0.064 N 
HETATM   14  H           1     -22.517  -6.003  -4.138  0.00  0.00     0.275 HD
HETATM   15  H           1     -22.581  -7.553  -3.428  0.00  0.00     0.275 HD
HETATM   16  H           1     -21.129  -6.655  -3.388  0.00  0.00     0.275 HD
ENDBRANCH   5  13
ENDBRANCH   3   5
BRANCH   2  17
HETATM   17  C           1     -19.863  -9.381  -3.032  0.00  0.00     0.189 C 
BRANCH  17  18
HETATM   18  C           1     -18.801 -10.129  -3.801  0.00  0.00     0.197 C 
HETATM   19  O           1     -18.867 -11.373  -3.909  0.00  0.00    -0.646 OA
HETATM   20  O           1     -17.856  -9.505  -4.330  0.00  0.00    -0.646 OA
ENDBRANCH  17  18
BRANCH  17  21
HETATM   21  C           1     -20.044 -10.022  -1.663  0.00  0.00     0.074 C 
BRANCH  21  22
HETATM   22  C           1     -21.197  -9.378  -0.958  0.00  0.00    -0.056 A 
HETATM   23  C           1     -22.297 -10.145  -0.576  0.00  0.00     0.007 A 
HETATM   24  C           1     -23.372  -9.544   0.082  0.00  0.00     0.001 A 
HETATM   25  C           1     -23.344  -8.177   0.357  0.00  0.00     0.000 A 
HETATM   26  C           1     -22.244  -7.411  -0.025  0.00  0.00     0.001 A 
HETATM   27  C           1     -21.169  -8.011  -0.682  0.00  0.00     0.007 A 
ENDBRANCH  21  22
ENDBRANCH  17  21
ENDBRANCH   2  17
TORSDOF 10
ENDMDL
