MODEL 1
REMARK VINA RESULT:      -6.4      0.000      0.000
REMARK  9 active torsions:
REMARK  status: ('A' for Active; 'I' for Inactive)
REMARK    1  A    between atoms: C_1  and  C_7 
REMARK    2  A    between atoms: C_5  and  C_13 
REMARK    3  A    between atoms: C_5  and  C_6 
REMARK    4  A    between atoms: C_7  and  C_17 
REMARK    5  A    between atoms: C_7  and  N_10 
REMARK    6  A    between atoms: C_8  and  C_9 
REMARK    7  A    between atoms: C_8  and  C_13 
REMARK    8  A    between atoms: C_8  and  N_15 
REMARK       I    between atoms: C_9  and  N_10 
REMARK    9  A    between atoms: C_16  and  C_17 
ROOT
HETATM    1  O           1     -33.514  -2.209 -10.854  0.00  0.00    -0.271 OA
HETATM    2  C           1     -34.281  -2.841 -11.539  0.00  0.00     0.249 C 
HETATM    3  N           1     -35.409  -2.242 -12.033  0.00  0.00    -0.345 N 
HETATM    4  H           1     -36.053  -2.772 -12.608  0.00  0.00     0.163 HD
ENDROOT
BRANCH   2   5
HETATM    5  C           1     -33.997  -4.289 -11.852  0.00  0.00     0.275 C 
BRANCH   5   6
HETATM    6  C           1     -34.084  -5.111 -10.574  0.00  0.00     0.053 C 
BRANCH   6   7
HETATM    7  C           1     -33.553  -6.515 -10.835  0.00  0.00     0.115 C 
BRANCH   7   8
HETATM    8  C           1     -34.382  -7.517 -10.070  0.00  0.00     0.172 C 
HETATM    9  O           1     -35.468  -7.169  -9.557  0.00  0.00    -0.648 OA
HETATM   10  O           1     -33.985  -8.697  -9.951  0.00  0.00    -0.648 OA
ENDBRANCH   7   8
ENDBRANCH   6   7
ENDBRANCH   5   6
BRANCH   5  11
HETATM   11  N           1     -32.620  -4.414 -12.433  0.00  0.00    -0.066 N 
HETATM   12  H           1     -32.349  -3.510 -12.883  0.00  0.00     0.275 HD
HETATM   13  H           1     -31.940  -4.640 -11.672  0.00  0.00     0.275 HD
HETATM   14  H           1     -32.611  -5.175 -13.148  0.00  0.00     0.275 HD
ENDBRANCH   5  11
ENDBRANCH   2   5
BRANCH   3  15
HETATM   15  C           1     -35.682  -0.850 -11.733  0.00  0.00     0.185 C 
BRANCH  15  16
HETATM   16  C           1     -36.649  -0.766 -10.577  0.00  0.00     0.196 C 
HETATM   17  O           1     -36.240  -0.432  -9.444  0.00  0.00    -0.646 OA
HETATM   18  O           1     -37.858  -1.029 -10.753  0.00  0.00    -0.646 OA
ENDBRANCH  15  16
BRANCH  15  19
HETATM   19  C           1     -36.293  -0.178 -12.955  0.00  0.00     0.040 C 
BRANCH  19  20
HETATM   20  C           1     -35.243  -0.068 -14.054  0.00  0.00    -0.020 C 
HETATM   21  C           1     -35.915  -0.218 -15.413  0.00  0.00     0.009 C 
HETATM   22  C           1     -34.562   1.291 -13.970  0.00  0.00     0.009 C 
ENDBRANCH  19  20
ENDBRANCH  15  19
ENDBRANCH   3  15
TORSDOF 9
ENDMDL
MODEL 2
REMARK VINA RESULT:      -6.4      2.912      6.494
REMARK  9 active torsions:
REMARK  status: ('A' for Active; 'I' for Inactive)
REMARK    1  A    between atoms: C_1  and  C_7 
REMARK    2  A    between atoms: C_5  and  C_13 
REMARK    3  A    between atoms: C_5  and  C_6 
REMARK    4  A    between atoms: C_7  and  C_17 
REMARK    5  A    between atoms: C_7  and  N_10 
REMARK    6  A    between atoms: C_8  and  C_9 
REMARK    7  A    between atoms: C_8  and  C_13 
REMARK    8  A    between atoms: C_8  and  N_15 
REMARK       I    between atoms: C_9  and  N_10 
REMARK    9  A    between atoms: C_16  and  C_17 
ROOT
HETATM    1  O           1     -34.077  -0.917 -11.596  0.00  0.00    -0.271 OA
HETATM    2  C           1     -34.823  -0.903 -12.545  0.00  0.00     0.249 C 
HETATM    3  N           1     -35.021  -2.043 -13.277  0.00  0.00    -0.345 N 
HETATM    4  H           1     -35.647  -2.031 -14.073  0.00  0.00     0.163 HD
ENDROOT
BRANCH   2   5
HETATM    5  C           1     -35.537   0.371 -12.926  0.00  0.00     0.275 C 
BRANCH   5   6
HETATM    6  C           1     -36.672   0.049 -13.889  0.00  0.00     0.053 C 
BRANCH   6   7
HETATM    7  C           1     -36.357   0.632 -15.260  0.00  0.00     0.115 C 
BRANCH   7   8
HETATM    8  C           1     -36.081  -0.488 -16.232  0.00  0.00     0.172 C 
HETATM    9  O           1     -36.925  -0.779 -17.108  0.00  0.00    -0.648 OA
HETATM   10  O           1     -35.008  -1.125 -16.163  0.00  0.00    -0.648 OA
ENDBRANCH   7   8
ENDBRANCH   6   7
ENDBRANCH   5   6
BRANCH   5  11
HETATM   11  N           1     -34.570   1.306 -13.589  0.00  0.00    -0.066 N 
HETATM   12  H           1     -34.988   1.668 -14.476  0.00  0.00     0.275 HD
HETATM   13  H           1     -34.366   2.106 -12.949  0.00  0.00     0.275 HD
HETATM   14  H           1     -33.685   0.796 -13.805  0.00  0.00     0.275 HD
ENDBRANCH   5  11
ENDBRANCH   2   5
BRANCH   3  15
HETATM   15  C           1     -34.336  -3.267 -12.911  0.00  0.00     0.185 C 
BRANCH  15  16
HETATM   16  C           1     -34.372  -4.230 -14.074  0.00  0.00     0.196 C 
HETATM   17  O           1     -33.695  -3.998 -15.099  0.00  0.00    -0.646 OA
HETATM   18  O           1     -35.079  -5.259 -14.011  0.00  0.00    -0.646 OA
ENDBRANCH  15  16
BRANCH  15  19
HETATM   19  C           1     -35.027  -3.897 -11.710  0.00  0.00     0.040 C 
BRANCH  19  20
HETATM   20  C           1     -33.983  -4.494 -10.776  0.00  0.00    -0.020 C 
HETATM   21  C           1     -34.305  -5.962 -10.529  0.00  0.00     0.009 C 
HETATM   22  C           1     -32.606  -4.376 -11.413  0.00  0.00     0.009 C 
ENDBRANCH  19  20
ENDBRANCH  15  19
ENDBRANCH   3  15
TORSDOF 9
ENDMDL
MODEL 3
REMARK VINA RESULT:      -6.2     12.016     13.584
REMARK  9 active torsions:
REMARK  status: ('A' for Active; 'I' for Inactive)
REMARK    1  A    between atoms: C_1  and  C_7 
REMARK    2  A    between atoms: C_5  and  C_13 
REMARK    3  A    between atoms: C_5  and  C_6 
REMARK    4  A    between atoms: C_7  and  C_17 
REMARK    5  A    between atoms: C_7  and  N_10 
REMARK    6  A    between atoms: C_8  and  C_9 
REMARK    7  A    between atoms: C_8  and  C_13 
REMARK    8  A    between atoms: C_8  and  N_15 
REMARK       I    between atoms: C_9  and  N_10 
REMARK    9  A    between atoms: C_16  and  C_17 
ROOT
HETATM    1  O           1     -21.578  -3.360  -7.628  0.00  0.00    -0.271 OA
HETATM    2  C           1     -22.401  -4.232  -7.488  0.00  0.00     0.249 C 
HETATM    3  N           1     -23.245  -4.548  -8.520  0.00  0.00    -0.345 N 
HETATM    4  H           1     -23.935  -5.279  -8.403  0.00  0.00     0.163 HD
ENDROOT
BRANCH   2   5
HETATM    5  C           1     -22.500  -4.974  -6.178  0.00  0.00     0.275 C 
BRANCH   5   6
HETATM    6  C           1     -21.575  -6.182  -6.208  0.00  0.00     0.053 C 
BRANCH   6   7
HETATM    7  C           1     -20.700  -6.184  -4.960  0.00  0.00     0.115 C 
BRANCH   7   8
HETATM    8  C           1     -21.473  -6.772  -3.805  0.00  0.00     0.172 C 
HETATM    9  O           1     -21.960  -6.022  -2.931  0.00  0.00    -0.648 OA
HETATM   10  O           1     -21.627  -8.010  -3.722  0.00  0.00    -0.648 OA
ENDBRANCH   7   8
ENDBRANCH   6   7
ENDBRANCH   5   6
BRANCH   5  11
HETATM   11  N           1     -23.913  -5.432  -5.970  0.00  0.00    -0.066 N 
HETATM   12  H           1     -23.933  -6.474  -5.888  0.00  0.00     0.275 HD
HETATM   13  H           1     -24.292  -5.007  -5.094  0.00  0.00     0.275 HD
HETATM   14  H           1     -24.499  -5.137  -6.783  0.00  0.00     0.275 HD
ENDBRANCH   5  11
ENDBRANCH   2   5
BRANCH   3  15
HETATM   15  C           1     -23.150  -3.835  -9.779  0.00  0.00     0.185 C 
BRANCH  15  16
HETATM   16  C           1     -24.521  -3.357 -10.190  0.00  0.00     0.196 C 
HETATM   17  O           1     -24.957  -3.617 -11.332  0.00  0.00    -0.646 OA
HETATM   18  O           1     -25.220  -2.702  -9.388  0.00  0.00    -0.646 OA
ENDBRANCH  15  16
BRANCH  15  19
HETATM   19  C           1     -22.595  -4.767 -10.848  0.00  0.00     0.040 C 
BRANCH  19  20
HETATM   20  C           1     -21.256  -4.236 -11.341  0.00  0.00    -0.020 C 
HETATM   21  C           1     -21.281  -2.714 -11.337  0.00  0.00     0.009 C 
HETATM   22  C           1     -20.146  -4.729 -10.423  0.00  0.00     0.009 C 
ENDBRANCH  19  20
ENDBRANCH  15  19
ENDBRANCH   3  15
TORSDOF 9
ENDMDL
MODEL 4
REMARK VINA RESULT:      -6.1     13.629     16.287
REMARK  9 active torsions:
REMARK  status: ('A' for Active; 'I' for Inactive)
REMARK    1  A    between atoms: C_1  and  C_7 
REMARK    2  A    between atoms: C_5  and  C_13 
REMARK    3  A    between atoms: C_5  and  C_6 
REMARK    4  A    between atoms: C_7  and  C_17 
REMARK    5  A    between atoms: C_7  and  N_10 
REMARK    6  A    between atoms: C_8  and  C_9 
REMARK    7  A    between atoms: C_8  and  C_13 
REMARK    8  A    between atoms: C_8  and  N_15 
REMARK       I    between atoms: C_9  and  N_10 
REMARK    9  A    between atoms: C_16  and  C_17 
ROOT
HETATM    1  O           1     -19.675  -4.986  -6.896  0.00  0.00    -0.271 OA
HETATM    2  C           1     -20.800  -5.294  -7.209  0.00  0.00     0.249 C 
HETATM    3  N           1     -21.495  -6.201  -6.454  0.00  0.00    -0.345 N 
HETATM    4  H           1     -22.439  -6.459  -6.716  0.00  0.00     0.163 HD
ENDROOT
BRANCH   2   5
HETATM    5  C           1     -21.440  -4.681  -8.430  0.00  0.00     0.275 C 
BRANCH   5   6
HETATM    6  C           1     -20.369  -4.018  -9.285  0.00  0.00     0.053 C 
BRANCH   6   7
HETATM    7  C           1     -20.470  -4.532 -10.716  0.00  0.00     0.115 C 
BRANCH   7   8
HETATM    8  C           1     -21.603  -3.830 -11.424  0.00  0.00     0.172 C 
HETATM    9  O           1     -21.583  -2.587 -11.556  0.00  0.00    -0.648 OA
HETATM   10  O           1     -22.560  -4.491 -11.880  0.00  0.00    -0.648 OA
ENDBRANCH   7   8
ENDBRANCH   6   7
ENDBRANCH   5   6
BRANCH   5  11
HETATM   11  N           1     -22.445  -3.653  -8.003  0.00  0.00    -0.066 N 
HETATM   12  H           1     -23.408  -3.993  -8.227  0.00  0.00     0.275 HD
HETATM   13  H           1     -22.364  -3.493  -6.973  0.00  0.00     0.275 HD
HETATM   14  H           1     -22.266  -2.758  -8.511  0.00  0.00     0.275 HD
ENDBRANCH   5  11
ENDBRANCH   2   5
BRANCH   3  15
HETATM   15  C           1     -20.882  -6.791  -5.281  0.00  0.00     0.185 C 
BRANCH  15  16
HETATM   16  C           1     -20.330  -8.151  -5.632  0.00  0.00     0.196 C 
HETATM   17  O           1     -21.106  -9.121  -5.777  0.00  0.00    -0.646 OA
HETATM   18  O           1     -19.099  -8.308  -5.780  0.00  0.00    -0.646 OA
ENDBRANCH  15  16
BRANCH  15  19
HETATM   19  C           1     -21.924  -6.934  -4.181  0.00  0.00     0.040 C 
BRANCH  19  20
HETATM   20  C           1     -21.242  -6.872  -2.820  0.00  0.00    -0.020 C 
HETATM   21  C           1     -22.096  -6.052  -1.862  0.00  0.00     0.009 C 
HETATM   22  C           1     -21.074  -8.282  -2.272  0.00  0.00     0.009 C 
ENDBRANCH  19  20
ENDBRANCH  15  19
ENDBRANCH   3  15
TORSDOF 9
ENDMDL
MODEL 5
REMARK VINA RESULT:      -6.1      2.666      5.947
REMARK  9 active torsions:
REMARK  status: ('A' for Active; 'I' for Inactive)
REMARK    1  A    between atoms: C_1  and  C_7 
REMARK    2  A    between atoms: C_5  and  C_13 
REMARK    3  A    between atoms: C_5  and  C_6 
REMARK    4  A    between atoms: C_7  and  C_17 
REMARK    5  A    between atoms: C_7  and  N_10 
REMARK    6  A    between atoms: C_8  and  C_9 
REMARK    7  A    between atoms: C_8  and  C_13 
REMARK    8  A    between atoms: C_8  and  N_15 
REMARK       I    between atoms: C_9  and  N_10 
REMARK    9  A    between atoms: C_16  and  C_17 
ROOT
HETATM    1  O           1     -36.697  -1.026 -13.208  0.00  0.00    -0.271 OA
HETATM    2  C           1     -35.686  -0.378 -13.083  0.00  0.00     0.249 C 
HETATM    3  N           1     -34.733  -0.764 -12.178  0.00  0.00    -0.345 N 
HETATM    4  H           1     -33.885  -0.220 -12.074  0.00  0.00     0.163 HD
ENDROOT
BRANCH   2   5
HETATM    5  C           1     -35.472   0.858 -13.923  0.00  0.00     0.275 C 
BRANCH   5   6
HETATM    6  C           1     -36.378   0.804 -15.145  0.00  0.00     0.053 C 
BRANCH   6   7
HETATM    7  C           1     -35.608   0.222 -16.324  0.00  0.00     0.115 C 
BRANCH   7   8
HETATM    8  C           1     -35.977  -1.231 -16.498  0.00  0.00     0.172 C 
HETATM    9  O           1     -35.087  -2.109 -16.475  0.00  0.00    -0.648 OA
HETATM   10  O           1     -37.172  -1.557 -16.663  0.00  0.00    -0.648 OA
ENDBRANCH   7   8
ENDBRANCH   6   7
ENDBRANCH   5   6
BRANCH   5  11
HETATM   11  N           1     -34.040   0.919 -14.365  0.00  0.00    -0.066 N 
HETATM   12  H           1     -33.820   0.081 -14.949  0.00  0.00     0.275 HD
HETATM   13  H           1     -33.887   1.785 -14.929  0.00  0.00     0.275 HD
HETATM   14  H           1     -33.417   0.932 -13.527  0.00  0.00     0.275 HD
ENDBRANCH   5  11
ENDBRANCH   2   5
BRANCH   3  15
HETATM   15  C           1     -34.937  -1.951 -11.372  0.00  0.00     0.185 C 
BRANCH  15  16
HETATM   16  C           1     -35.955  -1.658 -10.297  0.00  0.00     0.196 C 
HETATM   17  O           1     -36.977  -2.370 -10.194  0.00  0.00    -0.646 OA
HETATM   18  O           1     -35.775  -0.705  -9.509  0.00  0.00    -0.646 OA
ENDBRANCH  15  16
BRANCH  15  19
HETATM   19  C           1     -33.620  -2.359 -10.726  0.00  0.00     0.040 C 
BRANCH  19  20
HETATM   20  C           1     -33.230  -3.753 -11.200  0.00  0.00    -0.020 C 
HETATM   21  C           1     -34.049  -4.792 -10.445  0.00  0.00     0.009 C 
HETATM   22  C           1     -33.503  -3.877 -12.692  0.00  0.00     0.009 C 
ENDBRANCH  19  20
ENDBRANCH  15  19
ENDBRANCH   3  15
TORSDOF 9
ENDMDL
MODEL 6
REMARK VINA RESULT:      -5.9      4.222      6.007
REMARK  9 active torsions:
REMARK  status: ('A' for Active; 'I' for Inactive)
REMARK    1  A    between atoms: C_1  and  C_7 
REMARK    2  A    between atoms: C_5  and  C_13 
REMARK    3  A    between atoms: C_5  and  C_6 
REMARK    4  A    between atoms: C_7  and  C_17 
REMARK    5  A    between atoms: C_7  and  N_10 
REMARK    6  A    between atoms: C_8  and  C_9 
REMARK    7  A    between atoms: C_8  and  C_13 
REMARK    8  A    between atoms: C_8  and  N_15 
REMARK       I    between atoms: C_9  and  N_10 
REMARK    9  A    between atoms: C_16  and  C_17 
ROOT
HETATM    1  O           1     -35.024  -5.157 -14.256  0.00  0.00    -0.271 OA
HETATM    2  C           1     -34.274  -4.314 -14.686  0.00  0.00     0.249 C 
HETATM    3  N           1     -33.983  -3.209 -13.932  0.00  0.00    -0.345 N 
HETATM    4  H           1     -33.354  -2.502 -14.293  0.00  0.00     0.163 HD
ENDROOT
BRANCH   2   5
HETATM    5  C           1     -33.657  -4.478 -16.053  0.00  0.00     0.275 C 
BRANCH   5   6
HETATM    6  C           1     -32.155  -4.676 -15.912  0.00  0.00     0.053 C 
BRANCH   6   7
HETATM    7  C           1     -31.547  -4.958 -17.281  0.00  0.00     0.115 C 
BRANCH   7   8
HETATM    8  C           1     -30.531  -3.892 -17.610  0.00  0.00     0.172 C 
HETATM    9  O           1     -30.820  -2.685 -17.458  0.00  0.00    -0.648 OA
HETATM   10  O           1     -29.400  -4.216 -18.032  0.00  0.00    -0.648 OA
ENDBRANCH   7   8
ENDBRANCH   6   7
ENDBRANCH   5   6
BRANCH   5  11
HETATM   11  N           1     -33.925  -3.250 -16.872  0.00  0.00    -0.066 N 
HETATM   12  H           1     -33.349  -2.457 -16.508  0.00  0.00     0.275 HD
HETATM   13  H           1     -33.671  -3.435 -17.869  0.00  0.00     0.275 HD
HETATM   14  H           1     -34.938  -3.003 -16.808  0.00  0.00     0.275 HD
ENDBRANCH   5  11
ENDBRANCH   2   5
BRANCH   3  15
HETATM   15  C           1     -34.575  -3.051 -12.618  0.00  0.00     0.185 C 
BRANCH  15  16
HETATM   16  C           1     -35.124  -1.652 -12.480  0.00  0.00     0.196 C 
HETATM   17  O           1     -36.170  -1.328 -13.084  0.00  0.00    -0.646 OA
HETATM   18  O           1     -34.534  -0.817 -11.761  0.00  0.00    -0.646 OA
ENDBRANCH  15  16
BRANCH  15  19
HETATM   19  C           1     -33.514  -3.287 -11.552  0.00  0.00     0.040 C 
BRANCH  19  20
HETATM   20  C           1     -33.940  -4.444 -10.657  0.00  0.00    -0.020 C 
HETATM   21  C           1     -35.454  -4.595 -10.710  0.00  0.00     0.009 C 
HETATM   22  C           1     -33.284  -5.729 -11.143  0.00  0.00     0.009 C 
ENDBRANCH  19  20
ENDBRANCH  15  19
ENDBRANCH   3  15
TORSDOF 9
ENDMDL
MODEL 7
REMARK VINA RESULT:      -5.9     13.585     15.410
REMARK  9 active torsions:
REMARK  status: ('A' for Active; 'I' for Inactive)
REMARK    1  A    between atoms: C_1  and  C_7 
REMARK    2  A    between atoms: C_5  and  C_13 
REMARK    3  A    between atoms: C_5  and  C_6 
REMARK    4  A    between atoms: C_7  and  C_17 
REMARK    5  A    between atoms: C_7  and  N_10 
REMARK    6  A    between atoms: C_8  and  C_9 
REMARK    7  A    between atoms: C_8  and  C_13 
REMARK    8  A    between atoms: C_8  and  N_15 
REMARK       I    between atoms: C_9  and  N_10 
REMARK    9  A    between atoms: C_16  and  C_17 
ROOT
HETATM    1  O           1     -20.886  -7.557  -6.377  0.00  0.00    -0.271 OA
HETATM    2  C           1     -21.483  -6.802  -5.648  0.00  0.00     0.249 C 
HETATM    3  N           1     -21.723  -5.514  -6.046  0.00  0.00    -0.345 N 
HETATM    4  H           1     -22.224  -4.881  -5.434  0.00  0.00     0.163 HD
ENDROOT
BRANCH   2   5
HETATM    5  C           1     -21.964  -7.277  -4.298  0.00  0.00     0.275 C 
BRANCH   5   6
HETATM    6  C           1     -21.240  -6.509  -3.202  0.00  0.00     0.053 C 
BRANCH   6   7
HETATM    7  C           1     -22.225  -6.153  -2.095  0.00  0.00     0.115 C 
BRANCH   7   8
HETATM    8  C           1     -22.168  -7.204  -1.014  0.00  0.00     0.172 C 
HETATM    9  O           1     -23.048  -7.237  -0.127  0.00  0.00    -0.648 OA
HETATM   10  O           1     -21.242  -8.043  -1.006  0.00  0.00    -0.648 OA
ENDBRANCH   7   8
ENDBRANCH   6   7
ENDBRANCH   5   6
BRANCH   5  11
HETATM   11  N           1     -21.678  -8.742  -4.154  0.00  0.00    -0.066 N 
HETATM   12  H           1     -21.268  -8.926  -3.211  0.00  0.00     0.275 HD
HETATM   13  H           1     -22.567  -9.282  -4.258  0.00  0.00     0.275 HD
HETATM   14  H           1     -21.001  -9.039  -4.892  0.00  0.00     0.275 HD
ENDBRANCH   5  11
ENDBRANCH   2   5
BRANCH   3  15
HETATM   15  C           1     -21.262  -5.058  -7.342  0.00  0.00     0.185 C 
BRANCH  15  16
HETATM   16  C           1     -19.865  -4.501  -7.210  0.00  0.00     0.196 C 
HETATM   17  O           1     -19.285  -4.025  -8.210  0.00  0.00    -0.646 OA
HETATM   18  O           1     -19.290  -4.513  -6.101  0.00  0.00    -0.646 OA
ENDBRANCH  15  16
BRANCH  15  19
HETATM   19  C           1     -22.195  -3.971  -7.859  0.00  0.00     0.040 C 
BRANCH  19  20
HETATM   20  C           1     -22.899  -4.460  -9.118  0.00  0.00    -0.020 C 
HETATM   21  C           1     -24.164  -3.642  -9.342  0.00  0.00     0.009 C 
HETATM   22  C           1     -21.971  -4.298 -10.313  0.00  0.00     0.009 C 
ENDBRANCH  19  20
ENDBRANCH  15  19
ENDBRANCH   3  15
TORSDOF 9
ENDMDL
MODEL 8
REMARK VINA RESULT:      -5.7      9.654     11.168
REMARK  9 active torsions:
REMARK  status: ('A' for Active; 'I' for Inactive)
REMARK    1  A    between atoms: C_1  and  C_7 
REMARK    2  A    between atoms: C_5  and  C_13 
REMARK    3  A    between atoms: C_5  and  C_6 
REMARK    4  A    between atoms: C_7  and  C_17 
REMARK    5  A    between atoms: C_7  and  N_10 
REMARK    6  A    between atoms: C_8  and  C_9 
REMARK    7  A    between atoms: C_8  and  C_13 
REMARK    8  A    between atoms: C_8  and  N_15 
REMARK       I    between atoms: C_9  and  N_10 
REMARK    9  A    between atoms: C_16  and  C_17 
ROOT
HETATM    1  O           1     -27.308  -6.424 -20.229  0.00  0.00    -0.271 OA
HETATM    2  C           1     -26.604  -6.628 -19.270  0.00  0.00     0.249 C 
HETATM    3  N           1     -27.084  -6.398 -18.008  0.00  0.00    -0.345 N 
HETATM    4  H           1     -26.494  -6.569 -17.203  0.00  0.00     0.163 HD
ENDROOT
BRANCH   2   5
HETATM    5  C           1     -25.196  -7.136 -19.460  0.00  0.00     0.275 C 
BRANCH   5   6
HETATM    6  C           1     -24.291  -6.534 -18.394  0.00  0.00     0.053 C 
BRANCH   6   7
HETATM    7  C           1     -24.233  -7.466 -17.190  0.00  0.00     0.115 C 
BRANCH   7   8
HETATM    8  C           1     -25.021  -6.868 -16.051  0.00  0.00     0.172 C 
HETATM    9  O           1     -24.898  -5.655 -15.775  0.00  0.00    -0.648 OA
HETATM   10  O           1     -25.799  -7.585 -15.385  0.00  0.00    -0.648 OA
ENDBRANCH   7   8
ENDBRANCH   6   7
ENDBRANCH   5   6
BRANCH   5  11
HETATM   11  N           1     -24.701  -6.737 -20.818  0.00  0.00    -0.066 N 
HETATM   12  H           1     -25.380  -7.058 -21.545  0.00  0.00     0.275 HD
HETATM   13  H           1     -24.610  -5.696 -20.864  0.00  0.00     0.275 HD
HETATM   14  H           1     -23.770  -7.177 -20.993  0.00  0.00     0.275 HD
ENDBRANCH   5  11
ENDBRANCH   2   5
BRANCH   3  15
HETATM   15  C           1     -28.437  -5.911 -17.825  0.00  0.00     0.185 C 
BRANCH  15  16
HETATM   16  C           1     -28.396  -4.467 -17.388  0.00  0.00     0.196 C 
HETATM   17  O           1     -29.187  -3.639 -17.890  0.00  0.00    -0.646 OA
HETATM   18  O           1     -27.572  -4.099 -16.523  0.00  0.00    -0.646 OA
ENDBRANCH  15  16
BRANCH  15  19
HETATM   19  C           1     -29.137  -6.744 -16.759  0.00  0.00     0.040 C 
BRANCH  19  20
HETATM   20  C           1     -30.428  -7.318 -17.327  0.00  0.00    -0.020 C 
HETATM   21  C           1     -31.508  -6.244 -17.316  0.00  0.00     0.009 C 
HETATM   22  C           1     -30.191  -7.784 -18.757  0.00  0.00     0.009 C 
ENDBRANCH  19  20
ENDBRANCH  15  19
ENDBRANCH   3  15
TORSDOF 9
ENDMDL
MODEL 9
REMARK VINA RESULT:      -5.6     10.154     12.119
REMARK  9 active torsions:
REMARK  status: ('A' for Active; 'I' for Inactive)
REMARK    1  A    between atoms: C_1  and  C_7 
REMARK    2  A    between atoms: C_5  and  C_13 
REMARK    3  A    between atoms: C_5  and  C_6 
REMARK    4  A    between atoms: C_7  and  C_17 
REMARK    5  A    between atoms: C_7  and  N_10 
REMARK    6  A    between atoms: C_8  and  C_9 
REMARK    7  A    between atoms: C_8  and  C_13 
REMARK    8  A    between atoms: C_8  and  N_15 
REMARK       I    between atoms: C_9  and  N_10 
REMARK    9  A    between atoms: C_16  and  C_17 
ROOT
HETATM    1  O           1     -28.655  -5.167 -19.168  0.00  0.00    -0.271 OA
HETATM    2  C           1     -28.087  -5.951 -18.447  0.00  0.00     0.249 C 
HETATM    3  N           1     -27.207  -6.856 -18.979  0.00  0.00    -0.345 N 
HETATM    4  H           1     -26.730  -7.513 -18.374  0.00  0.00     0.163 HD
ENDROOT
BRANCH   2   5
HETATM    5  C           1     -28.346  -5.935 -16.960  0.00  0.00     0.275 C 
BRANCH   5   6
HETATM    6  C           1     -29.299  -4.797 -16.623  0.00  0.00     0.053 C 
BRANCH   6   7
HETATM    7  C           1     -30.735  -5.304 -16.671  0.00  0.00     0.115 C 
BRANCH   7   8
HETATM    8  C           1     -31.667  -4.150 -16.948  0.00  0.00     0.172 C 
HETATM    9  O           1     -32.833  -4.167 -16.499  0.00  0.00    -0.648 OA
HETATM   10  O           1     -31.272  -3.177 -17.626  0.00  0.00    -0.648 OA
ENDBRANCH   7   8
ENDBRANCH   6   7
ENDBRANCH   5   6
BRANCH   5  11
HETATM   11  N           1     -27.051  -5.736 -16.230  0.00  0.00    -0.066 N 
HETATM   12  H           1     -26.946  -4.727 -15.976  0.00  0.00     0.275 HD
HETATM   13  H           1     -27.049  -6.315 -15.360  0.00  0.00     0.275 HD
HETATM   14  H           1     -26.257  -6.024 -16.844  0.00  0.00     0.275 HD
ENDBRANCH   5  11
ENDBRANCH   2   5
BRANCH   3  15
HETATM   15  C           1     -26.957  -6.871 -20.407  0.00  0.00     0.185 C 
BRANCH  15  16
HETATM   16  C           1     -27.318  -8.226 -20.965  0.00  0.00     0.196 C 
HETATM   17  O           1     -28.350  -8.810 -20.568  0.00  0.00    -0.646 OA
HETATM   18  O           1     -26.588  -8.762 -21.825  0.00  0.00    -0.646 OA
ENDBRANCH  15  16
BRANCH  15  19
HETATM   19  C           1     -25.483  -6.591 -20.667  0.00  0.00     0.040 C 
BRANCH  19  20
HETATM   20  C           1     -24.631  -7.597 -19.904  0.00  0.00    -0.020 C 
HETATM   21  C           1     -23.553  -8.151 -20.827  0.00  0.00     0.009 C 
HETATM   22  C           1     -23.977  -6.910 -18.714  0.00  0.00     0.009 C 
ENDBRANCH  19  20
ENDBRANCH  15  19
ENDBRANCH   3  15
TORSDOF 9
ENDMDL
