MODEL 1
REMARK VINA RESULT:      -6.8      0.000      0.000
REMARK  11 active torsions:
REMARK  status: ('A' for Active; 'I' for Inactive)
REMARK    1  A    between atoms: C_1  and  C_13 
REMARK    2  A    between atoms: C_1  and  C_16 
REMARK    3  A    between atoms: C_1  and  N_6 
REMARK    4  A    between atoms: N_4  and  C_23 
REMARK       I    between atoms: N_4  and  C_13 
REMARK    5  A    between atoms: C_5  and  C_21 
REMARK    6  A    between atoms: C_5  and  N_14 
REMARK    7  A    between atoms: C_7  and  C_22 
REMARK    8  A    between atoms: C_7  and  C_23 
REMARK    9  A    between atoms: C_16  and  C_24 
REMARK   10  A    between atoms: C_18  and  C_23 
REMARK   11  A    between atoms: C_21  and  C_24 
ROOT
HETATM    1  C           1     -34.238  -4.019 -12.463  0.00  0.00     0.274 C 
ENDROOT
BRANCH   1   2
HETATM    2  C           1     -34.380  -2.577 -12.039  0.00  0.00     0.249 C 
HETATM    3  N           1     -35.381  -1.804 -12.565  0.00  0.00    -0.344 N 
HETATM    4  H           1     -36.024  -2.200 -13.238  0.00  0.00     0.163 HD
HETATM    5  O           1     -33.612  -2.106 -11.235  0.00  0.00    -0.271 OA
BRANCH   3   6
HETATM    6  C           1     -35.517  -0.420 -12.158  0.00  0.00     0.189 C 
BRANCH   6   7
HETATM    7  C           1     -35.830   0.438 -13.376  0.00  0.00     0.014 C 
HETATM    8  C           1     -34.561   1.141 -13.841  0.00  0.00     0.012 C 
BRANCH   7   9
HETATM    9  C           1     -36.361  -0.446 -14.496  0.00  0.00     0.002 C 
HETATM   10  C           1     -37.757   0.016 -14.891  0.00  0.00     0.005 C 
ENDBRANCH   7   9
ENDBRANCH   6   7
BRANCH   6  11
HETATM   11  C           1     -36.638  -0.299 -11.155  0.00  0.00     0.197 C 
HETATM   12  O           1     -37.636  -1.048 -11.240  0.00  0.00    -0.646 OA
HETATM   13  O           1     -36.570   0.549 -10.240  0.00  0.00    -0.646 OA
ENDBRANCH   6  11
ENDBRANCH   3   6
ENDBRANCH   1   2
BRANCH   1  14
HETATM   14  C           1     -33.260  -4.728 -11.535  0.00  0.00     0.042 C 
BRANCH  14  15
HETATM   15  C           1     -34.034  -5.463 -10.448  0.00  0.00     0.004 C 
BRANCH  15  16
HETATM   16  C           1     -34.645  -6.731 -11.029  0.00  0.00     0.027 C 
BRANCH  16  17
HETATM   17  C           1     -34.649  -7.826  -9.969  0.00  0.00     0.229 C 
BRANCH  17  18
HETATM   18  N           1     -33.585  -8.834 -10.286  0.00  0.00    -0.079 N 
HETATM   19  H           1     -32.650  -8.443 -10.032  0.00  0.00     0.274 HD
HETATM   20  H           1     -33.758  -9.707  -9.740  0.00  0.00     0.274 HD
HETATM   21  H           1     -33.606  -9.052 -11.308  0.00  0.00     0.274 HD
ENDBRANCH  17  18
ENDBRANCH  16  17
ENDBRANCH  15  16
ENDBRANCH  14  15
ENDBRANCH   1  14
BRANCH   1  22
HETATM   22  N           1     -33.723  -4.077 -13.870  0.00  0.00    -0.067 N 
HETATM   23  H           1     -32.722  -4.376 -13.863  0.00  0.00     0.275 HD
HETATM   24  H           1     -34.288  -4.762 -14.420  0.00  0.00     0.275 HD
HETATM   25  H           1     -33.801  -3.130 -14.308  0.00  0.00     0.275 HD
ENDBRANCH   1  22
TORSDOF 11
ENDMDL
MODEL 2
REMARK VINA RESULT:      -5.8     13.569     16.380
REMARK  11 active torsions:
REMARK  status: ('A' for Active; 'I' for Inactive)
REMARK    1  A    between atoms: C_1  and  C_13 
REMARK    2  A    between atoms: C_1  and  C_16 
REMARK    3  A    between atoms: C_1  and  N_6 
REMARK    4  A    between atoms: N_4  and  C_23 
REMARK       I    between atoms: N_4  and  C_13 
REMARK    5  A    between atoms: C_5  and  C_21 
REMARK    6  A    between atoms: C_5  and  N_14 
REMARK    7  A    between atoms: C_7  and  C_22 
REMARK    8  A    between atoms: C_7  and  C_23 
REMARK    9  A    between atoms: C_16  and  C_24 
REMARK   10  A    between atoms: C_18  and  C_23 
REMARK   11  A    between atoms: C_21  and  C_24 
ROOT
HETATM    1  C           1     -22.082  -4.462  -7.063  0.00  0.00     0.274 C 
ENDROOT
BRANCH   1   2
HETATM    2  C           1     -21.142  -5.264  -6.196  0.00  0.00     0.249 C 
HETATM    3  N           1     -21.606  -6.349  -5.503  0.00  0.00    -0.344 N 
HETATM    4  H           1     -22.580  -6.614  -5.572  0.00  0.00     0.163 HD
HETATM    5  O           1     -19.978  -4.948  -6.116  0.00  0.00    -0.271 OA
BRANCH   3   6
HETATM    6  C           1     -20.702  -7.119  -4.672  0.00  0.00     0.189 C 
BRANCH   6   7
HETATM    7  C           1     -21.407  -7.504  -3.378  0.00  0.00     0.014 C 
HETATM    8  C           1     -20.432  -8.240  -2.468  0.00  0.00     0.012 C 
BRANCH   7   9
HETATM    9  C           1     -21.905  -6.247  -2.678  0.00  0.00     0.002 C 
HETATM   10  C           1     -22.276  -6.579  -1.239  0.00  0.00     0.005 C 
ENDBRANCH   7   9
ENDBRANCH   6   7
BRANCH   6  11
HETATM   11  C           1     -20.283  -8.368  -5.407  0.00  0.00     0.197 C 
HETATM   12  O           1     -21.135  -9.230  -5.711  0.00  0.00    -0.646 OA
HETATM   13  O           1     -19.083  -8.541  -5.714  0.00  0.00    -0.646 OA
ENDBRANCH   6  11
ENDBRANCH   3   6
ENDBRANCH   1   2
BRANCH   1  14
HETATM   14  C           1     -22.100  -5.045  -8.469  0.00  0.00     0.042 C 
BRANCH  14  15
HETATM   15  C           1     -21.726  -3.961  -9.473  0.00  0.00     0.004 C 
BRANCH  15  16
HETATM   16  C           1     -22.790  -3.888 -10.560  0.00  0.00     0.027 C 
BRANCH  16  17
HETATM   17  C           1     -23.991  -4.733 -10.155  0.00  0.00     0.229 C 
BRANCH  17  18
HETATM   18  N           1     -25.128  -3.833  -9.772  0.00  0.00    -0.079 N 
HETATM   19  H           1     -25.531  -3.397 -10.632  0.00  0.00     0.274 HD
HETATM   20  H           1     -25.866  -4.392  -9.286  0.00  0.00     0.274 HD
HETATM   21  H           1     -24.780  -3.085  -9.131  0.00  0.00     0.274 HD
ENDBRANCH  17  18
ENDBRANCH  16  17
ENDBRANCH  15  16
ENDBRANCH  14  15
ENDBRANCH   1  14
BRANCH   1  22
HETATM   22  N           1     -21.617  -3.037  -7.118  0.00  0.00    -0.067 N 
HETATM   23  H           1     -22.404  -2.426  -7.432  0.00  0.00     0.275 HD
HETATM   24  H           1     -21.300  -2.737  -6.168  0.00  0.00     0.275 HD
HETATM   25  H           1     -20.822  -2.957  -7.792  0.00  0.00     0.275 HD
ENDBRANCH   1  22
TORSDOF 11
ENDMDL
MODEL 3
REMARK VINA RESULT:      -5.8      1.915      2.773
REMARK  11 active torsions:
REMARK  status: ('A' for Active; 'I' for Inactive)
REMARK    1  A    between atoms: C_1  and  C_13 
REMARK    2  A    between atoms: C_1  and  C_16 
REMARK    3  A    between atoms: C_1  and  N_6 
REMARK    4  A    between atoms: N_4  and  C_23 
REMARK       I    between atoms: N_4  and  C_13 
REMARK    5  A    between atoms: C_5  and  C_21 
REMARK    6  A    between atoms: C_5  and  N_14 
REMARK    7  A    between atoms: C_7  and  C_22 
REMARK    8  A    between atoms: C_7  and  C_23 
REMARK    9  A    between atoms: C_16  and  C_24 
REMARK   10  A    between atoms: C_18  and  C_23 
REMARK   11  A    between atoms: C_21  and  C_24 
ROOT
HETATM    1  C           1     -33.616  -4.140 -12.072  0.00  0.00     0.274 C 
ENDROOT
BRANCH   1   2
HETATM    2  C           1     -34.501  -3.089 -12.696  0.00  0.00     0.249 C 
HETATM    3  N           1     -35.014  -2.080 -11.926  0.00  0.00    -0.344 N 
HETATM    4  H           1     -34.799  -2.039 -10.938  0.00  0.00     0.163 HD
HETATM    5  O           1     -34.757  -3.138 -13.875  0.00  0.00    -0.271 OA
BRANCH   3   6
HETATM    6  C           1     -35.864  -1.071 -12.525  0.00  0.00     0.189 C 
BRANCH   6   7
HETATM    7  C           1     -36.605  -0.317 -11.429  0.00  0.00     0.014 C 
HETATM    8  C           1     -38.074  -0.179 -11.813  0.00  0.00     0.012 C 
BRANCH   7   9
HETATM    9  C           1     -36.492  -1.084 -10.120  0.00  0.00     0.002 C 
HETATM   10  C           1     -37.326  -0.391  -9.051  0.00  0.00     0.005 C 
ENDBRANCH   7   9
ENDBRANCH   6   7
BRANCH   6  11
HETATM   11  C           1     -35.016  -0.105 -13.316  0.00  0.00     0.197 C 
HETATM   12  O           1     -34.993  -0.170 -14.564  0.00  0.00    -0.646 OA
HETATM   13  O           1     -34.337   0.761 -12.723  0.00  0.00    -0.646 OA
ENDBRANCH   6  11
ENDBRANCH   3   6
ENDBRANCH   1   2
BRANCH   1  14
HETATM   14  C           1     -34.358  -4.819 -10.929  0.00  0.00     0.042 C 
BRANCH  14  15
HETATM   15  C           1     -33.963  -6.289 -10.869  0.00  0.00     0.004 C 
BRANCH  15  16
HETATM   16  C           1     -34.999  -7.061 -10.063  0.00  0.00     0.027 C 
BRANCH  16  17
HETATM   17  C           1     -34.306  -8.150  -9.253  0.00  0.00     0.229 C 
BRANCH  17  18
HETATM   18  N           1     -33.509  -9.026 -10.173  0.00  0.00    -0.079 N 
HETATM   19  H           1     -32.740  -9.485  -9.635  0.00  0.00     0.274 HD
HETATM   20  H           1     -34.132  -9.758 -10.584  0.00  0.00     0.274 HD
HETATM   21  H           1     -33.101  -8.445 -10.940  0.00  0.00     0.274 HD
ENDBRANCH  17  18
ENDBRANCH  16  17
ENDBRANCH  15  16
ENDBRANCH  14  15
ENDBRANCH   1  14
BRANCH   1  22
HETATM   22  N           1     -32.370  -3.492 -11.544  0.00  0.00    -0.067 N 
HETATM   23  H           1     -31.886  -4.149 -10.891  0.00  0.00     0.275 HD
HETATM   24  H           1     -31.734  -3.260 -12.339  0.00  0.00     0.275 HD
HETATM   25  H           1     -32.623  -2.616 -11.032  0.00  0.00     0.275 HD
ENDBRANCH   1  22
TORSDOF 11
ENDMDL
MODEL 4
REMARK VINA RESULT:      -5.7     14.020     16.912
REMARK  11 active torsions:
REMARK  status: ('A' for Active; 'I' for Inactive)
REMARK    1  A    between atoms: C_1  and  C_13 
REMARK    2  A    between atoms: C_1  and  C_16 
REMARK    3  A    between atoms: C_1  and  N_6 
REMARK    4  A    between atoms: N_4  and  C_23 
REMARK       I    between atoms: N_4  and  C_13 
REMARK    5  A    between atoms: C_5  and  C_21 
REMARK    6  A    between atoms: C_5  and  N_14 
REMARK    7  A    between atoms: C_7  and  C_22 
REMARK    8  A    between atoms: C_7  and  C_23 
REMARK    9  A    between atoms: C_16  and  C_24 
REMARK   10  A    between atoms: C_18  and  C_23 
REMARK   11  A    between atoms: C_21  and  C_24 
ROOT
HETATM    1  C           1     -20.544  -5.153  -6.373  0.00  0.00     0.274 C 
ENDROOT
BRANCH   1   2
HETATM    2  C           1     -21.384  -5.978  -5.428  0.00  0.00     0.249 C 
HETATM    3  N           1     -20.780  -6.809  -4.524  0.00  0.00    -0.344 N 
HETATM    4  H           1     -19.771  -6.871  -4.490  0.00  0.00     0.163 HD
HETATM    5  O           1     -22.589  -5.903  -5.469  0.00  0.00    -0.271 OA
BRANCH   3   6
HETATM    6  C           1     -21.587  -7.601  -3.616  0.00  0.00     0.189 C 
BRANCH   6   7
HETATM    7  C           1     -20.954  -8.976  -3.444  0.00  0.00     0.014 C 
HETATM    8  C           1     -21.853 -10.030  -4.077  0.00  0.00     0.012 C 
BRANCH   7   9
HETATM    9  C           1     -19.591  -8.995  -4.122  0.00  0.00     0.002 C 
HETATM   10  C           1     -18.525  -9.392  -3.110  0.00  0.00     0.005 C 
ENDBRANCH   7   9
ENDBRANCH   6   7
BRANCH   6  11
HETATM   11  C           1     -21.661  -6.909  -2.277  0.00  0.00     0.197 C 
HETATM   12  O           1     -21.077  -7.400  -1.287  0.00  0.00    -0.646 OA
HETATM   13  O           1     -22.306  -5.845  -2.158  0.00  0.00    -0.646 OA
ENDBRANCH   6  11
ENDBRANCH   3   6
ENDBRANCH   1   2
BRANCH   1  14
HETATM   14  C           1     -21.437  -4.174  -7.125  0.00  0.00     0.042 C 
BRANCH  14  15
HETATM   15  C           1     -21.032  -4.144  -8.594  0.00  0.00     0.004 C 
BRANCH  15  16
HETATM   16  C           1     -22.264  -3.897  -9.454  0.00  0.00     0.027 C 
BRANCH  16  17
HETATM   17  C           1     -23.520  -4.153  -8.631  0.00  0.00     0.229 C 
BRANCH  17  18
HETATM   18  N           1     -24.618  -3.244  -9.097  0.00  0.00    -0.079 N 
HETATM   19  H           1     -24.227  -2.292  -9.278  0.00  0.00     0.274 HD
HETATM   20  H           1     -25.034  -3.623  -9.977  0.00  0.00     0.274 HD
HETATM   21  H           1     -25.357  -3.185  -8.360  0.00  0.00     0.274 HD
ENDBRANCH  17  18
ENDBRANCH  16  17
ENDBRANCH  15  16
ENDBRANCH  14  15
ENDBRANCH   1  14
BRANCH   1  22
HETATM   22  N           1     -19.860  -6.060  -7.353  0.00  0.00    -0.067 N 
HETATM   23  H           1     -19.222  -5.498  -7.961  0.00  0.00     0.275 HD
HETATM   24  H           1     -19.306  -6.778  -6.835  0.00  0.00     0.275 HD
HETATM   25  H           1     -20.578  -6.535  -7.947  0.00  0.00     0.275 HD
ENDBRANCH   1  22
TORSDOF 11
ENDMDL
MODEL 5
REMARK VINA RESULT:      -5.5      2.010      2.607
REMARK  11 active torsions:
REMARK  status: ('A' for Active; 'I' for Inactive)
REMARK    1  A    between atoms: C_1  and  C_13 
REMARK    2  A    between atoms: C_1  and  C_16 
REMARK    3  A    between atoms: C_1  and  N_6 
REMARK    4  A    between atoms: N_4  and  C_23 
REMARK       I    between atoms: N_4  and  C_13 
REMARK    5  A    between atoms: C_5  and  C_21 
REMARK    6  A    between atoms: C_5  and  N_14 
REMARK    7  A    between atoms: C_7  and  C_22 
REMARK    8  A    between atoms: C_7  and  C_23 
REMARK    9  A    between atoms: C_16  and  C_24 
REMARK   10  A    between atoms: C_18  and  C_23 
REMARK   11  A    between atoms: C_21  and  C_24 
ROOT
HETATM    1  C           1     -33.809  -4.256 -12.421  0.00  0.00     0.274 C 
ENDROOT
BRANCH   1   2
HETATM    2  C           1     -34.774  -3.111 -12.607  0.00  0.00     0.249 C 
HETATM    3  N           1     -34.587  -2.215 -13.625  0.00  0.00    -0.344 N 
HETATM    4  H           1     -33.800  -2.320 -14.252  0.00  0.00     0.163 HD
HETATM    5  O           1     -35.714  -2.987 -11.858  0.00  0.00    -0.271 OA
BRANCH   3   6
HETATM    6  C           1     -35.515  -1.116 -13.803  0.00  0.00     0.189 C 
BRANCH   6   7
HETATM    7  C           1     -34.923   0.150 -13.198  0.00  0.00     0.014 C 
HETATM    8  C           1     -35.042   1.293 -14.198  0.00  0.00     0.012 C 
BRANCH   7   9
HETATM    9  C           1     -35.680   0.506 -11.926  0.00  0.00     0.002 C 
HETATM   10  C           1     -37.108  -0.014 -12.023  0.00  0.00     0.005 C 
ENDBRANCH   7   9
ENDBRANCH   6   7
BRANCH   6  11
HETATM   11  C           1     -35.763  -0.901 -15.276  0.00  0.00     0.197 C 
HETATM   12  O           1     -34.819  -1.000 -16.089  0.00  0.00    -0.646 OA
HETATM   13  O           1     -36.912  -0.625 -15.683  0.00  0.00    -0.646 OA
ENDBRANCH   6  11
ENDBRANCH   3   6
ENDBRANCH   1   2
BRANCH   1  14
HETATM   14  C           1     -34.546  -5.454 -11.837  0.00  0.00     0.042 C 
BRANCH  14  15
HETATM   15  C           1     -33.991  -5.766 -10.453  0.00  0.00     0.004 C 
BRANCH  15  16
HETATM   16  C           1     -34.870  -6.810  -9.777  0.00  0.00     0.027 C 
BRANCH  16  17
HETATM   17  C           1     -34.604  -8.176 -10.397  0.00  0.00     0.229 C 
BRANCH  17  18
HETATM   18  N           1     -33.889  -9.045  -9.406  0.00  0.00    -0.079 N 
HETATM   19  H           1     -32.892  -9.157  -9.697  0.00  0.00     0.274 HD
HETATM   20  H           1     -33.928  -8.600  -8.461  0.00  0.00     0.274 HD
HETATM   21  H           1     -34.351  -9.983  -9.368  0.00  0.00     0.274 HD
ENDBRANCH  17  18
ENDBRANCH  16  17
ENDBRANCH  15  16
ENDBRANCH  14  15
ENDBRANCH   1  14
BRANCH   1  22
HETATM   22  N           1     -32.714  -3.838 -11.485  0.00  0.00    -0.067 N 
HETATM   23  H           1     -32.020  -4.614 -11.392  0.00  0.00     0.275 HD
HETATM   24  H           1     -32.238  -2.988 -11.863  0.00  0.00     0.275 HD
HETATM   25  H           1     -33.122  -3.621 -10.547  0.00  0.00     0.275 HD
ENDBRANCH   1  22
TORSDOF 11
ENDMDL
MODEL 6
REMARK VINA RESULT:      -5.5     14.634     17.015
REMARK  11 active torsions:
REMARK  status: ('A' for Active; 'I' for Inactive)
REMARK    1  A    between atoms: C_1  and  C_13 
REMARK    2  A    between atoms: C_1  and  C_16 
REMARK    3  A    between atoms: C_1  and  N_6 
REMARK    4  A    between atoms: N_4  and  C_23 
REMARK       I    between atoms: N_4  and  C_13 
REMARK    5  A    between atoms: C_5  and  C_21 
REMARK    6  A    between atoms: C_5  and  N_14 
REMARK    7  A    between atoms: C_7  and  C_22 
REMARK    8  A    between atoms: C_7  and  C_23 
REMARK    9  A    between atoms: C_16  and  C_24 
REMARK   10  A    between atoms: C_18  and  C_23 
REMARK   11  A    between atoms: C_21  and  C_24 
ROOT
HETATM    1  C           1     -21.508  -5.461  -7.275  0.00  0.00     0.274 C 
ENDROOT
BRANCH   1   2
HETATM    2  C           1     -20.741  -6.438  -6.419  0.00  0.00     0.249 C 
HETATM    3  N           1     -21.361  -7.065  -5.372  0.00  0.00    -0.344 N 
HETATM    4  H           1     -22.335  -6.872  -5.172  0.00  0.00     0.163 HD
HETATM    5  O           1     -19.579  -6.668  -6.658  0.00  0.00    -0.271 OA
BRANCH   3   6
HETATM    6  C           1     -20.624  -8.003  -4.549  0.00  0.00     0.189 C 
BRANCH   6   7
HETATM    7  C           1     -21.086  -7.881  -3.103  0.00  0.00     0.014 C 
HETATM    8  C           1     -19.974  -8.351  -2.174  0.00  0.00     0.012 C 
BRANCH   7   9
HETATM    9  C           1     -21.423  -6.428  -2.799  0.00  0.00     0.002 C 
HETATM   10  C           1     -22.255  -6.355  -1.526  0.00  0.00     0.005 C 
ENDBRANCH   7   9
ENDBRANCH   6   7
BRANCH   6  11
HETATM   11  C           1     -20.876  -9.408  -5.041  0.00  0.00     0.197 C 
HETATM   12  O           1     -20.125  -9.912  -5.903  0.00  0.00    -0.646 OA
HETATM   13  O           1     -21.836 -10.067  -4.586  0.00  0.00    -0.646 OA
ENDBRANCH   6  11
ENDBRANCH   3   6
ENDBRANCH   1   2
BRANCH   1  14
HETATM   14  C           1     -20.573  -4.354  -7.746  0.00  0.00     0.042 C 
BRANCH  14  15
HETATM   15  C           1     -20.424  -4.425  -9.261  0.00  0.00     0.004 C 
BRANCH  15  16
HETATM   16  C           1     -21.802  -4.405  -9.908  0.00  0.00     0.027 C 
BRANCH  16  17
HETATM   17  C           1     -21.669  -4.017 -11.375  0.00  0.00     0.229 C 
BRANCH  17  18
HETATM   18  N           1     -20.345  -3.350 -11.598  0.00  0.00    -0.079 N 
HETATM   19  H           1     -19.608  -3.846 -11.048  0.00  0.00     0.274 HD
HETATM   20  H           1     -20.103  -3.385 -12.614  0.00  0.00     0.274 HD
HETATM   21  H           1     -20.401  -2.353 -11.288  0.00  0.00     0.274 HD
ENDBRANCH  17  18
ENDBRANCH  16  17
ENDBRANCH  15  16
ENDBRANCH  14  15
ENDBRANCH   1  14
BRANCH   1  22
HETATM   22  N           1     -22.626  -4.864  -6.473  0.00  0.00    -0.067 N 
HETATM   23  H           1     -23.319  -5.608  -6.235  0.00  0.00     0.275 HD
HETATM   24  H           1     -22.241  -4.452  -5.593  0.00  0.00     0.275 HD
HETATM   25  H           1     -23.095  -4.116  -7.032  0.00  0.00     0.275 HD
ENDBRANCH   1  22
TORSDOF 11
ENDMDL
MODEL 7
REMARK VINA RESULT:      -5.2     12.524     14.423
REMARK  11 active torsions:
REMARK  status: ('A' for Active; 'I' for Inactive)
REMARK    1  A    between atoms: C_1  and  C_13 
REMARK    2  A    between atoms: C_1  and  C_16 
REMARK    3  A    between atoms: C_1  and  N_6 
REMARK    4  A    between atoms: N_4  and  C_23 
REMARK       I    between atoms: N_4  and  C_13 
REMARK    5  A    between atoms: C_5  and  C_21 
REMARK    6  A    between atoms: C_5  and  N_14 
REMARK    7  A    between atoms: C_7  and  C_22 
REMARK    8  A    between atoms: C_7  and  C_23 
REMARK    9  A    between atoms: C_16  and  C_24 
REMARK   10  A    between atoms: C_18  and  C_23 
REMARK   11  A    between atoms: C_21  and  C_24 
ROOT
HETATM    1  C           1     -21.207  -5.747  -6.773  0.00  0.00     0.274 C 
ENDROOT
BRANCH   1   2
HETATM    2  C           1     -21.692  -4.585  -7.605  0.00  0.00     0.249 C 
HETATM    3  N           1     -22.349  -4.815  -8.784  0.00  0.00    -0.344 N 
HETATM    4  H           1     -22.509  -5.763  -9.097  0.00  0.00     0.163 HD
HETATM    5  O           1     -21.501  -3.453  -7.231  0.00  0.00    -0.271 OA
BRANCH   3   6
HETATM    6  C           1     -22.815  -3.699  -9.583  0.00  0.00     0.189 C 
BRANCH   6   7
HETATM    7  C           1     -22.198  -3.778 -10.973  0.00  0.00     0.014 C 
HETATM    8  C           1     -21.518  -2.455 -11.303  0.00  0.00     0.012 C 
BRANCH   7   9
HETATM    9  C           1     -21.170  -4.900 -11.008  0.00  0.00     0.002 C 
HETATM   10  C           1     -19.773  -4.314 -10.852  0.00  0.00     0.005 C 
ENDBRANCH   7   9
ENDBRANCH   6   7
BRANCH   6  11
HETATM   11  C           1     -24.319  -3.755  -9.696  0.00  0.00     0.197 C 
HETATM   12  O           1     -24.888  -4.842  -9.930  0.00  0.00    -0.646 OA
HETATM   13  O           1     -24.996  -2.713  -9.555  0.00  0.00    -0.646 OA
ENDBRANCH   6  11
ENDBRANCH   3   6
ENDBRANCH   1   2
BRANCH   1  14
HETATM   14  C           1     -20.877  -5.263  -5.367  0.00  0.00     0.042 C 
BRANCH  14  15
HETATM   15  C           1     -20.764  -6.460  -4.431  0.00  0.00     0.004 C 
BRANCH  15  16
HETATM   16  C           1     -21.925  -6.446  -3.446  0.00  0.00     0.027 C 
BRANCH  16  17
HETATM   17  C           1     -21.461  -7.002  -2.105  0.00  0.00     0.229 C 
BRANCH  17  18
HETATM   18  N           1     -21.552  -8.499  -2.127  0.00  0.00    -0.079 N 
HETATM   19  H           1     -22.385  -8.804  -1.574  0.00  0.00     0.274 HD
HETATM   20  H           1     -21.650  -8.827  -3.114  0.00  0.00     0.274 HD
HETATM   21  H           1     -20.686  -8.907  -1.709  0.00  0.00     0.274 HD
ENDBRANCH  17  18
ENDBRANCH  16  17
ENDBRANCH  15  16
ENDBRANCH  14  15
ENDBRANCH   1  14
BRANCH   1  22
HETATM   22  N           1     -19.977  -6.332  -7.401  0.00  0.00    -0.067 N 
HETATM   23  H           1     -19.854  -5.935  -8.360  0.00  0.00     0.275 HD
HETATM   24  H           1     -19.143  -6.098  -6.818  0.00  0.00     0.275 HD
HETATM   25  H           1     -20.079  -7.370  -7.464  0.00  0.00     0.275 HD
ENDBRANCH   1  22
TORSDOF 11
ENDMDL
MODEL 8
REMARK VINA RESULT:      -5.2     14.985     18.036
REMARK  11 active torsions:
REMARK  status: ('A' for Active; 'I' for Inactive)
REMARK    1  A    between atoms: C_1  and  C_13 
REMARK    2  A    between atoms: C_1  and  C_16 
REMARK    3  A    between atoms: C_1  and  N_6 
REMARK    4  A    between atoms: N_4  and  C_23 
REMARK       I    between atoms: N_4  and  C_13 
REMARK    5  A    between atoms: C_5  and  C_21 
REMARK    6  A    between atoms: C_5  and  N_14 
REMARK    7  A    between atoms: C_7  and  C_22 
REMARK    8  A    between atoms: C_7  and  C_23 
REMARK    9  A    between atoms: C_16  and  C_24 
REMARK   10  A    between atoms: C_18  and  C_23 
REMARK   11  A    between atoms: C_21  and  C_24 
ROOT
HETATM    1  C           1     -21.218  -5.998  -5.438  0.00  0.00     0.274 C 
ENDROOT
BRANCH   1   2
HETATM    2  C           1     -20.318  -7.203  -5.549  0.00  0.00     0.249 C 
HETATM    3  N           1     -20.371  -8.189  -4.600  0.00  0.00    -0.344 N 
HETATM    4  H           1     -21.014  -8.108  -3.823  0.00  0.00     0.163 HD
HETATM    5  O           1     -19.550  -7.300  -6.478  0.00  0.00    -0.271 OA
BRANCH   3   6
HETATM    6  C           1     -19.506  -9.347  -4.708  0.00  0.00     0.189 C 
BRANCH   6   7
HETATM    7  C           1     -18.976  -9.713  -3.329  0.00  0.00     0.014 C 
HETATM    8  C           1     -17.475  -9.456  -3.278  0.00  0.00     0.012 C 
BRANCH   7   9
HETATM    9  C           1     -19.673  -8.863  -2.275  0.00  0.00     0.002 C 
HETATM   10  C           1     -20.458  -9.765  -1.333  0.00  0.00     0.005 C 
ENDBRANCH   7   9
ENDBRANCH   6   7
BRANCH   6  11
HETATM   11  C           1     -20.289 -10.508  -5.271  0.00  0.00     0.197 C 
HETATM   12  O           1     -20.026 -10.946  -6.411  0.00  0.00    -0.646 OA
HETATM   13  O           1     -21.202 -11.032  -4.596  0.00  0.00    -0.646 OA
ENDBRANCH   6  11
ENDBRANCH   3   6
ENDBRANCH   1   2
BRANCH   1  14
HETATM   14  C           1     -20.399  -4.730  -5.643  0.00  0.00     0.042 C 
BRANCH  14  15
HETATM   15  C           1     -20.833  -4.049  -6.936  0.00  0.00     0.004 C 
BRANCH  15  16
HETATM   16  C           1     -22.236  -4.512  -7.307  0.00  0.00     0.027 C 
BRANCH  16  17
HETATM   17  C           1     -22.650  -3.875  -8.627  0.00  0.00     0.229 C 
BRANCH  17  18
HETATM   18  N           1     -24.137  -3.684  -8.645  0.00  0.00    -0.079 N 
HETATM   19  H           1     -24.504  -3.903  -9.599  0.00  0.00     0.274 HD
HETATM   20  H           1     -24.579  -4.323  -7.947  0.00  0.00     0.274 HD
HETATM   21  H           1     -24.364  -2.693  -8.402  0.00  0.00     0.274 HD
ENDBRANCH  17  18
ENDBRANCH  16  17
ENDBRANCH  15  16
ENDBRANCH  14  15
ENDBRANCH   1  14
BRANCH   1  22
HETATM   22  N           1     -21.848  -5.970  -4.077  0.00  0.00    -0.067 N 
HETATM   23  H           1     -21.737  -5.018  -3.661  0.00  0.00     0.275 HD
HETATM   24  H           1     -22.865  -6.197  -4.159  0.00  0.00     0.275 HD
HETATM   25  H           1     -21.382  -6.676  -3.463  0.00  0.00     0.275 HD
ENDBRANCH   1  22
TORSDOF 11
ENDMDL
MODEL 9
REMARK VINA RESULT:      -5.2     16.880     18.975
REMARK  11 active torsions:
REMARK  status: ('A' for Active; 'I' for Inactive)
REMARK    1  A    between atoms: C_1  and  C_13 
REMARK    2  A    between atoms: C_1  and  C_16 
REMARK    3  A    between atoms: C_1  and  N_6 
REMARK    4  A    between atoms: N_4  and  C_23 
REMARK       I    between atoms: N_4  and  C_13 
REMARK    5  A    between atoms: C_5  and  C_21 
REMARK    6  A    between atoms: C_5  and  N_14 
REMARK    7  A    between atoms: C_7  and  C_22 
REMARK    8  A    between atoms: C_7  and  C_23 
REMARK    9  A    between atoms: C_16  and  C_24 
REMARK   10  A    between atoms: C_18  and  C_23 
REMARK   11  A    between atoms: C_21  and  C_24 
ROOT
HETATM    1  C           1     -21.003  -6.613  -4.107  0.00  0.00     0.274 C 
ENDROOT
BRANCH   1   2
HETATM    2  C           1     -20.319  -7.623  -4.996  0.00  0.00     0.249 C 
HETATM    3  N           1     -19.718  -8.723  -4.446  0.00  0.00    -0.344 N 
HETATM    4  H           1     -19.732  -8.859  -3.443  0.00  0.00     0.163 HD
HETATM    5  O           1     -20.302  -7.460  -6.193  0.00  0.00    -0.271 OA
BRANCH   3   6
HETATM    6  C           1     -19.060  -9.692  -5.300  0.00  0.00     0.189 C 
BRANCH   6   7
HETATM    7  C           1     -17.768 -10.155  -4.640  0.00  0.00     0.014 C 
HETATM    8  C           1     -16.592  -9.858  -5.562  0.00  0.00     0.012 C 
BRANCH   7   9
HETATM    9  C           1     -17.579  -9.417  -3.322  0.00  0.00     0.002 C 
HETATM   10  C           1     -16.127  -9.531  -2.879  0.00  0.00     0.005 C 
ENDBRANCH   7   9
ENDBRANCH   6   7
BRANCH   6  11
HETATM   11  C           1     -19.971 -10.877  -5.509  0.00  0.00     0.197 C 
HETATM   12  O           1     -19.836 -11.901  -4.806  0.00  0.00    -0.646 OA
HETATM   13  O           1     -20.861 -10.834  -6.386  0.00  0.00    -0.646 OA
ENDBRANCH   6  11
ENDBRANCH   3   6
ENDBRANCH   1   2
BRANCH   1  14
HETATM   14  C           1     -21.128  -7.177  -2.698  0.00  0.00     0.042 C 
BRANCH  14  15
HETATM   15  C           1     -22.102  -6.324  -1.894  0.00  0.00     0.004 C 
BRANCH  15  16
HETATM   16  C           1     -22.461  -7.045  -0.602  0.00  0.00     0.027 C 
BRANCH  16  17
HETATM   17  C           1     -21.956  -8.481  -0.663  0.00  0.00     0.229 C 
BRANCH  17  18
HETATM   18  N           1     -23.045  -9.413  -0.222  0.00  0.00    -0.079 N 
HETATM   19  H           1     -23.477  -9.051   0.658  0.00  0.00     0.274 HD
HETATM   20  H           1     -23.773  -9.475  -0.968  0.00  0.00     0.274 HD
HETATM   21  H           1     -22.642 -10.362  -0.049  0.00  0.00     0.274 HD
ENDBRANCH  17  18
ENDBRANCH  16  17
ENDBRANCH  15  16
ENDBRANCH  14  15
ENDBRANCH   1  14
BRANCH   1  22
HETATM   22  N           1     -22.370  -6.318  -4.650  0.00  0.00    -0.067 N 
HETATM   23  H           1     -22.755  -7.174  -5.109  0.00  0.00     0.275 HD
HETATM   24  H           1     -23.000  -6.028  -3.869  0.00  0.00     0.275 HD
HETATM   25  H           1     -22.306  -5.545  -5.351  0.00  0.00     0.275 HD
ENDBRANCH   1  22
TORSDOF 11
ENDMDL
