MODEL 1
REMARK VINA RESULT:      -6.1      0.000      0.000
REMARK  10 active torsions:
REMARK  status: ('A' for Active; 'I' for Inactive)
REMARK    1  A    between atoms: C_1  and  C_14 
REMARK    2  A    between atoms: C_1  and  C_2 
REMARK    3  A    between atoms: C_1  and  N_8 
REMARK    4  A    between atoms: C_2  and  C_3 
REMARK    5  A    between atoms: C_3  and  C_4 
REMARK    6  A    between atoms: S_6  and  C_7 
REMARK    7  A    between atoms: C_7  and  C_13 
REMARK    8  A    between atoms: C_13  and  C_22 
REMARK       I    between atoms: C_14  and  N_18 
REMARK    9  A    between atoms: N_18  and  C_22 
REMARK   10  A    between atoms: C_21  and  C_22 
ROOT
HETATM    1  O           1     -36.351  -3.418 -10.737  0.00  0.00    -0.271 OA
HETATM    2  H           1     -34.559  -0.844 -10.749  0.00  0.00     0.163 HD
HETATM    3  C           1     -35.345  -2.756 -10.651  0.00  0.00     0.249 C 
HETATM    4  N           1     -35.403  -1.398 -10.821  0.00  0.00    -0.345 N 
ENDROOT
BRANCH   3   5
HETATM    5  C           1     -34.024  -3.425 -10.358  0.00  0.00     0.275 C 
BRANCH   5   6
HETATM    6  C           1     -33.028  -3.086 -11.457  0.00  0.00     0.053 C 
BRANCH   6   7
HETATM    7  C           1     -32.978  -4.225 -12.467  0.00  0.00     0.115 C 
BRANCH   7   8
HETATM    8  C           1     -34.193  -4.162 -13.359  0.00  0.00     0.172 C 
HETATM    9  O           1     -35.007  -5.110 -13.373  0.00  0.00    -0.648 OA
HETATM   10  O           1     -34.386  -3.161 -14.083  0.00  0.00    -0.648 OA
ENDBRANCH   7   8
ENDBRANCH   6   7
ENDBRANCH   5   6
BRANCH   5  11
HETATM   11  N           1     -34.219  -4.911 -10.301  0.00  0.00    -0.066 N 
HETATM   12  H           1     -34.800  -5.218 -11.114  0.00  0.00     0.275 HD
HETATM   13  H           1     -33.290  -5.386 -10.338  0.00  0.00     0.275 HD
HETATM   14  H           1     -34.706  -5.165  -9.411  0.00  0.00     0.275 HD
ENDBRANCH   5  11
ENDBRANCH   3   5
BRANCH   4  15
HETATM   15  C           1     -36.671  -0.757 -11.103  0.00  0.00     0.186 C 
BRANCH  15  16
HETATM   16  C           1     -36.830   0.467 -10.209  0.00  0.00     0.046 C 
BRANCH  16  17
HETATM   17  C           1     -37.078   0.022  -8.775  0.00  0.00     0.076 C 
BRANCH  17  18
HETATM   18  S           1     -37.697   1.424  -7.803  0.00  0.00    -0.173 SA
HETATM   19  C           1     -37.094   0.834  -6.196  0.00  0.00     0.089 C 
ENDBRANCH  17  18
ENDBRANCH  16  17
ENDBRANCH  15  16
BRANCH  15  20
HETATM   20  C           1     -36.710  -0.332 -12.550  0.00  0.00     0.196 C 
HETATM   21  O           1     -35.833   0.438 -12.999  0.00  0.00    -0.646 OA
HETATM   22  O           1     -37.616  -0.751 -13.301  0.00  0.00    -0.646 OA
ENDBRANCH  15  20
ENDBRANCH   4  15
TORSDOF 10
ENDMDL
MODEL 2
REMARK VINA RESULT:      -5.9      3.008      4.346
REMARK  10 active torsions:
REMARK  status: ('A' for Active; 'I' for Inactive)
REMARK    1  A    between atoms: C_1  and  C_14 
REMARK    2  A    between atoms: C_1  and  C_2 
REMARK    3  A    between atoms: C_1  and  N_8 
REMARK    4  A    between atoms: C_2  and  C_3 
REMARK    5  A    between atoms: C_3  and  C_4 
REMARK    6  A    between atoms: S_6  and  C_7 
REMARK    7  A    between atoms: C_7  and  C_13 
REMARK    8  A    between atoms: C_13  and  C_22 
REMARK       I    between atoms: C_14  and  N_18 
REMARK    9  A    between atoms: N_18  and  C_22 
REMARK   10  A    between atoms: C_21  and  C_22 
ROOT
HETATM    1  O           1     -33.258  -2.340 -11.102  0.00  0.00    -0.271 OA
HETATM    2  H           1     -35.486  -2.272 -13.310  0.00  0.00     0.163 HD
HETATM    3  C           1     -33.960  -2.750 -11.995  0.00  0.00     0.249 C 
HETATM    4  N           1     -34.899  -1.928 -12.560  0.00  0.00    -0.345 N 
ENDROOT
BRANCH   3   5
HETATM    5  C           1     -33.802  -4.167 -12.489  0.00  0.00     0.275 C 
BRANCH   5   6
HETATM    6  C           1     -34.820  -5.063 -11.797  0.00  0.00     0.053 C 
BRANCH   6   7
HETATM    7  C           1     -34.273  -5.505 -10.446  0.00  0.00     0.115 C 
BRANCH   7   8
HETATM    8  C           1     -34.623  -6.953 -10.209  0.00  0.00     0.172 C 
HETATM    9  O           1     -34.961  -7.679 -11.169  0.00  0.00    -0.648 OA
HETATM   10  O           1     -34.575  -7.427  -9.054  0.00  0.00    -0.648 OA
ENDBRANCH   7   8
ENDBRANCH   6   7
ENDBRANCH   5   6
BRANCH   5  11
HETATM   11  N           1     -32.417  -4.653 -12.178  0.00  0.00    -0.066 N 
HETATM   12  H           1     -32.467  -5.424 -11.474  0.00  0.00     0.275 HD
HETATM   13  H           1     -31.969  -5.009 -13.052  0.00  0.00     0.275 HD
HETATM   14  H           1     -31.850  -3.864 -11.791  0.00  0.00     0.275 HD
ENDBRANCH   5  11
ENDBRANCH   3   5
BRANCH   4  15
HETATM   15  C           1     -35.049  -0.567 -12.086  0.00  0.00     0.186 C 
BRANCH  15  16
HETATM   16  C           1     -35.260   0.364 -13.274  0.00  0.00     0.046 C 
BRANCH  16  17
HETATM   17  C           1     -35.879  -0.414 -14.427  0.00  0.00     0.076 C 
BRANCH  17  18
HETATM   18  S           1     -37.639   0.006 -14.566  0.00  0.00    -0.173 SA
HETATM   19  C           1     -37.881  -0.695 -16.222  0.00  0.00     0.089 C 
ENDBRANCH  17  18
ENDBRANCH  16  17
ENDBRANCH  15  16
BRANCH  15  20
HETATM   20  C           1     -36.241  -0.485 -11.165  0.00  0.00     0.196 C 
HETATM   21  O           1     -37.105  -1.389 -11.178  0.00  0.00    -0.646 OA
HETATM   22  O           1     -36.366   0.486 -10.388  0.00  0.00    -0.646 OA
ENDBRANCH  15  20
ENDBRANCH   4  15
TORSDOF 10
ENDMDL
MODEL 3
REMARK VINA RESULT:      -5.9      3.447      5.286
REMARK  10 active torsions:
REMARK  status: ('A' for Active; 'I' for Inactive)
REMARK    1  A    between atoms: C_1  and  C_14 
REMARK    2  A    between atoms: C_1  and  C_2 
REMARK    3  A    between atoms: C_1  and  N_8 
REMARK    4  A    between atoms: C_2  and  C_3 
REMARK    5  A    between atoms: C_3  and  C_4 
REMARK    6  A    between atoms: S_6  and  C_7 
REMARK    7  A    between atoms: C_7  and  C_13 
REMARK    8  A    between atoms: C_13  and  C_22 
REMARK       I    between atoms: C_14  and  N_18 
REMARK    9  A    between atoms: N_18  and  C_22 
REMARK   10  A    between atoms: C_21  and  C_22 
ROOT
HETATM    1  O           1     -37.084  -0.897 -13.375  0.00  0.00    -0.271 OA
HETATM    2  H           1     -33.957  -0.958 -13.614  0.00  0.00     0.163 HD
HETATM    3  C           1     -35.988  -0.594 -13.780  0.00  0.00     0.249 C 
HETATM    4  N           1     -34.876  -1.213 -13.274  0.00  0.00    -0.345 N 
ENDROOT
BRANCH   3   5
HETATM    5  C           1     -35.843   0.468 -14.842  0.00  0.00     0.275 C 
BRANCH   5   6
HETATM    6  C           1     -34.955  -0.052 -15.963  0.00  0.00     0.053 C 
BRANCH   6   7
HETATM    7  C           1     -35.635  -1.232 -16.646  0.00  0.00     0.115 C 
BRANCH   7   8
HETATM    8  C           1     -34.710  -2.423 -16.632  0.00  0.00     0.172 C 
HETATM    9  O           1     -34.851  -3.314 -15.767  0.00  0.00    -0.648 OA
HETATM   10  O           1     -33.803  -2.520 -17.487  0.00  0.00    -0.648 OA
ENDBRANCH   7   8
ENDBRANCH   6   7
ENDBRANCH   5   6
BRANCH   5  11
HETATM   11  N           1     -35.222   1.694 -14.241  0.00  0.00    -0.066 N 
HETATM   12  H           1     -34.220   1.757 -14.533  0.00  0.00     0.275 HD
HETATM   13  H           1     -35.734   2.542 -14.573  0.00  0.00     0.275 HD
HETATM   14  H           1     -35.279   1.638 -13.198  0.00  0.00     0.275 HD
ENDBRANCH   5  11
ENDBRANCH   3   5
BRANCH   4  15
HETATM   15  C           1     -35.016  -2.232 -12.254  0.00  0.00     0.186 C 
BRANCH  15  16
HETATM   16  C           1     -34.070  -3.388 -12.558  0.00  0.00     0.046 C 
BRANCH  16  17
HETATM   17  C           1     -34.715  -4.700 -12.134  0.00  0.00     0.076 C 
BRANCH  17  18
HETATM   18  S           1     -33.553  -5.643 -11.107  0.00  0.00    -0.173 SA
HETATM   19  C           1     -34.810  -6.604 -10.217  0.00  0.00     0.089 C 
ENDBRANCH  17  18
ENDBRANCH  16  17
ENDBRANCH  15  16
BRANCH  15  20
HETATM   20  C           1     -34.676  -1.645 -10.906  0.00  0.00     0.196 C 
HETATM   21  O           1     -33.531  -1.800 -10.428  0.00  0.00    -0.646 OA
HETATM   22  O           1     -35.537  -1.003 -10.268  0.00  0.00    -0.646 OA
ENDBRANCH  15  20
ENDBRANCH   4  15
TORSDOF 10
ENDMDL
MODEL 4
REMARK VINA RESULT:      -5.8     13.974     15.775
REMARK  10 active torsions:
REMARK  status: ('A' for Active; 'I' for Inactive)
REMARK    1  A    between atoms: C_1  and  C_14 
REMARK    2  A    between atoms: C_1  and  C_2 
REMARK    3  A    between atoms: C_1  and  N_8 
REMARK    4  A    between atoms: C_2  and  C_3 
REMARK    5  A    between atoms: C_3  and  C_4 
REMARK    6  A    between atoms: S_6  and  C_7 
REMARK    7  A    between atoms: C_7  and  C_13 
REMARK    8  A    between atoms: C_13  and  C_22 
REMARK       I    between atoms: C_14  and  N_18 
REMARK    9  A    between atoms: N_18  and  C_22 
REMARK   10  A    between atoms: C_21  and  C_22 
ROOT
HETATM    1  O           1     -19.671  -4.492  -6.621  0.00  0.00    -0.271 OA
HETATM    2  H           1     -22.456  -5.931  -6.750  0.00  0.00     0.163 HD
HETATM    3  C           1     -20.776  -4.755  -7.032  0.00  0.00     0.249 C 
HETATM    4  N           1     -21.530  -5.711  -6.406  0.00  0.00    -0.345 N 
ENDROOT
BRANCH   3   5
HETATM    5  C           1     -21.325  -4.030  -8.236  0.00  0.00     0.275 C 
BRANCH   5   6
HETATM    6  C           1     -22.569  -4.749  -8.739  0.00  0.00     0.053 C 
BRANCH   6   7
HETATM    7  C           1     -23.698  -3.743  -8.926  0.00  0.00     0.115 C 
BRANCH   7   8
HETATM    8  C           1     -23.925  -3.508 -10.399  0.00  0.00     0.172 C 
HETATM    9  O           1     -25.065  -3.211 -10.815  0.00  0.00    -0.648 OA
HETATM   10  O           1     -22.973  -3.610 -11.202  0.00  0.00    -0.648 OA
ENDBRANCH   7   8
ENDBRANCH   6   7
ENDBRANCH   5   6
BRANCH   5  11
HETATM   11  N           1     -20.289  -4.006  -9.320  0.00  0.00    -0.066 N 
HETATM   12  H           1     -19.339  -3.923  -8.892  0.00  0.00     0.275 HD
HETATM   13  H           1     -20.344  -4.889  -9.874  0.00  0.00     0.275 HD
HETATM   14  H           1     -20.460  -3.187  -9.948  0.00  0.00     0.275 HD
ENDBRANCH   5  11
ENDBRANCH   3   5
BRANCH   4  15
HETATM   15  C           1     -21.002  -6.407  -5.249  0.00  0.00     0.186 C 
BRANCH  15  16
HETATM   16  C           1     -22.112  -6.602  -4.224  0.00  0.00     0.046 C 
BRANCH  16  17
HETATM   17  C           1     -21.590  -6.255  -2.836  0.00  0.00     0.076 C 
BRANCH  17  18
HETATM   18  S           1     -21.352  -7.778  -1.879  0.00  0.00    -0.173 SA
HETATM   19  C           1     -22.378  -7.287  -0.465  0.00  0.00     0.089 C 
ENDBRANCH  17  18
ENDBRANCH  16  17
ENDBRANCH  15  16
BRANCH  15  20
HETATM   20  C           1     -20.467  -7.753  -5.674  0.00  0.00     0.196 C 
HETATM   21  O           1     -19.282  -7.862  -6.057  0.00  0.00    -0.646 OA
HETATM   22  O           1     -21.207  -8.759  -5.641  0.00  0.00    -0.646 OA
ENDBRANCH  15  20
ENDBRANCH   4  15
TORSDOF 10
ENDMDL
MODEL 5
REMARK VINA RESULT:      -5.6     14.272     16.094
REMARK  10 active torsions:
REMARK  status: ('A' for Active; 'I' for Inactive)
REMARK    1  A    between atoms: C_1  and  C_14 
REMARK    2  A    between atoms: C_1  and  C_2 
REMARK    3  A    between atoms: C_1  and  N_8 
REMARK    4  A    between atoms: C_2  and  C_3 
REMARK    5  A    between atoms: C_3  and  C_4 
REMARK    6  A    between atoms: S_6  and  C_7 
REMARK    7  A    between atoms: C_7  and  C_13 
REMARK    8  A    between atoms: C_13  and  C_22 
REMARK       I    between atoms: C_14  and  N_18 
REMARK    9  A    between atoms: N_18  and  C_22 
REMARK   10  A    between atoms: C_21  and  C_22 
ROOT
HETATM    1  O           1     -20.677  -4.389  -6.198  0.00  0.00    -0.271 OA
HETATM    2  H           1     -22.122  -7.117  -6.757  0.00  0.00     0.163 HD
HETATM    3  C           1     -21.357  -5.193  -6.788  0.00  0.00     0.249 C 
HETATM    4  N           1     -21.551  -6.443  -6.262  0.00  0.00    -0.345 N 
ENDROOT
BRANCH   3   5
HETATM    5  C           1     -21.991  -4.822  -8.106  0.00  0.00     0.275 C 
BRANCH   5   6
HETATM    6  C           1     -21.022  -3.973  -8.916  0.00  0.00     0.053 C 
BRANCH   6   7
HETATM    7  C           1     -20.950  -4.504 -10.342  0.00  0.00     0.115 C 
BRANCH   7   8
HETATM    8  C           1     -21.889  -3.717 -11.221  0.00  0.00     0.172 C 
HETATM    9  O           1     -22.945  -3.247 -10.744  0.00  0.00    -0.648 OA
HETATM   10  O           1     -21.612  -3.534 -12.426  0.00  0.00    -0.648 OA
ENDBRANCH   7   8
ENDBRANCH   6   7
ENDBRANCH   5   6
BRANCH   5  11
HETATM   11  N           1     -23.247  -4.042  -7.853  0.00  0.00    -0.066 N 
HETATM   12  H           1     -23.959  -4.662  -7.405  0.00  0.00     0.275 HD
HETATM   13  H           1     -23.036  -3.240  -7.217  0.00  0.00     0.275 HD
HETATM   14  H           1     -23.621  -3.680  -8.760  0.00  0.00     0.275 HD
ENDBRANCH   5  11
ENDBRANCH   3   5
BRANCH   4  15
HETATM   15  C           1     -20.942  -6.799  -4.996  0.00  0.00     0.186 C 
BRANCH  15  16
HETATM   16  C           1     -22.004  -6.800  -3.904  0.00  0.00     0.046 C 
BRANCH  16  17
HETATM   17  C           1     -21.477  -6.065  -2.680  0.00  0.00     0.076 C 
BRANCH  17  18
HETATM   18  S           1     -22.178  -6.808  -1.179  0.00  0.00    -0.173 SA
HETATM   19  C           1     -21.143  -8.298  -1.192  0.00  0.00     0.089 C 
ENDBRANCH  17  18
ENDBRANCH  16  17
ENDBRANCH  15  16
BRANCH  15  20
HETATM   20  C           1     -20.328  -8.173  -5.103  0.00  0.00     0.196 C 
HETATM   21  O           1     -19.303  -8.453  -4.443  0.00  0.00    -0.646 OA
HETATM   22  O           1     -20.844  -9.032  -5.849  0.00  0.00    -0.646 OA
ENDBRANCH  15  20
ENDBRANCH   4  15
TORSDOF 10
ENDMDL
MODEL 6
REMARK VINA RESULT:      -5.5     15.240     17.042
REMARK  10 active torsions:
REMARK  status: ('A' for Active; 'I' for Inactive)
REMARK    1  A    between atoms: C_1  and  C_14 
REMARK    2  A    between atoms: C_1  and  C_2 
REMARK    3  A    between atoms: C_1  and  N_8 
REMARK    4  A    between atoms: C_2  and  C_3 
REMARK    5  A    between atoms: C_3  and  C_4 
REMARK    6  A    between atoms: S_6  and  C_7 
REMARK    7  A    between atoms: C_7  and  C_13 
REMARK    8  A    between atoms: C_13  and  C_22 
REMARK       I    between atoms: C_14  and  N_18 
REMARK    9  A    between atoms: N_18  and  C_22 
REMARK   10  A    between atoms: C_21  and  C_22 
ROOT
HETATM    1  O           1     -21.883  -7.589  -4.852  0.00  0.00    -0.271 OA
HETATM    2  H           1     -20.726  -4.695  -4.494  0.00  0.00     0.163 HD
HETATM    3  C           1     -21.460  -6.618  -4.272  0.00  0.00     0.249 C 
HETATM    4  N           1     -21.080  -5.509  -4.980  0.00  0.00    -0.345 N 
ENDROOT
BRANCH   3   5
HETATM    5  C           1     -21.349  -6.627  -2.767  0.00  0.00     0.275 C 
BRANCH   5   6
HETATM    6  C           1     -21.508  -8.051  -2.254  0.00  0.00     0.053 C 
BRANCH   6   7
HETATM    7  C           1     -20.727  -8.214  -0.956  0.00  0.00     0.115 C 
BRANCH   7   8
HETATM    8  C           1     -21.684  -8.219   0.210  0.00  0.00     0.172 C 
HETATM    9  O           1     -21.286  -8.565   1.343  0.00  0.00    -0.648 OA
HETATM   10  O           1     -22.875  -7.876   0.044  0.00  0.00    -0.648 OA
ENDBRANCH   7   8
ENDBRANCH   6   7
ENDBRANCH   5   6
BRANCH   5  11
HETATM   11  N           1     -22.426  -5.762  -2.183  0.00  0.00    -0.066 N 
HETATM   12  H           1     -23.355  -6.060  -2.558  0.00  0.00     0.275 HD
HETATM   13  H           1     -22.424  -5.858  -1.142  0.00  0.00     0.275 HD
HETATM   14  H           1     -22.251  -4.764  -2.441  0.00  0.00     0.275 HD
ENDBRANCH   5  11
ENDBRANCH   3   5
BRANCH   4  15
HETATM   15  C           1     -21.187  -5.501  -6.426  0.00  0.00     0.186 C 
BRANCH  15  16
HETATM   16  C           1     -21.706  -4.145  -6.889  0.00  0.00     0.046 C 
BRANCH  16  17
HETATM   17  C           1     -22.867  -4.346  -7.854  0.00  0.00     0.076 C 
BRANCH  17  18
HETATM   18  S           1     -22.276  -4.155  -9.559  0.00  0.00    -0.173 SA
HETATM   19  C           1     -23.811  -4.696 -10.363  0.00  0.00     0.089 C 
ENDBRANCH  17  18
ENDBRANCH  16  17
ENDBRANCH  15  16
BRANCH  15  20
HETATM   20  C           1     -19.829  -5.753  -7.032  0.00  0.00     0.196 C 
HETATM   21  O           1     -19.348  -6.908  -7.030  0.00  0.00    -0.646 OA
HETATM   22  O           1     -19.184  -4.809  -7.536  0.00  0.00    -0.646 OA
ENDBRANCH  15  20
ENDBRANCH   4  15
TORSDOF 10
ENDMDL
MODEL 7
REMARK VINA RESULT:      -5.3     14.631     16.410
REMARK  10 active torsions:
REMARK  status: ('A' for Active; 'I' for Inactive)
REMARK    1  A    between atoms: C_1  and  C_14 
REMARK    2  A    between atoms: C_1  and  C_2 
REMARK    3  A    between atoms: C_1  and  N_8 
REMARK    4  A    between atoms: C_2  and  C_3 
REMARK    5  A    between atoms: C_3  and  C_4 
REMARK    6  A    between atoms: S_6  and  C_7 
REMARK    7  A    between atoms: C_7  and  C_13 
REMARK    8  A    between atoms: C_13  and  C_22 
REMARK       I    between atoms: C_14  and  N_18 
REMARK    9  A    between atoms: N_18  and  C_22 
REMARK   10  A    between atoms: C_21  and  C_22 
ROOT
HETATM    1  O           1     -22.850  -5.828  -5.573  0.00  0.00    -0.271 OA
HETATM    2  H           1     -19.923  -6.757  -4.933  0.00  0.00     0.163 HD
HETATM    3  C           1     -21.647  -5.873  -5.662  0.00  0.00     0.249 C 
HETATM    4  N           1     -20.931  -6.719  -4.857  0.00  0.00    -0.345 N 
ENDROOT
BRANCH   3   5
HETATM    5  C           1     -20.931  -4.998  -6.662  0.00  0.00     0.275 C 
BRANCH   5   6
HETATM    6  C           1     -21.938  -4.092  -7.357  0.00  0.00     0.053 C 
BRANCH   6   7
HETATM    7  C           1     -21.657  -4.073  -8.854  0.00  0.00     0.115 C 
BRANCH   7   8
HETATM    8  C           1     -22.913  -3.693  -9.598  0.00  0.00     0.172 C 
HETATM    9  O           1     -24.022  -3.757  -9.025  0.00  0.00    -0.648 OA
HETATM   10  O           1     -22.844  -3.313 -10.787  0.00  0.00    -0.648 OA
ENDBRANCH   7   8
ENDBRANCH   6   7
ENDBRANCH   5   6
BRANCH   5  11
HETATM   11  N           1     -20.248  -5.860  -7.682  0.00  0.00    -0.066 N 
HETATM   12  H           1     -19.760  -6.649  -7.200  0.00  0.00     0.275 HD
HETATM   13  H           1     -20.958  -6.244  -8.345  0.00  0.00     0.275 HD
HETATM   14  H           1     -19.549  -5.289  -8.209  0.00  0.00     0.275 HD
ENDBRANCH   5  11
ENDBRANCH   3   5
BRANCH   4  15
HETATM   15  C           1     -21.619  -7.559  -3.897  0.00  0.00     0.186 C 
BRANCH  15  16
HETATM   16  C           1     -20.943  -8.924  -3.842  0.00  0.00     0.046 C 
BRANCH  16  17
HETATM   17  C           1     -21.986  -9.998  -3.567  0.00  0.00     0.076 C 
BRANCH  17  18
HETATM   18  S           1     -21.514 -10.937  -2.087  0.00  0.00    -0.173 SA
HETATM   19  C           1     -22.774 -10.227  -0.991  0.00  0.00     0.089 C 
ENDBRANCH  17  18
ENDBRANCH  16  17
ENDBRANCH  15  16
BRANCH  15  20
HETATM   20  C           1     -21.564  -6.915  -2.534  0.00  0.00     0.196 C 
HETATM   21  O           1     -22.320  -5.956  -2.265  0.00  0.00    -0.646 OA
HETATM   22  O           1     -20.764  -7.340  -1.673  0.00  0.00    -0.646 OA
ENDBRANCH  15  20
ENDBRANCH   4  15
TORSDOF 10
ENDMDL
MODEL 8
REMARK VINA RESULT:      -5.2      3.147      5.036
REMARK  10 active torsions:
REMARK  status: ('A' for Active; 'I' for Inactive)
REMARK    1  A    between atoms: C_1  and  C_14 
REMARK    2  A    between atoms: C_1  and  C_2 
REMARK    3  A    between atoms: C_1  and  N_8 
REMARK    4  A    between atoms: C_2  and  C_3 
REMARK    5  A    between atoms: C_3  and  C_4 
REMARK    6  A    between atoms: S_6  and  C_7 
REMARK    7  A    between atoms: C_7  and  C_13 
REMARK    8  A    between atoms: C_13  and  C_22 
REMARK       I    between atoms: C_14  and  N_18 
REMARK    9  A    between atoms: N_18  and  C_22 
REMARK   10  A    between atoms: C_21  and  C_22 
ROOT
HETATM    1  O           1     -37.823  -0.546 -12.877  0.00  0.00    -0.271 OA
HETATM    2  H           1     -35.111  -0.142 -11.355  0.00  0.00     0.163 HD
HETATM    3  C           1     -36.676  -0.212 -12.708  0.00  0.00     0.249 C 
HETATM    4  N           1     -36.074  -0.421 -11.496  0.00  0.00    -0.345 N 
ENDROOT
BRANCH   3   5
HETATM    5  C           1     -35.905   0.436 -13.832  0.00  0.00     0.275 C 
BRANCH   5   6
HETATM    6  C           1     -35.448  -0.631 -14.816  0.00  0.00     0.053 C 
BRANCH   6   7
HETATM    7  C           1     -35.942  -0.280 -16.214  0.00  0.00     0.115 C 
BRANCH   7   8
HETATM    8  C           1     -37.450  -0.281 -16.230  0.00  0.00     0.172 C 
HETATM    9  O           1     -38.075  -1.362 -16.174  0.00  0.00    -0.648 OA
HETATM   10  O           1     -38.075   0.800 -16.299  0.00  0.00    -0.648 OA
ENDBRANCH   7   8
ENDBRANCH   6   7
ENDBRANCH   5   6
BRANCH   5  11
HETATM   11  N           1     -34.708   1.145 -13.272  0.00  0.00    -0.066 N 
HETATM   12  H           1     -35.014   2.023 -12.794  0.00  0.00     0.275 HD
HETATM   13  H           1     -34.226   0.525 -12.583  0.00  0.00     0.275 HD
HETATM   14  H           1     -34.049   1.383 -14.048  0.00  0.00     0.275 HD
ENDBRANCH   5  11
ENDBRANCH   3   5
BRANCH   4  15
HETATM   15  C           1     -36.814  -1.044 -10.417  0.00  0.00     0.186 C 
BRANCH  15  16
HETATM   16  C           1     -36.149  -2.362 -10.040  0.00  0.00     0.046 C 
BRANCH  16  17
HETATM   17  C           1     -35.431  -2.936 -11.253  0.00  0.00     0.076 C 
BRANCH  17  18
HETATM   18  S           1     -33.718  -3.341 -10.808  0.00  0.00    -0.173 SA
HETATM   19  C           1     -33.998  -5.113 -10.534  0.00  0.00     0.089 C 
ENDBRANCH  17  18
ENDBRANCH  16  17
ENDBRANCH  15  16
BRANCH  15  20
HETATM   20  C           1     -36.827  -0.125  -9.220  0.00  0.00     0.196 C 
HETATM   21  O           1     -36.287   1.000  -9.290  0.00  0.00    -0.646 OA
HETATM   22  O           1     -37.377  -0.489  -8.159  0.00  0.00    -0.646 OA
ENDBRANCH  15  20
ENDBRANCH   4  15
TORSDOF 10
ENDMDL
MODEL 9
REMARK VINA RESULT:      -5.2     14.517     16.232
REMARK  10 active torsions:
REMARK  status: ('A' for Active; 'I' for Inactive)
REMARK    1  A    between atoms: C_1  and  C_14 
REMARK    2  A    between atoms: C_1  and  C_2 
REMARK    3  A    between atoms: C_1  and  N_8 
REMARK    4  A    between atoms: C_2  and  C_3 
REMARK    5  A    between atoms: C_3  and  C_4 
REMARK    6  A    between atoms: S_6  and  C_7 
REMARK    7  A    between atoms: C_7  and  C_13 
REMARK    8  A    between atoms: C_13  and  C_22 
REMARK       I    between atoms: C_14  and  N_18 
REMARK    9  A    between atoms: N_18  and  C_22 
REMARK   10  A    between atoms: C_21  and  C_22 
ROOT
HETATM    1  O           1     -23.045  -4.896  -6.447  0.00  0.00    -0.271 OA
HETATM    2  H           1     -20.237  -6.157  -5.844  0.00  0.00     0.163 HD
HETATM    3  C           1     -21.859  -5.089  -6.560  0.00  0.00     0.249 C 
HETATM    4  N           1     -21.231  -5.995  -5.748  0.00  0.00    -0.345 N 
ENDROOT
BRANCH   3   5
HETATM    5  C           1     -21.067  -4.329  -7.597  0.00  0.00     0.275 C 
BRANCH   5   6
HETATM    6  C           1     -21.933  -4.095  -8.826  0.00  0.00     0.053 C 
BRANCH   6   7
HETATM    7  C           1     -21.098  -4.305 -10.084  0.00  0.00     0.115 C 
BRANCH   7   8
HETATM    8  C           1     -21.835  -3.748 -11.276  0.00  0.00     0.172 C 
HETATM    9  O           1     -22.652  -4.464 -11.896  0.00  0.00    -0.648 OA
HETATM   10  O           1     -21.630  -2.571 -11.645  0.00  0.00    -0.648 OA
ENDBRANCH   7   8
ENDBRANCH   6   7
ENDBRANCH   5   6
BRANCH   5  11
HETATM   11  N           1     -19.857  -5.127  -7.983  0.00  0.00    -0.066 N 
HETATM   12  H           1     -18.995  -4.636  -7.650  0.00  0.00     0.275 HD
HETATM   13  H           1     -19.908  -6.073  -7.544  0.00  0.00     0.275 HD
HETATM   14  H           1     -19.821  -5.225  -9.023  0.00  0.00     0.275 HD
ENDBRANCH   5  11
ENDBRANCH   3   5
BRANCH   4  15
HETATM   15  C           1     -21.992  -6.724  -4.753  0.00  0.00     0.186 C 
BRANCH  15  16
HETATM   16  C           1     -21.557  -8.185  -4.751  0.00  0.00     0.046 C 
BRANCH  16  17
HETATM   17  C           1     -20.081  -8.277  -5.111  0.00  0.00     0.076 C 
BRANCH  17  18
HETATM   18  S           1     -19.193  -9.172  -3.805  0.00  0.00    -0.173 SA
HETATM   19  C           1     -20.666  -9.668  -2.868  0.00  0.00     0.089 C 
ENDBRANCH  17  18
ENDBRANCH  16  17
ENDBRANCH  15  16
BRANCH  15  20
HETATM   20  C           1     -21.744  -6.124  -3.391  0.00  0.00     0.196 C 
HETATM   21  O           1     -22.611  -6.224  -2.496  0.00  0.00    -0.646 OA
HETATM   22  O           1     -20.672  -5.526  -3.157  0.00  0.00    -0.646 OA
ENDBRANCH  15  20
ENDBRANCH   4  15
TORSDOF 10
ENDMDL
