MODEL 1
REMARK VINA RESULT:      -6.3      0.000      0.000
REMARK  7 active torsions:
REMARK  status: ('A' for Active; 'I' for Inactive)
REMARK    1  A    between atoms: N_2  and  C_12 
REMARK    2  A    between atoms: C_5  and  C_19 
REMARK    3  A    between atoms: C_5  and  C_13 
REMARK    4  A    between atoms: C_10  and  C_13 
REMARK    5  A    between atoms: C_11  and  C_12 
REMARK    6  A    between atoms: C_12  and  C_14 
REMARK    7  A    between atoms: C_13  and  N_18 
REMARK       I    between atoms: C_14  and  N_18 
ROOT
HETATM    1  H           1     -23.423  -5.497  -8.709  0.00  0.00     0.163 HD
HETATM    2  C           1     -22.211  -4.191  -7.656  0.00  0.00     0.249 C 
HETATM    3  O           1     -21.615  -3.140  -7.698  0.00  0.00    -0.271 OA
HETATM    4  N           1     -22.924  -4.617  -8.744  0.00  0.00    -0.345 N 
ENDROOT
BRANCH   2   5
HETATM    5  C           1     -22.167  -5.032  -6.404  0.00  0.00     0.278 C 
BRANCH   5   6
HETATM    6  N           1     -23.564  -5.418  -6.014  0.00  0.00    -0.066 N 
HETATM    7  H           1     -23.929  -4.740  -5.308  0.00  0.00     0.275 HD
HETATM    8  H           1     -24.178  -5.403  -6.860  0.00  0.00     0.275 HD
HETATM    9  H           1     -23.558  -6.380  -5.604  0.00  0.00     0.275 HD
ENDBRANCH   5   6
BRANCH   5  10
HETATM   10  C           1     -21.347  -6.288  -6.662  0.00  0.00     0.017 C 
HETATM   11  C           1     -21.476  -7.231  -5.473  0.00  0.00     0.012 C 
HETATM   12  C           1     -19.885  -5.910  -6.854  0.00  0.00     0.012 C 
ENDBRANCH   5  10
ENDBRANCH   2   5
BRANCH   4  13
HETATM   13  C           1     -22.965  -3.807  -9.946  0.00  0.00     0.185 C 
BRANCH  13  14
HETATM   14  C           1     -22.413  -4.612 -11.117  0.00  0.00     0.040 C 
BRANCH  14  15
HETATM   15  C           1     -21.011  -4.123 -11.453  0.00  0.00    -0.020 C 
HETATM   16  C           1     -20.946  -2.612 -11.277  0.00  0.00     0.009 C 
HETATM   17  C           1     -20.005  -4.786 -10.520  0.00  0.00     0.009 C 
ENDBRANCH  14  15
ENDBRANCH  13  14
BRANCH  13  18
HETATM   18  C           1     -24.390  -3.409 -10.237  0.00  0.00     0.196 C 
HETATM   19  O           1     -25.062  -2.814  -9.367  0.00  0.00    -0.646 OA
HETATM   20  O           1     -24.900  -3.675 -11.346  0.00  0.00    -0.646 OA
ENDBRANCH  13  18
ENDBRANCH   4  13
TORSDOF 7
ENDMDL
MODEL 2
REMARK VINA RESULT:      -6.0     10.573     12.093
REMARK  7 active torsions:
REMARK  status: ('A' for Active; 'I' for Inactive)
REMARK    1  A    between atoms: N_2  and  C_12 
REMARK    2  A    between atoms: C_5  and  C_19 
REMARK    3  A    between atoms: C_5  and  C_13 
REMARK    4  A    between atoms: C_10  and  C_13 
REMARK    5  A    between atoms: C_11  and  C_12 
REMARK    6  A    between atoms: C_12  and  C_14 
REMARK    7  A    between atoms: C_13  and  N_18 
REMARK       I    between atoms: C_14  and  N_18 
ROOT
HETATM    1  H           1     -27.553  -7.181 -19.734  0.00  0.00     0.163 HD
HETATM    2  C           1     -26.366  -6.382 -18.240  0.00  0.00     0.249 C 
HETATM    3  O           1     -26.362  -5.857 -17.151  0.00  0.00    -0.271 OA
HETATM    4  N           1     -27.550  -6.742 -18.823  0.00  0.00    -0.345 N 
ENDROOT
BRANCH   2   5
HETATM    5  C           1     -25.062  -6.638 -18.957  0.00  0.00     0.278 C 
BRANCH   5   6
HETATM    6  N           1     -24.261  -7.646 -18.187  0.00  0.00    -0.066 N 
HETATM    7  H           1     -23.281  -7.301 -18.075  0.00  0.00     0.275 HD
HETATM    8  H           1     -24.689  -7.785 -17.244  0.00  0.00     0.275 HD
HETATM    9  H           1     -24.253  -8.554 -18.705  0.00  0.00     0.275 HD
ENDBRANCH   5   6
BRANCH   5  10
HETATM   10  C           1     -25.346  -7.175 -20.353  0.00  0.00     0.017 C 
HETATM   11  C           1     -24.215  -8.100 -20.780  0.00  0.00     0.012 C 
HETATM   12  C           1     -25.447  -6.013 -21.333  0.00  0.00     0.012 C 
ENDBRANCH   5  10
ENDBRANCH   2   5
BRANCH   4  13
HETATM   13  C           1     -28.802  -6.495 -18.132  0.00  0.00     0.185 C 
BRANCH  13  14
HETATM   14  C           1     -29.353  -5.138 -18.554  0.00  0.00     0.040 C 
BRANCH  14  15
HETATM   15  C           1     -29.703  -4.325 -17.316  0.00  0.00    -0.020 C 
HETATM   16  C           1     -28.692  -3.198 -17.147  0.00  0.00     0.009 C 
HETATM   17  C           1     -31.099  -3.735 -17.474  0.00  0.00     0.009 C 
ENDBRANCH  14  15
ENDBRANCH  13  14
BRANCH  13  18
HETATM   18  C           1     -29.794  -7.574 -18.488  0.00  0.00     0.196 C 
HETATM   19  O           1     -29.440  -8.538 -19.199  0.00  0.00    -0.646 OA
HETATM   20  O           1     -30.970  -7.503 -18.072  0.00  0.00    -0.646 OA
ENDBRANCH  13  18
ENDBRANCH   4  13
TORSDOF 7
ENDMDL
MODEL 3
REMARK VINA RESULT:      -5.5     10.608     12.310
REMARK  7 active torsions:
REMARK  status: ('A' for Active; 'I' for Inactive)
REMARK    1  A    between atoms: N_2  and  C_12 
REMARK    2  A    between atoms: C_5  and  C_19 
REMARK    3  A    between atoms: C_5  and  C_13 
REMARK    4  A    between atoms: C_10  and  C_13 
REMARK    5  A    between atoms: C_11  and  C_12 
REMARK    6  A    between atoms: C_12  and  C_14 
REMARK    7  A    between atoms: C_13  and  N_18 
REMARK       I    between atoms: C_14  and  N_18 
ROOT
HETATM    1  H           1     -26.272  -7.013 -17.582  0.00  0.00     0.163 HD
HETATM    2  C           1     -26.358  -6.427 -19.565  0.00  0.00     0.249 C 
HETATM    3  O           1     -27.039  -5.902 -20.414  0.00  0.00    -0.271 OA
HETATM    4  N           1     -26.843  -6.574 -18.293  0.00  0.00    -0.345 N 
ENDROOT
BRANCH   2   5
HETATM    5  C           1     -24.973  -6.919 -19.907  0.00  0.00     0.278 C 
BRANCH   5   6
HETATM    6  N           1     -24.298  -7.416 -18.663  0.00  0.00    -0.066 N 
HETATM    7  H           1     -24.258  -8.460 -18.682  0.00  0.00     0.275 HD
HETATM    8  H           1     -23.328  -7.032 -18.616  0.00  0.00     0.275 HD
HETATM    9  H           1     -24.839  -7.103 -17.825  0.00  0.00     0.275 HD
ENDBRANCH   5   6
BRANCH   5  10
HETATM   10  C           1     -25.071  -8.052 -20.919  0.00  0.00     0.017 C 
HETATM   11  C           1     -24.350  -7.653 -22.199  0.00  0.00     0.012 C 
HETATM   12  C           1     -26.535  -8.333 -21.228  0.00  0.00     0.012 C 
ENDBRANCH   5  10
ENDBRANCH   2   5
BRANCH   4  13
HETATM   13  C           1     -28.173  -6.101 -17.966  0.00  0.00     0.185 C 
BRANCH  13  14
HETATM   14  C           1     -28.798  -7.024 -16.926  0.00  0.00     0.040 C 
BRANCH  14  15
HETATM   15  C           1     -30.104  -7.589 -17.467  0.00  0.00    -0.020 C 
HETATM   16  C           1     -31.196  -6.533 -17.360  0.00  0.00     0.009 C 
HETATM   17  C           1     -29.920  -7.983 -18.927  0.00  0.00     0.009 C 
ENDBRANCH  14  15
ENDBRANCH  13  14
BRANCH  13  18
HETATM   18  C           1     -28.087  -4.701 -17.409  0.00  0.00     0.196 C 
HETATM   19  O           1     -27.193  -4.411 -16.586  0.00  0.00    -0.646 OA
HETATM   20  O           1     -28.910  -3.833 -17.770  0.00  0.00    -0.646 OA
ENDBRANCH  13  18
ENDBRANCH   4  13
TORSDOF 7
ENDMDL
MODEL 4
REMARK VINA RESULT:      -5.4      3.404      6.792
REMARK  7 active torsions:
REMARK  status: ('A' for Active; 'I' for Inactive)
REMARK    1  A    between atoms: N_2  and  C_12 
REMARK    2  A    between atoms: C_5  and  C_19 
REMARK    3  A    between atoms: C_5  and  C_13 
REMARK    4  A    between atoms: C_10  and  C_13 
REMARK    5  A    between atoms: C_11  and  C_12 
REMARK    6  A    between atoms: C_12  and  C_14 
REMARK    7  A    between atoms: C_13  and  N_18 
REMARK       I    between atoms: C_14  and  N_18 
ROOT
HETATM    1  H           1     -21.110  -7.574  -6.895  0.00  0.00     0.163 HD
HETATM    2  C           1     -20.994  -5.598  -6.292  0.00  0.00     0.249 C 
HETATM    3  O           1     -20.700  -4.854  -5.386  0.00  0.00    -0.271 OA
HETATM    4  N           1     -20.864  -6.952  -6.137  0.00  0.00    -0.345 N 
ENDROOT
BRANCH   2   5
HETATM    5  C           1     -21.503  -5.033  -7.596  0.00  0.00     0.278 C 
BRANCH   5   6
HETATM    6  N           1     -22.046  -3.654  -7.362  0.00  0.00    -0.066 N 
HETATM    7  H           1     -22.111  -3.474  -6.335  0.00  0.00     0.275 HD
HETATM    8  H           1     -21.408  -2.950  -7.798  0.00  0.00     0.275 HD
HETATM    9  H           1     -22.997  -3.576  -7.791  0.00  0.00     0.275 HD
ENDBRANCH   5   6
BRANCH   5  10
HETATM   10  C           1     -20.363  -4.966  -8.602  0.00  0.00     0.017 C 
HETATM   11  C           1     -19.231  -4.124  -8.030  0.00  0.00     0.012 C 
HETATM   12  C           1     -20.862  -4.333  -9.894  0.00  0.00     0.012 C 
ENDBRANCH   5  10
ENDBRANCH   2   5
BRANCH   4  13
HETATM   13  C           1     -20.374  -7.493  -4.884  0.00  0.00     0.185 C 
BRANCH  13  14
HETATM   14  C           1     -21.535  -7.640  -3.907  0.00  0.00     0.040 C 
BRANCH  14  15
HETATM   15  C           1     -21.116  -7.120  -2.539  0.00  0.00    -0.020 C 
HETATM   16  C           1     -22.184  -6.170  -2.011  0.00  0.00     0.009 C 
HETATM   17  C           1     -20.957  -8.290  -1.578  0.00  0.00     0.009 C 
ENDBRANCH  14  15
ENDBRANCH  13  14
BRANCH  13  18
HETATM   18  C           1     -19.748  -8.843  -5.129  0.00  0.00     0.196 C 
HETATM   19  O           1     -18.615  -9.099  -4.670  0.00  0.00    -0.646 OA
HETATM   20  O           1     -20.363  -9.706  -5.793  0.00  0.00    -0.646 OA
ENDBRANCH  13  18
ENDBRANCH   4  13
TORSDOF 7
ENDMDL
MODEL 5
REMARK VINA RESULT:      -5.3      2.820      4.423
REMARK  7 active torsions:
REMARK  status: ('A' for Active; 'I' for Inactive)
REMARK    1  A    between atoms: N_2  and  C_12 
REMARK    2  A    between atoms: C_5  and  C_19 
REMARK    3  A    between atoms: C_5  and  C_13 
REMARK    4  A    between atoms: C_10  and  C_13 
REMARK    5  A    between atoms: C_11  and  C_12 
REMARK    6  A    between atoms: C_12  and  C_14 
REMARK    7  A    between atoms: C_13  and  N_18 
REMARK       I    between atoms: C_14  and  N_18 
ROOT
HETATM    1  H           1     -22.313  -5.200  -5.295  0.00  0.00     0.163 HD
HETATM    2  C           1     -21.419  -7.053  -5.513  0.00  0.00     0.249 C 
HETATM    3  O           1     -20.722  -7.739  -6.224  0.00  0.00    -0.271 OA
HETATM    4  N           1     -21.730  -5.774  -5.890  0.00  0.00    -0.345 N 
ENDROOT
BRANCH   2   5
HETATM    5  C           1     -21.943  -7.606  -4.211  0.00  0.00     0.278 C 
BRANCH   5   6
HETATM    6  N           1     -21.755  -9.095  -4.191  0.00  0.00    -0.066 N 
HETATM    7  H           1     -22.256  -9.521  -5.003  0.00  0.00     0.275 HD
HETATM    8  H           1     -20.736  -9.317  -4.255  0.00  0.00     0.275 HD
HETATM    9  H           1     -22.142  -9.482  -3.300  0.00  0.00     0.275 HD
ENDBRANCH   5   6
BRANCH   5  10
HETATM   10  C           1     -21.183  -6.983  -3.049  0.00  0.00     0.017 C 
HETATM   11  C           1     -20.513  -8.080  -2.234  0.00  0.00     0.012 C 
HETATM   12  C           1     -22.152  -6.213  -2.162  0.00  0.00     0.012 C 
ENDBRANCH   5  10
ENDBRANCH   2   5
BRANCH   4  13
HETATM   13  C           1     -21.225  -5.244  -7.141  0.00  0.00     0.185 C 
BRANCH  13  14
HETATM   14  C           1     -22.157  -4.146  -7.639  0.00  0.00     0.040 C 
BRANCH  14  15
HETATM   15  C           1     -22.684  -4.514  -9.019  0.00  0.00    -0.020 C 
HETATM   16  C           1     -24.057  -3.887  -9.221  0.00  0.00     0.009 C 
HETATM   17  C           1     -21.727  -3.995 -10.084  0.00  0.00     0.009 C 
ENDBRANCH  14  15
ENDBRANCH  13  14
BRANCH  13  18
HETATM   18  C           1     -19.845  -4.673  -6.925  0.00  0.00     0.196 C 
HETATM   19  O           1     -19.427  -4.473  -5.765  0.00  0.00    -0.646 OA
HETATM   20  O           1     -19.121  -4.401  -7.906  0.00  0.00    -0.646 OA
ENDBRANCH  13  18
ENDBRANCH   4  13
TORSDOF 7
ENDMDL
MODEL 6
REMARK VINA RESULT:      -5.2      4.948      8.687
REMARK  7 active torsions:
REMARK  status: ('A' for Active; 'I' for Inactive)
REMARK    1  A    between atoms: N_2  and  C_12 
REMARK    2  A    between atoms: C_5  and  C_19 
REMARK    3  A    between atoms: C_5  and  C_13 
REMARK    4  A    between atoms: C_10  and  C_13 
REMARK    5  A    between atoms: C_11  and  C_12 
REMARK    6  A    between atoms: C_12  and  C_14 
REMARK    7  A    between atoms: C_13  and  N_18 
REMARK       I    between atoms: C_14  and  N_18 
ROOT
HETATM    1  H           1     -21.244  -8.882  -4.086  0.00  0.00     0.163 HD
HETATM    2  C           1     -21.432  -6.841  -3.799  0.00  0.00     0.249 C 
HETATM    3  O           1     -21.275  -5.932  -3.018  0.00  0.00    -0.271 OA
HETATM    4  N           1     -21.114  -8.121  -3.432  0.00  0.00    -0.345 N 
ENDROOT
BRANCH   2   5
HETATM    5  C           1     -21.977  -6.564  -5.179  0.00  0.00     0.278 C 
BRANCH   5   6
HETATM    6  N           1     -23.401  -6.106  -5.069  0.00  0.00    -0.066 N 
HETATM    7  H           1     -23.442  -5.227  -4.504  0.00  0.00     0.275 HD
HETATM    8  H           1     -23.783  -5.922  -6.024  0.00  0.00     0.275 HD
HETATM    9  H           1     -23.971  -6.848  -4.602  0.00  0.00     0.275 HD
ENDBRANCH   5   6
BRANCH   5  10
HETATM   10  C           1     -21.145  -5.478  -5.847  0.00  0.00     0.017 C 
HETATM   11  C           1     -22.009  -4.718  -6.844  0.00  0.00     0.012 C 
HETATM   12  C           1     -19.970  -6.115  -6.577  0.00  0.00     0.012 C 
ENDBRANCH   5  10
ENDBRANCH   2   5
BRANCH   4  13
HETATM   13  C           1     -20.589  -8.385  -2.106  0.00  0.00     0.185 C 
BRANCH  13  14
HETATM   14  C           1     -21.700  -8.944  -1.225  0.00  0.00     0.040 C 
BRANCH  14  15
HETATM   15  C           1     -21.817  -8.103   0.039  0.00  0.00    -0.020 C 
HETATM   16  C           1     -23.282  -7.995   0.441  0.00  0.00     0.009 C 
HETATM   17  C           1     -21.028  -8.762   1.162  0.00  0.00     0.009 C 
ENDBRANCH  14  15
ENDBRANCH  13  14
BRANCH  13  18
HETATM   18  C           1     -19.468  -9.390  -2.200  0.00  0.00     0.196 C 
HETATM   19  O           1     -19.563 -10.488  -1.611  0.00  0.00    -0.646 OA
HETATM   20  O           1     -18.443  -9.123  -2.864  0.00  0.00    -0.646 OA
ENDBRANCH  13  18
ENDBRANCH   4  13
TORSDOF 7
ENDMDL
MODEL 7
REMARK VINA RESULT:      -5.2      4.717      8.151
REMARK  7 active torsions:
REMARK  status: ('A' for Active; 'I' for Inactive)
REMARK    1  A    between atoms: N_2  and  C_12 
REMARK    2  A    between atoms: C_5  and  C_19 
REMARK    3  A    between atoms: C_5  and  C_13 
REMARK    4  A    between atoms: C_10  and  C_13 
REMARK    5  A    between atoms: C_11  and  C_12 
REMARK    6  A    between atoms: C_12  and  C_14 
REMARK    7  A    between atoms: C_13  and  N_18 
REMARK       I    between atoms: C_14  and  N_18 
ROOT
HETATM    1  H           1     -22.350  -7.823  -3.661  0.00  0.00     0.163 HD
HETATM    2  C           1     -20.661  -7.784  -4.855  0.00  0.00     0.249 C 
HETATM    3  O           1     -19.527  -8.183  -4.981  0.00  0.00    -0.271 OA
HETATM    4  N           1     -21.401  -8.158  -3.766  0.00  0.00    -0.345 N 
ENDROOT
BRANCH   2   5
HETATM    5  C           1     -21.259  -6.873  -5.899  0.00  0.00     0.278 C 
BRANCH   5   6
HETATM    6  N           1     -22.392  -6.097  -5.293  0.00  0.00    -0.066 N 
HETATM    7  H           1     -22.022  -5.217  -4.866  0.00  0.00     0.275 HD
HETATM    8  H           1     -23.085  -5.856  -6.037  0.00  0.00     0.275 HD
HETATM    9  H           1     -22.855  -6.675  -4.556  0.00  0.00     0.275 HD
ENDBRANCH   5   6
BRANCH   5  10
HETATM   10  C           1     -20.195  -5.908  -6.403  0.00  0.00     0.017 C 
HETATM   11  C           1     -20.157  -4.680  -5.504  0.00  0.00     0.012 C 
HETATM   12  C           1     -20.528  -5.483  -7.827  0.00  0.00     0.012 C 
ENDBRANCH   5  10
ENDBRANCH   2   5
BRANCH   4  13
HETATM   13  C           1     -20.825  -9.033  -2.764  0.00  0.00     0.185 C 
BRANCH  13  14
HETATM   14  C           1     -20.780  -8.309  -1.424  0.00  0.00     0.040 C 
BRANCH  14  15
HETATM   15  C           1     -22.158  -7.745  -1.105  0.00  0.00    -0.020 C 
HETATM   16  C           1     -22.484  -8.002   0.360  0.00  0.00     0.009 C 
HETATM   17  C           1     -22.166  -6.245  -1.372  0.00  0.00     0.009 C 
ENDBRANCH  14  15
ENDBRANCH  13  14
BRANCH  13  18
HETATM   18  C           1     -21.670 -10.277  -2.636  0.00  0.00     0.196 C 
HETATM   19  O           1     -22.543 -10.528  -3.493  0.00  0.00    -0.646 OA
HETATM   20  O           1     -21.496 -11.054  -1.673  0.00  0.00    -0.646 OA
ENDBRANCH  13  18
ENDBRANCH   4  13
TORSDOF 7
ENDMDL
MODEL 8
REMARK VINA RESULT:      -5.1      6.126      8.475
REMARK  7 active torsions:
REMARK  status: ('A' for Active; 'I' for Inactive)
REMARK    1  A    between atoms: N_2  and  C_12 
REMARK    2  A    between atoms: C_5  and  C_19 
REMARK    3  A    between atoms: C_5  and  C_13 
REMARK    4  A    between atoms: C_10  and  C_13 
REMARK    5  A    between atoms: C_11  and  C_12 
REMARK    6  A    between atoms: C_12  and  C_14 
REMARK    7  A    between atoms: C_13  and  N_18 
REMARK       I    between atoms: C_14  and  N_18 
ROOT
HETATM    1  H           1     -20.205  -8.692  -1.963  0.00  0.00     0.163 HD
HETATM    2  C           1     -21.782 -10.021  -1.794  0.00  0.00     0.249 C 
HETATM    3  O           1     -22.601 -10.669  -2.402  0.00  0.00    -0.271 OA
HETATM    4  N           1     -20.890  -9.235  -2.472  0.00  0.00    -0.345 N 
ENDROOT
BRANCH   2   5
HETATM    5  C           1     -21.745 -10.078  -0.286  0.00  0.00     0.278 C 
BRANCH   5   6
HETATM    6  N           1     -20.536 -10.850   0.153  0.00  0.00    -0.066 N 
HETATM    7  H           1     -19.901 -10.223   0.697  0.00  0.00     0.275 HD
HETATM    8  H           1     -20.834 -11.650   0.756  0.00  0.00     0.275 HD
HETATM    9  H           1     -20.031 -11.215  -0.687  0.00  0.00     0.275 HD
ENDBRANCH   5   6
BRANCH   5  10
HETATM   10  C           1     -21.676  -8.665   0.276  0.00  0.00     0.017 C 
HETATM   11  C           1     -20.948  -8.686   1.613  0.00  0.00     0.012 C 
HETATM   12  C           1     -23.087  -8.128   0.475  0.00  0.00     0.012 C 
ENDBRANCH   5  10
ENDBRANCH   2   5
BRANCH   4  13
HETATM   13  C           1     -20.928  -9.181  -3.921  0.00  0.00     0.185 C 
BRANCH  13  14
HETATM   14  C           1     -21.721  -7.957  -4.362  0.00  0.00     0.040 C 
BRANCH  14  15
HETATM   15  C           1     -21.119  -6.708  -3.732  0.00  0.00    -0.020 C 
HETATM   16  C           1     -20.950  -5.635  -4.799  0.00  0.00     0.009 C 
HETATM   17  C           1     -22.046  -6.195  -2.638  0.00  0.00     0.009 C 
ENDBRANCH  14  15
ENDBRANCH  13  14
BRANCH  13  18
HETATM   18  C           1     -19.521  -9.089  -4.458  0.00  0.00     0.196 C 
HETATM   19  O           1     -19.329  -8.964  -5.686  0.00  0.00    -0.646 OA
HETATM   20  O           1     -18.548  -9.139  -3.675  0.00  0.00    -0.646 OA
ENDBRANCH  13  18
ENDBRANCH   4  13
TORSDOF 7
ENDMDL
MODEL 9
REMARK VINA RESULT:      -5.0      6.772      8.847
REMARK  7 active torsions:
REMARK  status: ('A' for Active; 'I' for Inactive)
REMARK    1  A    between atoms: N_2  and  C_12 
REMARK    2  A    between atoms: C_5  and  C_19 
REMARK    3  A    between atoms: C_5  and  C_13 
REMARK    4  A    between atoms: C_10  and  C_13 
REMARK    5  A    between atoms: C_11  and  C_12 
REMARK    6  A    between atoms: C_12  and  C_14 
REMARK    7  A    between atoms: C_13  and  N_18 
REMARK       I    between atoms: C_14  and  N_18 
ROOT
HETATM    1  H           1     -19.316  -7.709  -3.288  0.00  0.00     0.163 HD
HETATM    2  C           1     -19.985  -9.615  -3.733  0.00  0.00     0.249 C 
HETATM    3  O           1     -20.907 -10.391  -3.630  0.00  0.00    -0.271 OA
HETATM    4  N           1     -20.087  -8.358  -3.202  0.00  0.00    -0.345 N 
ENDROOT
BRANCH   2   5
HETATM    5  C           1     -18.723 -10.034  -4.447  0.00  0.00     0.278 C 
BRANCH   5   6
HETATM    6  N           1     -18.645  -9.336  -5.772  0.00  0.00    -0.066 N 
HETATM    7  H           1     -19.144  -9.902  -6.495  0.00  0.00     0.275 HD
HETATM    8  H           1     -19.094  -8.395  -5.697  0.00  0.00     0.275 HD
HETATM    9  H           1     -17.642  -9.223  -6.047  0.00  0.00     0.275 HD
ENDBRANCH   5   6
BRANCH   5  10
HETATM   10  C           1     -17.513  -9.660  -3.603  0.00  0.00     0.017 C 
HETATM   11  C           1     -16.246  -9.834  -4.430  0.00  0.00     0.012 C 
HETATM   12  C           1     -17.447 -10.563  -2.379  0.00  0.00     0.012 C 
ENDBRANCH   5  10
ENDBRANCH   2   5
BRANCH   4  13
HETATM   13  C           1     -21.300  -7.957  -2.517  0.00  0.00     0.185 C 
BRANCH  13  14
HETATM   14  C           1     -21.054  -7.950  -1.013  0.00  0.00     0.040 C 
BRANCH  14  15
HETATM   15  C           1     -22.013  -8.921  -0.337  0.00  0.00    -0.020 C 
HETATM   16  C           1     -21.231  -9.840   0.592  0.00  0.00     0.009 C 
HETATM   17  C           1     -23.042  -8.139   0.469  0.00  0.00     0.009 C 
ENDBRANCH  14  15
ENDBRANCH  13  14
BRANCH  13  18
HETATM   18  C           1     -21.699  -6.573  -2.967  0.00  0.00     0.196 C 
HETATM   19  O           1     -22.452  -5.877  -2.253  0.00  0.00    -0.646 OA
HETATM   20  O           1     -21.276  -6.123  -4.054  0.00  0.00    -0.646 OA
ENDBRANCH  13  18
ENDBRANCH   4  13
TORSDOF 7
ENDMDL
