MODEL 1
REMARK VINA RESULT:      -5.0      0.000      0.000
REMARK  8 active torsions:
REMARK  status: ('A' for Active; 'I' for Inactive)
REMARK    1  A    between atoms: C_4  and  C_5 
REMARK    2  A    between atoms: C_5  and  C_6 
REMARK    3  A    between atoms: C_5  and  N_16 
REMARK    4  A    between atoms: C_6  and  Se_7 
REMARK    5  A    between atoms: N_9  and  C_14 
REMARK    6  A    between atoms: S_12  and  C_13 
REMARK    7  A    between atoms: C_13  and  C_14 
REMARK    8  A    between atoms: C_14  and  C_15 
REMARK       I    between atoms: C_15  and  N_16 
ROOT
HETATM    1  H           1     -27.419  -6.955 -18.592  0.00  0.00     0.163 HD
HETATM    2  O           1     -24.319  -6.471 -18.553  0.00  0.00    -0.271 OA
HETATM    3  C           1     -25.386  -6.852 -18.972  0.00  0.00     0.249 C 
HETATM    4  N           1     -26.524  -6.636 -18.241  0.00  0.00    -0.345 N 
ENDROOT
BRANCH   3   5
HETATM    5  C           1     -25.466  -7.564 -20.299  0.00  0.00     0.283 C 
BRANCH   5   6
HETATM    6  N           1     -26.903  -7.826 -20.640  0.00  0.00    -0.066 N 
HETATM    7  H           1     -27.271  -7.041 -21.224  0.00  0.00     0.275 HD
HETATM    8  H           1     -27.463  -7.897 -19.761  0.00  0.00     0.275 HD
HETATM    9  H           1     -26.977  -8.722 -21.173  0.00  0.00     0.275 HD
ENDBRANCH   5   6
BRANCH   5  10
HETATM   10  C           1     -24.838  -6.694 -21.381  0.00  0.00     0.113 C 
BRANCH  10  11
HETATM   11  S           1     -23.882  -7.738 -22.518  0.00  0.00    -0.180 SA
HETATM   12  H           1     -24.186  -8.905 -21.923  0.00  0.00     0.101 HD
ENDBRANCH  10  11
ENDBRANCH   5  10
ENDBRANCH   3   5
BRANCH   4  13
HETATM   13  C           1     -26.448  -5.952 -16.965  0.00  0.00     0.185 C 
BRANCH  13  14
HETATM   14  C           1     -26.410  -6.969 -15.851  0.00  0.00     0.196 C 
HETATM   15  O           1     -27.476  -7.391 -15.355  0.00  0.00    -0.646 OA
HETATM   16  O           1     -25.312  -7.388 -15.425  0.00  0.00    -0.646 OA
ENDBRANCH  13  14
BRANCH  13  17
HETATM   17  C           1     -27.670  -5.058 -16.797  0.00  0.00     0.039 C 
BRANCH  17  18
HETATM   18 Se           1     -28.837  -5.253 -18.346  0.00  0.00     0.000 Se
HETATM   19  H           1     -29.950  -5.838 -17.580  0.00  0.00     0.000 HD
ENDBRANCH  17  18
ENDBRANCH  13  17
ENDBRANCH   4  13
TORSDOF 8
ENDMDL
MODEL 2
REMARK VINA RESULT:      -4.8     10.004     11.759
REMARK  8 active torsions:
REMARK  status: ('A' for Active; 'I' for Inactive)
REMARK    1  A    between atoms: C_4  and  C_5 
REMARK    2  A    between atoms: C_5  and  C_6 
REMARK    3  A    between atoms: C_5  and  N_16 
REMARK    4  A    between atoms: C_6  and  Se_7 
REMARK    5  A    between atoms: N_9  and  C_14 
REMARK    6  A    between atoms: S_12  and  C_13 
REMARK    7  A    between atoms: C_13  and  C_14 
REMARK    8  A    between atoms: C_14  and  C_15 
REMARK       I    between atoms: C_15  and  N_16 
ROOT
HETATM    1  H           1     -22.356  -5.678  -9.480  0.00  0.00     0.163 HD
HETATM    2  O           1     -21.782  -3.546  -7.251  0.00  0.00    -0.271 OA
HETATM    3  C           1     -21.805  -4.631  -7.782  0.00  0.00     0.249 C 
HETATM    4  N           1     -22.338  -4.770  -9.035  0.00  0.00    -0.345 N 
ENDROOT
BRANCH   3   5
HETATM    5  C           1     -21.245  -5.834  -7.063  0.00  0.00     0.283 C 
BRANCH   5   6
HETATM    6  N           1     -19.837  -6.078  -7.519  0.00  0.00    -0.066 N 
HETATM    7  H           1     -19.264  -6.415  -6.713  0.00  0.00     0.275 HD
HETATM    8  H           1     -19.431  -5.188  -7.887  0.00  0.00     0.275 HD
HETATM    9  H           1     -19.836  -6.799  -8.275  0.00  0.00     0.275 HD
ENDBRANCH   5   6
BRANCH   5  10
HETATM   10  C           1     -21.255  -5.579  -5.561  0.00  0.00     0.113 C 
BRANCH  10  11
HETATM   11  S           1     -21.799  -7.079  -4.696  0.00  0.00    -0.180 SA
HETATM   12  H           1     -22.979  -7.187  -5.333  0.00  0.00     0.101 HD
ENDBRANCH  10  11
ENDBRANCH   5  10
ENDBRANCH   3   5
BRANCH   4  13
HETATM   13  C           1     -22.876  -3.613  -9.726  0.00  0.00     0.185 C 
BRANCH  13  14
HETATM   14  C           1     -24.298  -3.895 -10.144  0.00  0.00     0.196 C 
HETATM   15  O           1     -24.906  -3.083 -10.873  0.00  0.00    -0.646 OA
HETATM   16  O           1     -24.866  -4.941  -9.762  0.00  0.00    -0.646 OA
ENDBRANCH  13  14
BRANCH  13  17
HETATM   17  C           1     -22.030  -3.322 -10.959  0.00  0.00     0.039 C 
BRANCH  17  18
HETATM   18 Se           1     -20.364  -4.328 -10.858  0.00  0.00     0.000 Se
HETATM   19  H           1     -20.642  -5.136 -12.057  0.00  0.00     0.000 HD
ENDBRANCH  17  18
ENDBRANCH  13  17
ENDBRANCH   4  13
TORSDOF 8
ENDMDL
MODEL 3
REMARK VINA RESULT:      -4.8      2.292      2.757
REMARK  8 active torsions:
REMARK  status: ('A' for Active; 'I' for Inactive)
REMARK    1  A    between atoms: C_4  and  C_5 
REMARK    2  A    between atoms: C_5  and  C_6 
REMARK    3  A    between atoms: C_5  and  N_16 
REMARK    4  A    between atoms: C_6  and  Se_7 
REMARK    5  A    between atoms: N_9  and  C_14 
REMARK    6  A    between atoms: S_12  and  C_13 
REMARK    7  A    between atoms: C_13  and  C_14 
REMARK    8  A    between atoms: C_14  and  C_15 
REMARK       I    between atoms: C_15  and  N_16 
ROOT
HETATM    1  H           1     -27.806  -6.897 -19.817  0.00  0.00     0.163 HD
HETATM    2  O           1     -26.032  -6.107 -17.352  0.00  0.00    -0.271 OA
HETATM    3  C           1     -26.288  -6.462 -18.479  0.00  0.00     0.249 C 
HETATM    4  N           1     -27.592  -6.601 -18.873  0.00  0.00    -0.345 N 
ENDROOT
BRANCH   3   5
HETATM    5  C           1     -25.171  -6.751 -19.451  0.00  0.00     0.283 C 
BRANCH   5   6
HETATM    6  N           1     -24.120  -7.579 -18.773  0.00  0.00    -0.066 N 
HETATM    7  H           1     -23.175  -7.284 -19.106  0.00  0.00     0.275 HD
HETATM    8  H           1     -24.270  -8.588 -19.001  0.00  0.00     0.275 HD
HETATM    9  H           1     -24.185  -7.444 -17.738  0.00  0.00     0.275 HD
ENDBRANCH   5   6
BRANCH   5  10
HETATM   10  C           1     -25.724  -7.514 -20.648  0.00  0.00     0.113 C 
BRANCH  10  11
HETATM   11  S           1     -24.380  -7.860 -21.819  0.00  0.00    -0.180 SA
HETATM   12  H           1     -23.391  -7.831 -20.907  0.00  0.00     0.101 HD
ENDBRANCH  10  11
ENDBRANCH   5  10
ENDBRANCH   3   5
BRANCH   4  13
HETATM   13  C           1     -28.665  -6.323 -17.938  0.00  0.00     0.185 C 
BRANCH  13  14
HETATM   14  C           1     -29.606  -7.502 -17.890  0.00  0.00     0.196 C 
HETATM   15  O           1     -29.472  -8.372 -17.002  0.00  0.00    -0.646 OA
HETATM   16  O           1     -30.519  -7.608 -18.737  0.00  0.00    -0.646 OA
ENDBRANCH  13  14
BRANCH  13  17
HETATM   17  C           1     -29.425  -5.085 -18.394  0.00  0.00     0.039 C 
BRANCH  17  18
HETATM   18 Se           1     -28.921  -3.566 -17.281  0.00  0.00     0.000 Se
HETATM   19  H           1     -29.975  -2.683 -17.806  0.00  0.00     0.000 HD
ENDBRANCH  17  18
ENDBRANCH  13  17
ENDBRANCH   4  13
TORSDOF 8
ENDMDL
MODEL 4
REMARK VINA RESULT:      -4.6      2.094      2.473
REMARK  8 active torsions:
REMARK  status: ('A' for Active; 'I' for Inactive)
REMARK    1  A    between atoms: C_4  and  C_5 
REMARK    2  A    between atoms: C_5  and  C_6 
REMARK    3  A    between atoms: C_5  and  N_16 
REMARK    4  A    between atoms: C_6  and  Se_7 
REMARK    5  A    between atoms: N_9  and  C_14 
REMARK    6  A    between atoms: S_12  and  C_13 
REMARK    7  A    between atoms: C_13  and  C_14 
REMARK    8  A    between atoms: C_14  and  C_15 
REMARK       I    between atoms: C_15  and  N_16 
ROOT
HETATM    1  H           1     -26.137  -6.714 -17.595  0.00  0.00     0.163 HD
HETATM    2  O           1     -27.077  -6.013 -20.505  0.00  0.00    -0.271 OA
HETATM    3  C           1     -26.345  -6.416 -19.632  0.00  0.00     0.249 C 
HETATM    4  N           1     -26.750  -6.375 -18.325  0.00  0.00    -0.345 N 
ENDROOT
BRANCH   3   5
HETATM    5  C           1     -24.985  -6.967 -19.984  0.00  0.00     0.283 C 
BRANCH   5   6
HETATM    6  N           1     -24.335  -7.518 -18.749  0.00  0.00    -0.066 N 
HETATM    7  H           1     -24.689  -8.485 -18.571  0.00  0.00     0.275 HD
HETATM    8  H           1     -24.565  -6.908 -17.932  0.00  0.00     0.275 HD
HETATM    9  H           1     -23.299  -7.543 -18.882  0.00  0.00     0.275 HD
ENDBRANCH   5   6
BRANCH   5  10
HETATM   10  C           1     -25.138  -8.079 -21.015  0.00  0.00     0.113 C 
BRANCH  10  11
HETATM   11  S           1     -23.936  -7.832 -22.353  0.00  0.00    -0.180 SA
HETATM   12  H           1     -24.675  -8.417 -23.313  0.00  0.00     0.101 HD
ENDBRANCH  10  11
ENDBRANCH   5  10
ENDBRANCH   3   5
BRANCH   4  13
HETATM   13  C           1     -28.057  -5.845 -17.988  0.00  0.00     0.185 C 
BRANCH  13  14
HETATM   14  C           1     -27.923  -4.868 -16.846  0.00  0.00     0.196 C 
HETATM   15  O           1     -27.488  -5.255 -15.740  0.00  0.00    -0.646 OA
HETATM   16  O           1     -28.248  -3.671 -17.006  0.00  0.00    -0.646 OA
ENDBRANCH  13  14
BRANCH  13  17
HETATM   17  C           1     -28.974  -6.988 -17.574  0.00  0.00     0.039 C 
BRANCH  17  18
HETATM   18 Se           1     -30.761  -6.293 -17.222  0.00  0.00     0.000 Se
HETATM   19  H           1     -30.624  -6.357 -15.757  0.00  0.00     0.000 HD
ENDBRANCH  17  18
ENDBRANCH  13  17
ENDBRANCH   4  13
TORSDOF 8
ENDMDL
MODEL 5
REMARK VINA RESULT:      -4.2      9.973     11.716
REMARK  8 active torsions:
REMARK  status: ('A' for Active; 'I' for Inactive)
REMARK    1  A    between atoms: C_4  and  C_5 
REMARK    2  A    between atoms: C_5  and  C_6 
REMARK    3  A    between atoms: C_5  and  N_16 
REMARK    4  A    between atoms: C_6  and  Se_7 
REMARK    5  A    between atoms: N_9  and  C_14 
REMARK    6  A    between atoms: S_12  and  C_13 
REMARK    7  A    between atoms: C_13  and  C_14 
REMARK    8  A    between atoms: C_14  and  C_15 
REMARK       I    between atoms: C_15  and  N_16 
ROOT
HETATM    1  H           1     -22.799  -3.614  -8.627  0.00  0.00     0.163 HD
HETATM    2  O           1     -20.515  -5.764  -8.559  0.00  0.00    -0.271 OA
HETATM    3  C           1     -21.291  -4.943  -8.132  0.00  0.00     0.249 C 
HETATM    4  N           1     -22.148  -4.302  -8.985  0.00  0.00    -0.345 N 
ENDROOT
BRANCH   3   5
HETATM    5  C           1     -21.316  -4.624  -6.657  0.00  0.00     0.283 C 
BRANCH   5   6
HETATM    6  N           1     -22.576  -5.166  -6.051  0.00  0.00    -0.066 N 
HETATM    7  H           1     -22.985  -4.455  -5.403  0.00  0.00     0.275 HD
HETATM    8  H           1     -22.360  -6.038  -5.517  0.00  0.00     0.275 HD
HETATM    9  H           1     -23.262  -5.384  -6.809  0.00  0.00     0.275 HD
ENDBRANCH   5   6
BRANCH   5  10
HETATM   10  C           1     -20.111  -5.264  -5.978  0.00  0.00     0.113 C 
BRANCH  10  11
HETATM   11  S           1     -20.618  -6.813  -5.179  0.00  0.00    -0.180 SA
HETATM   12  H           1     -19.776  -6.713  -4.135  0.00  0.00     0.101 HD
ENDBRANCH  10  11
ENDBRANCH   5  10
ENDBRANCH   3   5
BRANCH   4  13
HETATM   13  C           1     -22.124  -4.608 -10.402  0.00  0.00     0.185 C 
BRANCH  13  14
HETATM   14  C           1     -21.276  -3.588 -11.122  0.00  0.00     0.196 C 
HETATM   15  O           1     -21.801  -2.553 -11.584  0.00  0.00    -0.646 OA
HETATM   16  O           1     -20.048  -3.780 -11.256  0.00  0.00    -0.646 OA
ENDBRANCH  13  14
BRANCH  13  17
HETATM   17  C           1     -23.543  -4.568 -10.953  0.00  0.00     0.039 C 
BRANCH  17  18
HETATM   18 Se           1     -24.670  -3.504  -9.771  0.00  0.00     0.000 Se
HETATM   19  H           1     -24.573  -4.444  -8.641  0.00  0.00     0.000 HD
ENDBRANCH  17  18
ENDBRANCH  13  17
ENDBRANCH   4  13
TORSDOF 8
ENDMDL
MODEL 6
REMARK VINA RESULT:      -4.1     10.916     12.368
REMARK  8 active torsions:
REMARK  status: ('A' for Active; 'I' for Inactive)
REMARK    1  A    between atoms: C_4  and  C_5 
REMARK    2  A    between atoms: C_5  and  C_6 
REMARK    3  A    between atoms: C_5  and  N_16 
REMARK    4  A    between atoms: C_6  and  Se_7 
REMARK    5  A    between atoms: N_9  and  C_14 
REMARK    6  A    between atoms: S_12  and  C_13 
REMARK    7  A    between atoms: C_13  and  C_14 
REMARK    8  A    between atoms: C_14  and  C_15 
REMARK       I    between atoms: C_15  and  N_16 
ROOT
HETATM    1  H           1     -22.592  -6.272  -7.784  0.00  0.00     0.163 HD
HETATM    2  O           1     -21.844  -3.236  -7.531  0.00  0.00    -0.271 OA
HETATM    3  C           1     -22.347  -4.228  -8.001  0.00  0.00     0.249 C 
HETATM    4  N           1     -22.170  -5.441  -7.390  0.00  0.00    -0.345 N 
ENDROOT
BRANCH   3   5
HETATM    5  C           1     -23.170  -4.132  -9.263  0.00  0.00     0.283 C 
BRANCH   5   6
HETATM    6  N           1     -24.448  -3.405  -8.970  0.00  0.00    -0.066 N 
HETATM    7  H           1     -24.890  -3.103  -9.867  0.00  0.00     0.275 HD
HETATM    8  H           1     -24.246  -2.565  -8.382  0.00  0.00     0.275 HD
HETATM    9  H           1     -25.100  -4.039  -8.455  0.00  0.00     0.275 HD
ENDBRANCH   5   6
BRANCH   5  10
HETATM   10  C           1     -22.385  -3.372 -10.324  0.00  0.00     0.113 C 
BRANCH  10  11
HETATM   11  S           1     -20.909  -4.323 -10.783  0.00  0.00    -0.180 SA
HETATM   12  H           1     -21.025  -5.239  -9.805  0.00  0.00     0.101 HD
ENDBRANCH  10  11
ENDBRANCH   5  10
ENDBRANCH   3   5
BRANCH   4  13
HETATM   13  C           1     -21.379  -5.533  -6.178  0.00  0.00     0.185 C 
BRANCH  13  14
HETATM   14  C           1     -19.966  -5.927  -6.530  0.00  0.00     0.196 C 
HETATM   15  O           1     -19.135  -5.051  -6.852  0.00  0.00    -0.646 OA
HETATM   16  O           1     -19.626  -7.130  -6.499  0.00  0.00    -0.646 OA
ENDBRANCH  13  14
BRANCH  13  17
HETATM   17  C           1     -21.986  -6.584  -5.257  0.00  0.00     0.039 C 
BRANCH  17  18
HETATM   18 Se           1     -21.413  -6.250  -3.424  0.00  0.00     0.000 Se
HETATM   19  H           1     -20.270  -5.405  -3.812  0.00  0.00     0.000 HD
ENDBRANCH  17  18
ENDBRANCH  13  17
ENDBRANCH   4  13
TORSDOF 8
ENDMDL
MODEL 7
REMARK VINA RESULT:      -4.0     12.923     14.494
REMARK  8 active torsions:
REMARK  status: ('A' for Active; 'I' for Inactive)
REMARK    1  A    between atoms: C_4  and  C_5 
REMARK    2  A    between atoms: C_5  and  C_6 
REMARK    3  A    between atoms: C_5  and  N_16 
REMARK    4  A    between atoms: C_6  and  Se_7 
REMARK    5  A    between atoms: N_9  and  C_14 
REMARK    6  A    between atoms: S_12  and  C_13 
REMARK    7  A    between atoms: C_13  and  C_14 
REMARK    8  A    between atoms: C_14  and  C_15 
REMARK       I    between atoms: C_15  and  N_16 
ROOT
HETATM    1  H           1     -19.876  -6.749  -4.884  0.00  0.00     0.163 HD
HETATM    2  O           1     -22.676  -5.608  -5.723  0.00  0.00    -0.271 OA
HETATM    3  C           1     -21.475  -5.739  -5.726  0.00  0.00     0.249 C 
HETATM    4  N           1     -20.882  -6.639  -4.882  0.00  0.00    -0.345 N 
ENDROOT
BRANCH   3   5
HETATM    5  C           1     -20.627  -4.909  -6.659  0.00  0.00     0.283 C 
BRANCH   5   6
HETATM    6  N           1     -20.049  -5.792  -7.725  0.00  0.00    -0.066 N 
HETATM    7  H           1     -19.183  -6.253  -7.363  0.00  0.00     0.275 HD
HETATM    8  H           1     -19.812  -5.216  -8.564  0.00  0.00     0.275 HD
HETATM    9  H           1     -20.748  -6.521  -7.991  0.00  0.00     0.275 HD
ENDBRANCH   5   6
BRANCH   5  10
HETATM   10  C           1     -21.489  -3.832  -7.306  0.00  0.00     0.113 C 
BRANCH  10  11
HETATM   11  S           1     -21.894  -4.321  -9.006  0.00  0.00    -0.180 SA
HETATM   12  H           1     -23.176  -3.914  -8.966  0.00  0.00     0.101 HD
ENDBRANCH  10  11
ENDBRANCH   5  10
ENDBRANCH   3   5
BRANCH   4  13
HETATM   13  C           1     -21.697  -7.436  -3.985  0.00  0.00     0.185 C 
BRANCH  13  14
HETATM   14  C           1     -21.611  -6.868  -2.590  0.00  0.00     0.196 C 
HETATM   15  O           1     -20.825  -7.371  -1.758  0.00  0.00    -0.646 OA
HETATM   16  O           1     -22.325  -5.894  -2.266  0.00  0.00    -0.646 OA
ENDBRANCH  13  14
BRANCH  13  17
HETATM   17  C           1     -21.189  -8.872  -3.981  0.00  0.00     0.039 C 
BRANCH  17  18
HETATM   18 Se           1     -19.443  -8.946  -4.845  0.00  0.00     0.000 Se
HETATM   19  H           1     -19.666  -7.739  -5.659  0.00  0.00     0.000 HD
ENDBRANCH  17  18
ENDBRANCH  13  17
ENDBRANCH   4  13
TORSDOF 8
ENDMDL
MODEL 8
REMARK VINA RESULT:      -3.9     11.796     13.230
REMARK  8 active torsions:
REMARK  status: ('A' for Active; 'I' for Inactive)
REMARK    1  A    between atoms: C_4  and  C_5 
REMARK    2  A    between atoms: C_5  and  C_6 
REMARK    3  A    between atoms: C_5  and  N_16 
REMARK    4  A    between atoms: C_6  and  Se_7 
REMARK    5  A    between atoms: N_9  and  C_14 
REMARK    6  A    between atoms: S_12  and  C_13 
REMARK    7  A    between atoms: C_13  and  C_14 
REMARK    8  A    between atoms: C_14  and  C_15 
REMARK       I    between atoms: C_15  and  N_16 
ROOT
HETATM    1  H           1     -21.532  -7.167  -7.313  0.00  0.00     0.163 HD
HETATM    2  O           1     -20.795  -4.296  -6.286  0.00  0.00    -0.271 OA
HETATM    3  C           1     -21.152  -5.148  -7.065  0.00  0.00     0.249 C 
HETATM    4  N           1     -21.232  -6.454  -6.661  0.00  0.00    -0.345 N 
ENDROOT
BRANCH   3   5
HETATM    5  C           1     -21.509  -4.773  -8.482  0.00  0.00     0.283 C 
BRANCH   5   6
HETATM    6  N           1     -22.436  -3.594  -8.468  0.00  0.00    -0.066 N 
HETATM    7  H           1     -22.281  -3.020  -9.327  0.00  0.00     0.275 HD
HETATM    8  H           1     -22.248  -3.012  -7.621  0.00  0.00     0.275 HD
HETATM    9  H           1     -23.425  -3.930  -8.445  0.00  0.00     0.275 HD
ENDBRANCH   5   6
BRANCH   5  10
HETATM   10  C           1     -20.241  -4.412  -9.247  0.00  0.00     0.113 C 
BRANCH  10  11
HETATM   11  S           1     -20.668  -3.988 -10.960  0.00  0.00    -0.180 SA
HETATM   12  H           1     -19.453  -3.514 -11.292  0.00  0.00     0.101 HD
ENDBRANCH  10  11
ENDBRANCH   5  10
ENDBRANCH   3   5
BRANCH   4  13
HETATM   13  C           1     -20.889  -6.814  -5.299  0.00  0.00     0.185 C 
BRANCH  13  14
HETATM   14  C           1     -20.359  -8.226  -5.271  0.00  0.00     0.196 C 
HETATM   15  O           1     -19.285  -8.479  -4.684  0.00  0.00    -0.646 OA
HETATM   16  O           1     -20.994  -9.143  -5.835  0.00  0.00    -0.646 OA
ENDBRANCH  13  14
BRANCH  13  17
HETATM   17  C           1     -22.132  -6.720  -4.422  0.00  0.00     0.039 C 
BRANCH  17  18
HETATM   18 Se           1     -21.603  -6.346  -2.584  0.00  0.00     0.000 Se
HETATM   19  H           1     -20.536  -7.360  -2.561  0.00  0.00     0.000 HD
ENDBRANCH  17  18
ENDBRANCH  13  17
ENDBRANCH   4  13
TORSDOF 8
ENDMDL
MODEL 9
REMARK VINA RESULT:      -3.7      3.261      3.940
REMARK  8 active torsions:
REMARK  status: ('A' for Active; 'I' for Inactive)
REMARK    1  A    between atoms: C_4  and  C_5 
REMARK    2  A    between atoms: C_5  and  C_6 
REMARK    3  A    between atoms: C_5  and  N_16 
REMARK    4  A    between atoms: C_6  and  Se_7 
REMARK    5  A    between atoms: N_9  and  C_14 
REMARK    6  A    between atoms: S_12  and  C_13 
REMARK    7  A    between atoms: C_13  and  C_14 
REMARK    8  A    between atoms: C_14  and  C_15 
REMARK       I    between atoms: C_15  and  N_16 
ROOT
HETATM    1  H           1     -27.868  -4.426 -17.537  0.00  0.00     0.163 HD
HETATM    2  O           1     -28.754  -6.924 -19.217  0.00  0.00    -0.271 OA
HETATM    3  C           1     -28.001  -6.127 -18.710  0.00  0.00     0.249 C 
HETATM    4  N           1     -28.499  -5.093 -17.963  0.00  0.00    -0.345 N 
ENDROOT
BRANCH   3   5
HETATM    5  C           1     -26.510  -6.271 -18.899  0.00  0.00     0.283 C 
BRANCH   5   6
HETATM    6  N           1     -25.887  -6.734 -17.616  0.00  0.00    -0.066 N 
HETATM    7  H           1     -25.789  -7.775 -17.633  0.00  0.00     0.275 HD
HETATM    8  H           1     -26.494  -6.455 -16.812  0.00  0.00     0.275 HD
HETATM    9  H           1     -24.945  -6.296 -17.508  0.00  0.00     0.275 HD
ENDBRANCH   5   6
BRANCH   5  10
HETATM   10  C           1     -26.233  -7.292 -19.995  0.00  0.00     0.113 C 
BRANCH  10  11
HETATM   11  S           1     -25.063  -6.591 -21.193  0.00  0.00    -0.180 SA
HETATM   12  H           1     -24.123  -7.542 -21.041  0.00  0.00     0.101 HD
ENDBRANCH  10  11
ENDBRANCH   5  10
ENDBRANCH   3   5
BRANCH   4  13
HETATM   13  C           1     -29.931  -4.955 -17.782  0.00  0.00     0.185 C 
BRANCH  13  14
HETATM   14  C           1     -30.272  -3.501 -17.567  0.00  0.00     0.196 C 
HETATM   15  O           1     -31.466  -3.133 -17.565  0.00  0.00    -0.646 OA
HETATM   16  O           1     -29.360  -2.665 -17.389  0.00  0.00    -0.646 OA
ENDBRANCH  13  14
BRANCH  13  17
HETATM   17  C           1     -30.368  -5.765 -16.568  0.00  0.00     0.039 C 
BRANCH  17  18
HETATM   18 Se           1     -28.942  -5.765 -15.239  0.00  0.00     0.000 Se
HETATM   19  H           1     -29.087  -7.193 -14.912  0.00  0.00     0.000 HD
ENDBRANCH  17  18
ENDBRANCH  13  17
ENDBRANCH   4  13
TORSDOF 8
ENDMDL
