MODEL 1
REMARK VINA RESULT:      -6.4      0.000      0.000
REMARK  7 active torsions:
REMARK  status: ('A' for Active; 'I' for Inactive)
REMARK    1  A    between atoms: C_1  and  C_2 
REMARK    2  A    between atoms: C_1  and  C_11 
REMARK    3  A    between atoms: C_1  and  N_6 
REMARK       I    between atoms: C_2  and  N_19 
REMARK    4  A    between atoms: C_4  and  C_17 
REMARK    5  A    between atoms: C_4  and  C_9 
REMARK    6  A    between atoms: C_7  and  C_9 
REMARK    7  A    between atoms: C_9  and  N_19 
ROOT
HETATM    1  C           1     -34.479  -2.479 -11.921  0.00  0.00     0.249 C 
HETATM    2  H           1     -36.082  -2.128 -13.182  0.00  0.00     0.163 HD
HETATM    3  N           1     -35.460  -1.718 -12.497  0.00  0.00    -0.344 N 
HETATM    4  O           1     -33.736  -1.988 -11.103  0.00  0.00    -0.271 OA
ENDROOT
BRANCH   1   5
HETATM    5  C           1     -34.324  -3.929 -12.307  0.00  0.00     0.278 C 
BRANCH   5   6
HETATM    6  C           1     -33.308  -4.594 -11.387  0.00  0.00     0.017 C 
HETATM    7  C           1     -31.999  -4.796 -12.139  0.00  0.00     0.012 C 
HETATM    8  C           1     -33.843  -5.944 -10.929  0.00  0.00     0.012 C 
ENDBRANCH   5   6
BRANCH   5   9
HETATM    9  N           1     -33.844  -4.019 -13.726  0.00  0.00    -0.066 N 
HETATM   10  H           1     -34.660  -3.952 -14.375  0.00  0.00     0.275 HD
HETATM   11  H           1     -33.182  -3.233 -13.919  0.00  0.00     0.275 HD
HETATM   12  H           1     -33.356  -4.931 -13.872  0.00  0.00     0.275 HD
ENDBRANCH   5   9
ENDBRANCH   1   5
BRANCH   3  13
HETATM   13  C           1     -35.609  -0.324 -12.125  0.00  0.00     0.189 C 
BRANCH  13  14
HETATM   14  C           1     -35.905   0.504 -13.368  0.00  0.00     0.014 C 
HETATM   15  C           1     -34.612   1.114 -13.892  0.00  0.00     0.012 C 
BRANCH  14  16
HETATM   16  C           1     -36.515  -0.391 -14.440  0.00  0.00     0.002 C 
HETATM   17  C           1     -35.826  -0.130 -15.772  0.00  0.00     0.005 C 
ENDBRANCH  14  16
ENDBRANCH  13  14
BRANCH  13  18
HETATM   18  C           1     -36.746  -0.184 -11.144  0.00  0.00     0.197 C 
HETATM   19  O           1     -37.765  -0.900 -11.263  0.00  0.00    -0.646 OA
HETATM   20  O           1     -36.672   0.646 -10.213  0.00  0.00    -0.646 OA
ENDBRANCH  13  18
ENDBRANCH   3  13
TORSDOF 7
ENDMDL
MODEL 2
REMARK VINA RESULT:      -5.9      2.032      4.942
REMARK  7 active torsions:
REMARK  status: ('A' for Active; 'I' for Inactive)
REMARK    1  A    between atoms: C_1  and  C_2 
REMARK    2  A    between atoms: C_1  and  C_11 
REMARK    3  A    between atoms: C_1  and  N_6 
REMARK       I    between atoms: C_2  and  N_19 
REMARK    4  A    between atoms: C_4  and  C_17 
REMARK    5  A    between atoms: C_4  and  C_9 
REMARK    6  A    between atoms: C_7  and  C_9 
REMARK    7  A    between atoms: C_9  and  N_19 
ROOT
HETATM    1  C           1     -36.770  -0.458 -13.041  0.00  0.00     0.249 C 
HETATM    2  H           1     -34.893  -0.504 -12.173  0.00  0.00     0.163 HD
HETATM    3  N           1     -35.867  -0.748 -12.054  0.00  0.00    -0.344 N 
HETATM    4  O           1     -37.935  -0.750 -12.899  0.00  0.00    -0.271 OA
ENDROOT
BRANCH   1   5
HETATM    5  C           1     -36.313   0.224 -14.307  0.00  0.00     0.278 C 
BRANCH   5   6
HETATM    6  C           1     -37.089  -0.331 -15.493  0.00  0.00     0.017 C 
HETATM    7  C           1     -36.116  -0.705 -16.604  0.00  0.00     0.012 C 
HETATM    8  C           1     -38.061   0.722 -16.005  0.00  0.00     0.012 C 
ENDBRANCH   5   6
BRANCH   5   9
HETATM    9  N           1     -34.847  -0.028 -14.507  0.00  0.00    -0.066 N 
HETATM   10  H           1     -34.670  -0.276 -15.507  0.00  0.00     0.275 HD
HETATM   11  H           1     -34.309   0.834 -14.263  0.00  0.00     0.275 HD
HETATM   12  H           1     -34.542  -0.816 -13.893  0.00  0.00     0.275 HD
ENDBRANCH   5   9
ENDBRANCH   1   5
BRANCH   3  13
HETATM   13  C           1     -36.308  -1.402 -10.838  0.00  0.00     0.189 C 
BRANCH  13  14
HETATM   14  C           1     -35.239  -2.383 -10.373  0.00  0.00     0.014 C 
HETATM   15  C           1     -35.600  -3.787 -10.838  0.00  0.00     0.012 C 
BRANCH  14  16
HETATM   16  C           1     -33.893  -1.983 -10.965  0.00  0.00     0.002 C 
HETATM   17  C           1     -33.119  -3.234 -11.358  0.00  0.00     0.005 C 
ENDBRANCH  14  16
ENDBRANCH  13  14
BRANCH  13  18
HETATM   18  C           1     -36.542  -0.368  -9.765  0.00  0.00     0.197 C 
HETATM   19  O           1     -37.052  -0.704  -8.673  0.00  0.00    -0.646 OA
HETATM   20  O           1     -36.227   0.825  -9.967  0.00  0.00    -0.646 OA
ENDBRANCH  13  18
ENDBRANCH   3  13
TORSDOF 7
ENDMDL
MODEL 3
REMARK VINA RESULT:      -5.7     11.630     13.997
REMARK  7 active torsions:
REMARK  status: ('A' for Active; 'I' for Inactive)
REMARK    1  A    between atoms: C_1  and  C_2 
REMARK    2  A    between atoms: C_1  and  C_11 
REMARK    3  A    between atoms: C_1  and  N_6 
REMARK       I    between atoms: C_2  and  N_19 
REMARK    4  A    between atoms: C_4  and  C_17 
REMARK    5  A    between atoms: C_4  and  C_9 
REMARK    6  A    between atoms: C_7  and  C_9 
REMARK    7  A    between atoms: C_9  and  N_19 
ROOT
HETATM    1  C           1     -22.088  -4.177  -7.369  0.00  0.00     0.249 C 
HETATM    2  H           1     -23.172  -5.428  -8.611  0.00  0.00     0.163 HD
HETATM    3  N           1     -22.745  -4.515  -8.521  0.00  0.00    -0.344 N 
HETATM    4  O           1     -21.578  -3.087  -7.261  0.00  0.00    -0.271 OA
ENDROOT
BRANCH   1   5
HETATM    5  C           1     -22.000  -5.167  -6.233  0.00  0.00     0.278 C 
BRANCH   5   6
HETATM    6  C           1     -21.196  -6.381  -6.678  0.00  0.00     0.017 C 
HETATM    7  C           1     -21.320  -7.482  -5.632  0.00  0.00     0.012 C 
HETATM    8  C           1     -19.732  -5.994  -6.834  0.00  0.00     0.012 C 
ENDBRANCH   5   6
BRANCH   5   9
HETATM    9  N           1     -23.382  -5.601  -5.841  0.00  0.00    -0.066 N 
HETATM   10  H           1     -23.738  -6.297  -6.534  0.00  0.00     0.275 HD
HETATM   11  H           1     -23.352  -6.040  -4.892  0.00  0.00     0.275 HD
HETATM   12  H           1     -24.016  -4.771  -5.822  0.00  0.00     0.275 HD
ENDBRANCH   5   9
ENDBRANCH   1   5
BRANCH   3  13
HETATM   13  C           1     -22.831  -3.563  -9.612  0.00  0.00     0.189 C 
BRANCH  13  14
HETATM   14  C           1     -21.966  -4.041 -10.771  0.00  0.00     0.014 C 
HETATM   15  C           1     -21.316  -2.841 -11.448  0.00  0.00     0.012 C 
BRANCH  14  16
HETATM   16  C           1     -20.883  -4.974 -10.244  0.00  0.00     0.002 C 
HETATM   17  C           1     -19.581  -4.202 -10.082  0.00  0.00     0.005 C 
ENDBRANCH  14  16
ENDBRANCH  13  14
BRANCH  13  18
HETATM   18  C           1     -24.264  -3.448 -10.068  0.00  0.00     0.197 C 
HETATM   19  O           1     -24.626  -3.994 -11.134  0.00  0.00    -0.646 OA
HETATM   20  O           1     -25.090  -2.808  -9.382  0.00  0.00    -0.646 OA
ENDBRANCH  13  18
ENDBRANCH   3  13
TORSDOF 7
ENDMDL
MODEL 4
REMARK VINA RESULT:      -5.5     14.140     16.959
REMARK  7 active torsions:
REMARK  status: ('A' for Active; 'I' for Inactive)
REMARK    1  A    between atoms: C_1  and  C_2 
REMARK    2  A    between atoms: C_1  and  C_11 
REMARK    3  A    between atoms: C_1  and  N_6 
REMARK       I    between atoms: C_2  and  N_19 
REMARK    4  A    between atoms: C_4  and  C_17 
REMARK    5  A    between atoms: C_4  and  C_9 
REMARK    6  A    between atoms: C_7  and  C_9 
REMARK    7  A    between atoms: C_9  and  N_19 
ROOT
HETATM    1  C           1     -21.026  -5.285  -6.220  0.00  0.00     0.249 C 
HETATM    2  H           1     -22.424  -6.768  -5.861  0.00  0.00     0.163 HD
HETATM    3  N           1     -21.489  -6.442  -5.654  0.00  0.00    -0.344 N 
HETATM    4  O           1     -19.909  -4.896  -5.972  0.00  0.00    -0.271 OA
ENDROOT
BRANCH   1   5
HETATM    5  C           1     -21.911  -4.493  -7.151  0.00  0.00     0.278 C 
BRANCH   5   6
HETATM    6  C           1     -21.724  -4.992  -8.577  0.00  0.00     0.017 C 
HETATM    7  C           1     -20.481  -4.349  -9.180  0.00  0.00     0.012 C 
HETATM    8  C           1     -22.941  -4.620  -9.412  0.00  0.00     0.012 C 
ENDBRANCH   5   6
BRANCH   5   9
HETATM    9  N           1     -21.539  -3.041  -7.078  0.00  0.00    -0.066 N 
HETATM   10  H           1     -21.020  -2.858  -6.190  0.00  0.00     0.275 HD
HETATM   11  H           1     -20.931  -2.797  -7.893  0.00  0.00     0.275 HD
HETATM   12  H           1     -22.406  -2.458  -7.102  0.00  0.00     0.275 HD
ENDBRANCH   5   9
ENDBRANCH   1   5
BRANCH   3  13
HETATM   13  C           1     -20.638  -7.203  -4.760  0.00  0.00     0.189 C 
BRANCH  13  14
HETATM   14  C           1     -21.408  -7.538  -3.490  0.00  0.00     0.014 C 
HETATM   15  C           1     -20.502  -8.303  -2.534  0.00  0.00     0.012 C 
BRANCH  14  16
HETATM   16  C           1     -21.875  -6.250  -2.825  0.00  0.00     0.002 C 
HETATM   17  C           1     -22.265  -6.536  -1.381  0.00  0.00     0.005 C 
ENDBRANCH  14  16
ENDBRANCH  13  14
BRANCH  13  18
HETATM   18  C           1     -20.207  -8.479  -5.440  0.00  0.00     0.197 C 
HETATM   19  O           1     -21.062  -9.331  -5.769  0.00  0.00    -0.646 OA
HETATM   20  O           1     -18.997  -8.686  -5.675  0.00  0.00    -0.646 OA
ENDBRANCH  13  18
ENDBRANCH   3  13
TORSDOF 7
ENDMDL
MODEL 5
REMARK VINA RESULT:      -5.3      1.648      5.144
REMARK  7 active torsions:
REMARK  status: ('A' for Active; 'I' for Inactive)
REMARK    1  A    between atoms: C_1  and  C_2 
REMARK    2  A    between atoms: C_1  and  C_11 
REMARK    3  A    between atoms: C_1  and  N_6 
REMARK       I    between atoms: C_2  and  N_19 
REMARK    4  A    between atoms: C_4  and  C_17 
REMARK    5  A    between atoms: C_4  and  C_9 
REMARK    6  A    between atoms: C_7  and  C_9 
REMARK    7  A    between atoms: C_9  and  N_19 
ROOT
HETATM    1  C           1     -35.979  -0.629 -13.631  0.00  0.00     0.249 C 
HETATM    2  H           1     -33.985  -1.141 -13.419  0.00  0.00     0.163 HD
HETATM    3  N           1     -34.936  -1.396 -13.185  0.00  0.00    -0.344 N 
HETATM    4  O           1     -37.115  -0.934 -13.351  0.00  0.00    -0.271 OA
ENDROOT
BRANCH   1   5
HETATM    5  C           1     -35.712   0.595 -14.472  0.00  0.00     0.278 C 
BRANCH   5   6
HETATM    6  C           1     -36.360   0.424 -15.839  0.00  0.00     0.017 C 
HETATM    7  C           1     -37.875   0.430 -15.686  0.00  0.00     0.012 C 
HETATM    8  C           1     -35.918  -0.898 -16.451  0.00  0.00     0.012 C 
ENDBRANCH   5   6
BRANCH   5   9
HETATM    9  N           1     -34.231   0.769 -14.641  0.00  0.00    -0.066 N 
HETATM   10  H           1     -33.992   1.786 -14.593  0.00  0.00     0.275 HD
HETATM   11  H           1     -33.731   0.259 -13.877  0.00  0.00     0.275 HD
HETATM   12  H           1     -33.938   0.386 -15.567  0.00  0.00     0.275 HD
ENDBRANCH   5   9
ENDBRANCH   1   5
BRANCH   3  13
HETATM   13  C           1     -35.194  -2.571 -12.377  0.00  0.00     0.189 C 
BRANCH  13  14
HETATM   14  C           1     -33.934  -3.425 -12.307  0.00  0.00     0.014 C 
HETATM   15  C           1     -33.071  -2.962 -11.141  0.00  0.00     0.012 C 
BRANCH  14  16
HETATM   16  C           1     -34.322  -4.884 -12.104  0.00  0.00     0.002 C 
HETATM   17  C           1     -33.884  -5.338 -10.718  0.00  0.00     0.005 C 
ENDBRANCH  14  16
ENDBRANCH  13  14
BRANCH  13  18
HETATM   18  C           1     -35.592  -2.147 -10.985  0.00  0.00     0.197 C 
HETATM   19  O           1     -36.472  -2.785 -10.365  0.00  0.00    -0.646 OA
HETATM   20  O           1     -35.045  -1.159 -10.450  0.00  0.00    -0.646 OA
ENDBRANCH  13  18
ENDBRANCH   3  13
TORSDOF 7
ENDMDL
MODEL 6
REMARK VINA RESULT:      -5.3     14.347     17.200
REMARK  7 active torsions:
REMARK  status: ('A' for Active; 'I' for Inactive)
REMARK    1  A    between atoms: C_1  and  C_2 
REMARK    2  A    between atoms: C_1  and  C_11 
REMARK    3  A    between atoms: C_1  and  N_6 
REMARK       I    between atoms: C_2  and  N_19 
REMARK    4  A    between atoms: C_4  and  C_17 
REMARK    5  A    between atoms: C_4  and  C_9 
REMARK    6  A    between atoms: C_7  and  C_9 
REMARK    7  A    between atoms: C_9  and  N_19 
ROOT
HETATM    1  C           1     -21.657  -5.658  -5.624  0.00  0.00     0.249 C 
HETATM    2  H           1     -19.888  -6.329  -4.785  0.00  0.00     0.163 HD
HETATM    3  N           1     -20.894  -6.437  -4.797  0.00  0.00    -0.344 N 
HETATM    4  O           1     -22.858  -5.787  -5.638  0.00  0.00    -0.271 OA
ENDROOT
BRANCH   1   5
HETATM    5  C           1     -20.998  -4.638  -6.520  0.00  0.00     0.278 C 
BRANCH   5   6
HETATM    6  C           1     -21.375  -4.914  -7.969  0.00  0.00     0.017 C 
HETATM    7  C           1     -20.125  -4.855  -8.837  0.00  0.00     0.012 C 
HETATM    8  C           1     -22.372  -3.867  -8.445  0.00  0.00     0.012 C 
ENDBRANCH   5   6
BRANCH   5   9
HETATM    9  N           1     -19.508  -4.728  -6.366  0.00  0.00    -0.066 N 
HETATM   10  H           1     -19.054  -3.956  -6.906  0.00  0.00     0.275 HD
HETATM   11  H           1     -19.257  -4.638  -5.355  0.00  0.00     0.275 HD
HETATM   12  H           1     -19.175  -5.649  -6.729  0.00  0.00     0.275 HD
ENDBRANCH   5   9
ENDBRANCH   1   5
BRANCH   3  13
HETATM   13  C           1     -21.528  -7.416  -3.936  0.00  0.00     0.189 C 
BRANCH  13  14
HETATM   14  C           1     -20.704  -8.698  -3.932  0.00  0.00     0.014 C 
HETATM   15  C           1     -21.578  -9.865  -4.370  0.00  0.00     0.012 C 
BRANCH  14  16
HETATM   16  C           1     -19.533  -8.550  -4.896  0.00  0.00     0.002 C 
HETATM   17  C           1     -18.389  -9.449  -4.446  0.00  0.00     0.005 C 
ENDBRANCH  14  16
ENDBRANCH  13  14
BRANCH  13  18
HETATM   18  C           1     -21.615  -6.871  -2.532  0.00  0.00     0.197 C 
HETATM   19  O           1     -22.401  -5.932  -2.275  0.00  0.00    -0.646 OA
HETATM   20  O           1     -20.904  -7.356  -1.626  0.00  0.00    -0.646 OA
ENDBRANCH  13  18
ENDBRANCH   3  13
TORSDOF 7
ENDMDL
MODEL 7
REMARK VINA RESULT:      -5.1     16.865     18.742
REMARK  7 active torsions:
REMARK  status: ('A' for Active; 'I' for Inactive)
REMARK    1  A    between atoms: C_1  and  C_2 
REMARK    2  A    between atoms: C_1  and  C_11 
REMARK    3  A    between atoms: C_1  and  N_6 
REMARK       I    between atoms: C_2  and  N_19 
REMARK    4  A    between atoms: C_4  and  C_17 
REMARK    5  A    between atoms: C_4  and  C_9 
REMARK    6  A    between atoms: C_7  and  C_9 
REMARK    7  A    between atoms: C_9  and  N_19 
ROOT
HETATM    1  C           1     -21.840 -10.417  -2.800  0.00  0.00     0.249 C 
HETATM    2  H           1     -20.189  -9.371  -2.120  0.00  0.00     0.163 HD
HETATM    3  N           1     -20.824  -9.505  -2.897  0.00  0.00    -0.344 N 
HETATM    4  O           1     -22.597 -10.578  -3.728  0.00  0.00    -0.271 OA
ENDROOT
BRANCH   1   5
HETATM    5  C           1     -22.014 -11.222  -1.536  0.00  0.00     0.278 C 
BRANCH   5   6
HETATM    6  C           1     -23.306 -10.808  -0.844  0.00  0.00     0.017 C 
HETATM    7  C           1     -23.090  -9.489  -0.113  0.00  0.00     0.012 C 
HETATM    8  C           1     -23.715 -11.880   0.156  0.00  0.00     0.012 C 
ENDBRANCH   5   6
BRANCH   5   9
HETATM    9  N           1     -20.855 -10.967  -0.618  0.00  0.00    -0.066 N 
HETATM   10  H           1     -21.095 -10.193   0.042  0.00  0.00     0.275 HD
HETATM   11  H           1     -20.645 -11.835  -0.074  0.00  0.00     0.275 HD
HETATM   12  H           1     -20.017 -10.697  -1.181  0.00  0.00     0.275 HD
ENDBRANCH   5   9
ENDBRANCH   1   5
BRANCH   3  13
HETATM   13  C           1     -20.655  -8.733  -4.112  0.00  0.00     0.189 C 
BRANCH  13  14
HETATM   14  C           1     -20.887  -7.258  -3.813  0.00  0.00     0.014 C 
HETATM   15  C           1     -22.158  -6.791  -4.508  0.00  0.00     0.012 C 
BRANCH  14  16
HETATM   16  C           1     -21.030  -7.063  -2.309  0.00  0.00     0.002 C 
HETATM   17  C           1     -22.240  -6.184  -2.023  0.00  0.00     0.005 C 
ENDBRANCH  14  16
ENDBRANCH  13  14
BRANCH  13  18
HETATM   18  C           1     -19.256  -8.926  -4.641  0.00  0.00     0.197 C 
HETATM   19  O           1     -18.322  -9.198  -3.854  0.00  0.00    -0.646 OA
HETATM   20  O           1     -19.028  -8.814  -5.865  0.00  0.00    -0.646 OA
ENDBRANCH  13  18
ENDBRANCH   3  13
TORSDOF 7
ENDMDL
MODEL 8
REMARK VINA RESULT:      -5.1     16.281     17.963
REMARK  7 active torsions:
REMARK  status: ('A' for Active; 'I' for Inactive)
REMARK    1  A    between atoms: C_1  and  C_2 
REMARK    2  A    between atoms: C_1  and  C_11 
REMARK    3  A    between atoms: C_1  and  N_6 
REMARK       I    between atoms: C_2  and  N_19 
REMARK    4  A    between atoms: C_4  and  C_17 
REMARK    5  A    between atoms: C_4  and  C_9 
REMARK    6  A    between atoms: C_7  and  C_9 
REMARK    7  A    between atoms: C_9  and  N_19 
ROOT
HETATM    1  C           1     -20.924  -7.926  -5.318  0.00  0.00     0.249 C 
HETATM    2  H           1     -22.464  -7.739  -3.948  0.00  0.00     0.163 HD
HETATM    3  N           1     -21.645  -8.274  -4.207  0.00  0.00    -0.344 N 
HETATM    4  O           1     -19.946  -8.565  -5.627  0.00  0.00    -0.271 OA
ENDROOT
BRANCH   1   5
HETATM    5  C           1     -21.350  -6.746  -6.156  0.00  0.00     0.278 C 
BRANCH   5   6
HETATM    6  C           1     -20.137  -5.879  -6.467  0.00  0.00     0.017 C 
HETATM    7  C           1     -20.120  -4.677  -5.533  0.00  0.00     0.012 C 
HETATM    8  C           1     -20.212  -5.399  -7.910  0.00  0.00     0.012 C 
ENDBRANCH   5   6
BRANCH   5   9
HETATM    9  N           1     -22.360  -5.935  -5.397  0.00  0.00    -0.066 N 
HETATM   10  H           1     -22.896  -6.559  -4.753  0.00  0.00     0.275 HD
HETATM   11  H           1     -21.867  -5.201  -4.839  0.00  0.00     0.275 HD
HETATM   12  H           1     -23.018  -5.480  -6.069  0.00  0.00     0.275 HD
ENDBRANCH   5   9
ENDBRANCH   1   5
BRANCH   3  13
HETATM   13  C           1     -21.236  -9.409  -3.403  0.00  0.00     0.189 C 
BRANCH  13  14
HETATM   14  C           1     -21.472  -9.099  -1.931  0.00  0.00     0.014 C 
HETATM   15  C           1     -20.521  -9.928  -1.079  0.00  0.00     0.012 C 
BRANCH  14  16
HETATM   16  C           1     -21.222  -7.618  -1.678  0.00  0.00     0.002 C 
HETATM   17  C           1     -22.355  -7.048  -0.836  0.00  0.00     0.005 C 
ENDBRANCH  14  16
ENDBRANCH  13  14
BRANCH  13  18
HETATM   18  C           1     -22.041 -10.622  -3.798  0.00  0.00     0.197 C 
HETATM   19  O           1     -23.098 -10.896  -3.187  0.00  0.00    -0.646 OA
HETATM   20  O           1     -21.654 -11.352  -4.736  0.00  0.00    -0.646 OA
ENDBRANCH  13  18
ENDBRANCH   3  13
TORSDOF 7
ENDMDL
MODEL 9
REMARK VINA RESULT:      -5.1     18.236     20.036
REMARK  7 active torsions:
REMARK  status: ('A' for Active; 'I' for Inactive)
REMARK    1  A    between atoms: C_1  and  C_2 
REMARK    2  A    between atoms: C_1  and  C_11 
REMARK    3  A    between atoms: C_1  and  N_6 
REMARK       I    between atoms: C_2  and  N_19 
REMARK    4  A    between atoms: C_4  and  C_17 
REMARK    5  A    between atoms: C_4  and  C_9 
REMARK    6  A    between atoms: C_7  and  C_9 
REMARK    7  A    between atoms: C_9  and  N_19 
ROOT
HETATM    1  C           1     -19.669 -10.880  -1.304  0.00  0.00     0.249 C 
HETATM    2  H           1     -21.095  -9.834  -2.379  0.00  0.00     0.163 HD
HETATM    3  N           1     -20.868 -10.244  -1.482  0.00  0.00    -0.344 N 
HETATM    4  O           1     -19.399 -11.370  -0.233  0.00  0.00    -0.271 OA
ENDROOT
BRANCH   1   5
HETATM    5  C           1     -18.686 -10.971  -2.445  0.00  0.00     0.278 C 
BRANCH   5   6
HETATM    6  C           1     -18.194  -9.575  -2.804  0.00  0.00     0.017 C 
HETATM    7  C           1     -18.744  -9.179  -4.168  0.00  0.00     0.012 C 
HETATM    8  C           1     -16.673  -9.567  -2.849  0.00  0.00     0.012 C 
ENDBRANCH   5   6
BRANCH   5   9
HETATM    9  N           1     -19.360 -11.583  -3.638  0.00  0.00    -0.066 N 
HETATM   10  H           1     -19.071 -12.583  -3.726  0.00  0.00     0.275 HD
HETATM   11  H           1     -20.397 -11.531  -3.515  0.00  0.00     0.275 HD
HETATM   12  H           1     -19.084 -11.062  -4.500  0.00  0.00     0.275 HD
ENDBRANCH   5   9
ENDBRANCH   1   5
BRANCH   3  13
HETATM   13  C           1     -21.813 -10.158  -0.386  0.00  0.00     0.189 C 
BRANCH  13  14
HETATM   14  C           1     -21.930  -8.711   0.072  0.00  0.00     0.014 C 
HETATM   15  C           1     -21.178  -8.530   1.384  0.00  0.00     0.012 C 
BRANCH  14  16
HETATM   16  C           1     -21.331  -7.794  -0.987  0.00  0.00     0.002 C 
HETATM   17  C           1     -22.311  -6.671  -1.301  0.00  0.00     0.005 C 
ENDBRANCH  14  16
ENDBRANCH  13  14
BRANCH  13  18
HETATM   18  C           1     -23.163 -10.651  -0.845  0.00  0.00     0.197 C 
HETATM   19  O           1     -24.134 -10.640  -0.056  0.00  0.00    -0.646 OA
HETATM   20  O           1     -23.312 -11.071  -2.013  0.00  0.00    -0.646 OA
ENDBRANCH  13  18
ENDBRANCH   3  13
TORSDOF 7
ENDMDL
