MODEL 1
REMARK VINA RESULT:      -6.8      0.000      0.000
REMARK  11 active torsions:
REMARK  status: ('A' for Active; 'I' for Inactive)
REMARK    1  A    between atoms: C_1  and  C_3 
REMARK    2  A    between atoms: C_1  and  C_18 
REMARK    3  A    between atoms: C_3  and  N_4 
REMARK    4  A    between atoms: C_9  and  C_10 
REMARK    5  A    between atoms: C_10  and  C_11 
REMARK    6  A    between atoms: C_11  and  C_12 
REMARK    7  A    between atoms: C_11  and  N_21 
REMARK       I    between atoms: C_12  and  N_17 
REMARK    8  A    between atoms: N_17  and  C_25 
REMARK    9  A    between atoms: C_18  and  C_22 
REMARK   10  A    between atoms: C_22  and  C_25 
REMARK   11  A    between atoms: C_25  and  C_26 
ROOT
HETATM    1  C           1     -34.470  -2.963 -11.736  0.00  0.00     0.249 C 
HETATM    2  O           1     -33.674  -2.505 -10.951  0.00  0.00    -0.271 OA
HETATM    3  N           1     -35.486  -2.180 -12.216  0.00  0.00    -0.345 N 
HETATM    4  H           1     -36.153  -2.563 -12.873  0.00  0.00     0.163 HD
ENDROOT
BRANCH   1   5
HETATM    5  C           1     -34.345  -4.397 -12.188  0.00  0.00     0.280 C 
BRANCH   5   6
HETATM    6  C           1     -33.271  -5.097 -11.366  0.00  0.00     0.101 C 
BRANCH   6   7
HETATM    7  C           1     -33.861  -6.295 -10.689  0.00  0.00     0.028 A 
HETATM    8  C           1     -35.058  -6.299 -10.013  0.00  0.00     0.114 A 
HETATM    9  N           1     -35.205  -7.581  -9.561  0.00  0.00    -0.360 N 
HETATM   10  H           1     -36.011  -7.953  -8.999  0.00  0.00     0.166 HD
HETATM   11  C           1     -34.112  -8.289  -9.971  0.00  0.00     0.180 A 
HETATM   12  N           1     -33.282  -7.536 -10.656  0.00  0.00    -0.355 N 
ATOM     13  HN          1     -32.395  -7.816 -11.075  1.00  0.00     0.166 HD
ENDBRANCH   6   7
ENDBRANCH   5   6
BRANCH   5  14
HETATM   14  N           1     -33.966  -4.432 -13.639  0.00  0.00    -0.066 N 
HETATM   15  H           1     -34.778  -4.774 -14.203  0.00  0.00     0.275 HD
HETATM   16  H           1     -33.702  -3.471 -13.953  0.00  0.00     0.275 HD
HETATM   17  H           1     -33.154  -5.077 -13.771  0.00  0.00     0.275 HD
ENDBRANCH   5  14
ENDBRANCH   1   5
BRANCH   3  18
HETATM   18  C           1     -35.606  -0.802 -11.781  0.00  0.00     0.185 C 
BRANCH  18  19
HETATM   19  C           1     -36.102   0.055 -12.939  0.00  0.00     0.036 C 
BRANCH  19  20
HETATM   20  C           1     -34.919   0.755 -13.595  0.00  0.00     0.004 C 
BRANCH  20  21
HETATM   21  C           1     -34.928   0.474 -15.091  0.00  0.00     0.027 C 
BRANCH  21  22
HETATM   22  C           1     -36.359   0.236 -15.556  0.00  0.00     0.229 C 
BRANCH  22  23
HETATM   23  N           1     -36.345  -0.419 -16.905  0.00  0.00    -0.079 N 
HETATM   24  H           1     -35.906  -1.364 -16.830  0.00  0.00     0.274 HD
HETATM   25  H           1     -37.325  -0.516 -17.255  0.00  0.00     0.274 HD
HETATM   26  H           1     -35.794   0.169 -17.572  0.00  0.00     0.274 HD
ENDBRANCH  22  23
ENDBRANCH  21  22
ENDBRANCH  20  21
ENDBRANCH  19  20
ENDBRANCH  18  19
BRANCH  18  27
HETATM   27  C           1     -36.589  -0.720 -10.639  0.00  0.00     0.196 C 
HETATM   28  O           1     -37.784  -1.042 -10.818  0.00  0.00    -0.646 OA
HETATM   29  O           1     -36.209  -0.331  -9.513  0.00  0.00    -0.646 OA
ENDBRANCH  18  27
ENDBRANCH   3  18
TORSDOF 11
ENDMDL
MODEL 2
REMARK VINA RESULT:      -6.8      4.181      6.836
REMARK  11 active torsions:
REMARK  status: ('A' for Active; 'I' for Inactive)
REMARK    1  A    between atoms: C_1  and  C_3 
REMARK    2  A    between atoms: C_1  and  C_18 
REMARK    3  A    between atoms: C_3  and  N_4 
REMARK    4  A    between atoms: C_9  and  C_10 
REMARK    5  A    between atoms: C_10  and  C_11 
REMARK    6  A    between atoms: C_11  and  C_12 
REMARK    7  A    between atoms: C_11  and  N_21 
REMARK       I    between atoms: C_12  and  N_17 
REMARK    8  A    between atoms: N_17  and  C_25 
REMARK    9  A    between atoms: C_18  and  C_22 
REMARK   10  A    between atoms: C_22  and  C_25 
REMARK   11  A    between atoms: C_25  and  C_26 
ROOT
HETATM    1  C           1     -33.867  -4.457 -15.511  0.00  0.00     0.249 C 
HETATM    2  O           1     -35.012  -4.823 -15.629  0.00  0.00    -0.271 OA
HETATM    3  N           1     -33.413  -4.010 -14.298  0.00  0.00    -0.345 N 
HETATM    4  H           1     -32.455  -3.703 -14.199  0.00  0.00     0.163 HD
ENDROOT
BRANCH   1   5
HETATM    5  C           1     -32.937  -4.491 -16.699  0.00  0.00     0.280 C 
BRANCH   5   6
HETATM    6  C           1     -31.500  -4.639 -16.215  0.00  0.00     0.101 C 
BRANCH   6   7
HETATM    7  C           1     -30.790  -5.650 -17.060  0.00  0.00     0.028 A 
HETATM    8  C           1     -29.616  -5.417 -17.736  0.00  0.00     0.114 A 
HETATM    9  N           1     -29.332  -6.595 -18.369  0.00  0.00    -0.360 N 
HETATM   10  H           1     -28.500  -6.786 -18.983  0.00  0.00     0.166 HD
HETATM   11  C           1     -30.326  -7.479 -18.059  0.00  0.00     0.180 A 
HETATM   12  N           1     -31.222  -6.934 -17.269  0.00  0.00    -0.355 N 
ATOM     13  HN          1     -32.061  -7.373 -16.890  1.00  0.00     0.166 HD
ENDBRANCH   6   7
ENDBRANCH   5   6
BRANCH   5  14
HETATM   14  N           1     -33.072  -3.216 -17.477  0.00  0.00    -0.066 N 
HETATM   15  H           1     -33.202  -2.417 -16.815  0.00  0.00     0.275 HD
HETATM   16  H           1     -32.210  -3.062 -18.046  0.00  0.00     0.275 HD
HETATM   17  H           1     -33.901  -3.282 -18.110  0.00  0.00     0.275 HD
ENDBRANCH   5  14
ENDBRANCH   1   5
BRANCH   3  18
HETATM   18  C           1     -34.308  -3.975 -13.158  0.00  0.00     0.185 C 
BRANCH  18  19
HETATM   19  C           1     -33.670  -4.716 -11.989  0.00  0.00     0.036 C 
BRANCH  19  20
HETATM   20  C           1     -34.604  -5.822 -11.517  0.00  0.00     0.004 C 
BRANCH  20  21
HETATM   21  C           1     -33.959  -6.573 -10.360  0.00  0.00     0.027 C 
BRANCH  21  22
HETATM   22  C           1     -34.639  -7.925 -10.190  0.00  0.00     0.229 C 
BRANCH  22  23
HETATM   23  N           1     -33.600  -9.005 -10.133  0.00  0.00    -0.079 N 
HETATM   24  H           1     -33.700  -9.540  -9.240  0.00  0.00     0.274 HD
HETATM   25  H           1     -33.725  -9.653 -10.943  0.00  0.00     0.274 HD
HETATM   26  H           1     -32.648  -8.575 -10.175  0.00  0.00     0.274 HD
ENDBRANCH  22  23
ENDBRANCH  21  22
ENDBRANCH  20  21
ENDBRANCH  19  20
ENDBRANCH  18  19
BRANCH  18  27
HETATM   27  C           1     -34.564  -2.542 -12.765  0.00  0.00     0.196 C 
HETATM   28  O           1     -35.091  -1.754 -13.580  0.00  0.00    -0.646 OA
HETATM   29  O           1     -34.250  -2.141 -11.623  0.00  0.00    -0.646 OA
ENDBRANCH  18  27
ENDBRANCH   3  18
TORSDOF 11
ENDMDL
MODEL 3
REMARK VINA RESULT:      -6.7      1.705      7.186
REMARK  11 active torsions:
REMARK  status: ('A' for Active; 'I' for Inactive)
REMARK    1  A    between atoms: C_1  and  C_3 
REMARK    2  A    between atoms: C_1  and  C_18 
REMARK    3  A    between atoms: C_3  and  N_4 
REMARK    4  A    between atoms: C_9  and  C_10 
REMARK    5  A    between atoms: C_10  and  C_11 
REMARK    6  A    between atoms: C_11  and  C_12 
REMARK    7  A    between atoms: C_11  and  N_21 
REMARK       I    between atoms: C_12  and  N_17 
REMARK    8  A    between atoms: N_17  and  C_25 
REMARK    9  A    between atoms: C_18  and  C_22 
REMARK   10  A    between atoms: C_22  and  C_25 
REMARK   11  A    between atoms: C_25  and  C_26 
ROOT
HETATM    1  C           1     -34.965  -1.493 -11.688  0.00  0.00     0.249 C 
HETATM    2  O           1     -33.908  -1.173 -11.198  0.00  0.00    -0.271 OA
HETATM    3  N           1     -35.280  -2.819 -11.830  0.00  0.00    -0.345 N 
HETATM    4  H           1     -36.165  -3.087 -12.239  0.00  0.00     0.163 HD
ENDROOT
BRANCH   1   5
HETATM    5  C           1     -35.939  -0.434 -12.142  0.00  0.00     0.280 C 
BRANCH   5   6
HETATM    6  C           1     -35.293   0.419 -13.226  0.00  0.00     0.101 C 
BRANCH   6   7
HETATM    7  C           1     -35.756  -0.046 -14.571  0.00  0.00     0.028 A 
HETATM    8  C           1     -36.984   0.243 -15.117  0.00  0.00     0.114 A 
HETATM    9  N           1     -36.983  -0.374 -16.337  0.00  0.00    -0.360 N 
HETATM   10  H           1     -37.766  -0.367 -17.038  0.00  0.00     0.166 HD
HETATM   11  C           1     -35.778  -1.002 -16.479  0.00  0.00     0.180 A 
HETATM   12  N           1     -35.016  -0.821 -15.426  0.00  0.00    -0.355 N 
ATOM     13  HN          1     -34.073  -1.180 -15.275  1.00  0.00     0.166 HD
ENDBRANCH   6   7
ENDBRANCH   5   6
BRANCH   5  14
HETATM   14  N           1     -36.311   0.436 -10.978  0.00  0.00    -0.066 N 
HETATM   15  H           1     -37.148   0.034 -10.497  0.00  0.00     0.275 HD
HETATM   16  H           1     -35.511   0.480 -10.307  0.00  0.00     0.275 HD
HETATM   17  H           1     -36.533   1.398 -11.320  0.00  0.00     0.275 HD
ENDBRANCH   5  14
ENDBRANCH   1   5
BRANCH   3  18
HETATM   18  C           1     -34.344  -3.836 -11.393  0.00  0.00     0.185 C 
BRANCH  18  19
HETATM   19  C           1     -35.099  -5.125 -11.093  0.00  0.00     0.036 C 
BRANCH  19  20
HETATM   20  C           1     -34.128  -6.169 -10.557  0.00  0.00     0.004 C 
BRANCH  20  21
HETATM   21  C           1     -34.867  -7.481 -10.329  0.00  0.00     0.027 C 
BRANCH  21  22
HETATM   22  C           1     -33.983  -8.431  -9.532  0.00  0.00     0.229 C 
BRANCH  22  23
HETATM   23  N           1     -33.453  -9.502 -10.439  0.00  0.00    -0.079 N 
HETATM   24  H           1     -33.484  -9.169 -11.429  0.00  0.00     0.274 HD
HETATM   25  H           1     -32.466  -9.724 -10.176  0.00  0.00     0.274 HD
HETATM   26  H           1     -34.041 -10.361 -10.342  0.00  0.00     0.274 HD
ENDBRANCH  22  23
ENDBRANCH  21  22
ENDBRANCH  20  21
ENDBRANCH  19  20
ENDBRANCH  18  19
BRANCH  18  27
HETATM   27  C           1     -33.333  -4.088 -12.484  0.00  0.00     0.196 C 
HETATM   28  O           1     -33.682  -4.040 -13.683  0.00  0.00    -0.646 OA
HETATM   29  O           1     -32.146  -4.345 -12.189  0.00  0.00    -0.646 OA
ENDBRANCH  18  27
ENDBRANCH   3  18
TORSDOF 11
ENDMDL
MODEL 4
REMARK VINA RESULT:      -6.3     11.096     12.604
REMARK  11 active torsions:
REMARK  status: ('A' for Active; 'I' for Inactive)
REMARK    1  A    between atoms: C_1  and  C_3 
REMARK    2  A    between atoms: C_1  and  C_18 
REMARK    3  A    between atoms: C_3  and  N_4 
REMARK    4  A    between atoms: C_9  and  C_10 
REMARK    5  A    between atoms: C_10  and  C_11 
REMARK    6  A    between atoms: C_11  and  C_12 
REMARK    7  A    between atoms: C_11  and  N_21 
REMARK       I    between atoms: C_12  and  N_17 
REMARK    8  A    between atoms: N_17  and  C_25 
REMARK    9  A    between atoms: C_18  and  C_22 
REMARK   10  A    between atoms: C_22  and  C_25 
REMARK   11  A    between atoms: C_25  and  C_26 
ROOT
HETATM    1  C           1     -25.908  -6.845 -19.339  0.00  0.00     0.249 C 
HETATM    2  O           1     -25.058  -6.304 -18.671  0.00  0.00    -0.271 OA
HETATM    3  N           1     -27.229  -6.544 -19.140  0.00  0.00    -0.345 N 
HETATM    4  H           1     -27.940  -6.997 -19.699  0.00  0.00     0.163 HD
ENDROOT
BRANCH   1   5
HETATM    5  C           1     -25.513  -7.851 -20.393  0.00  0.00     0.280 C 
BRANCH   5   6
HETATM    6  C           1     -24.634  -7.175 -21.436  0.00  0.00     0.101 C 
BRANCH   6   7
HETATM    7  C           1     -23.418  -8.013 -21.683  0.00  0.00     0.028 A 
HETATM    8  C           1     -23.090  -8.577 -22.893  0.00  0.00     0.114 A 
HETATM    9  N           1     -21.920  -9.247 -22.666  0.00  0.00    -0.360 N 
HETATM   10  H           1     -21.374  -9.801 -23.373  0.00  0.00     0.166 HD
HETATM   11  C           1     -21.592  -9.068 -21.353  0.00  0.00     0.180 A 
HETATM   12  N           1     -22.481  -8.326 -20.733  0.00  0.00    -0.355 N 
ATOM     13  HN          1     -22.475  -8.041 -19.753  1.00  0.00     0.166 HD
ENDBRANCH   6   7
ENDBRANCH   5   6
BRANCH   5  14
HETATM   14  N           1     -26.747  -8.391 -21.053  0.00  0.00    -0.066 N 
HETATM   15  H           1     -27.581  -8.181 -20.459  0.00  0.00     0.275 HD
HETATM   16  H           1     -26.865  -7.944 -21.990  0.00  0.00     0.275 HD
HETATM   17  H           1     -26.654  -9.425 -21.170  0.00  0.00     0.275 HD
ENDBRANCH   5  14
ENDBRANCH   1   5
BRANCH   3  18
HETATM   18  C           1     -27.608  -5.578 -18.127  0.00  0.00     0.185 C 
BRANCH  18  19
HETATM   19  C           1     -28.970  -4.989 -18.471  0.00  0.00     0.036 C 
BRANCH  19  20
HETATM   20  C           1     -29.323  -3.903 -17.463  0.00  0.00     0.004 C 
BRANCH  20  21
HETATM   21  C           1     -30.825  -3.653 -17.490  0.00  0.00     0.027 C 
BRANCH  21  22
HETATM   22  C           1     -31.548  -4.832 -16.854  0.00  0.00     0.229 C 
BRANCH  22  23
HETATM   23  N           1     -32.820  -4.356 -16.218  0.00  0.00    -0.079 N 
HETATM   24  H           1     -32.741  -3.337 -15.997  0.00  0.00     0.274 HD
HETATM   25  H           1     -33.617  -4.508 -16.876  0.00  0.00     0.274 HD
HETATM   26  H           1     -32.990  -4.890 -15.335  0.00  0.00     0.274 HD
ENDBRANCH  22  23
ENDBRANCH  21  22
ENDBRANCH  20  21
ENDBRANCH  19  20
ENDBRANCH  18  19
BRANCH  18  27
HETATM   27  C           1     -27.681  -6.262 -16.784  0.00  0.00     0.196 C 
HETATM   28  O           1     -28.552  -7.133 -16.573  0.00  0.00    -0.646 OA
HETATM   29  O           1     -26.869  -5.958 -15.883  0.00  0.00    -0.646 OA
ENDBRANCH  18  27
ENDBRANCH   3  18
TORSDOF 11
ENDMDL
MODEL 5
REMARK VINA RESULT:      -6.2     13.410     16.475
REMARK  11 active torsions:
REMARK  status: ('A' for Active; 'I' for Inactive)
REMARK    1  A    between atoms: C_1  and  C_3 
REMARK    2  A    between atoms: C_1  and  C_18 
REMARK    3  A    between atoms: C_3  and  N_4 
REMARK    4  A    between atoms: C_9  and  C_10 
REMARK    5  A    between atoms: C_10  and  C_11 
REMARK    6  A    between atoms: C_11  and  C_12 
REMARK    7  A    between atoms: C_11  and  N_21 
REMARK       I    between atoms: C_12  and  N_17 
REMARK    8  A    between atoms: N_17  and  C_25 
REMARK    9  A    between atoms: C_18  and  C_22 
REMARK   10  A    between atoms: C_22  and  C_25 
REMARK   11  A    between atoms: C_25  and  C_26 
ROOT
HETATM    1  C           1     -20.718  -4.896  -6.128  0.00  0.00     0.249 C 
HETATM    2  O           1     -19.960  -4.374  -5.345  0.00  0.00    -0.271 OA
HETATM    3  N           1     -21.295  -6.100  -5.821  0.00  0.00    -0.345 N 
HETATM    4  H           1     -21.931  -6.537  -6.476  0.00  0.00     0.163 HD
ENDROOT
BRANCH   1   5
HETATM    5  C           1     -21.030  -4.223  -7.442  0.00  0.00     0.280 C 
BRANCH   5   6
HETATM    6  C           1     -21.764  -5.199  -8.352  0.00  0.00     0.101 C 
BRANCH   6   7
HETATM    7  C           1     -22.867  -4.483  -9.065  0.00  0.00     0.028 A 
HETATM    8  C           1     -23.002  -4.419 -10.432  0.00  0.00     0.114 A 
HETATM    9  N           1     -24.130  -3.676 -10.643  0.00  0.00    -0.360 N 
HETATM   10  H           1     -24.541  -3.421 -11.576  0.00  0.00     0.166 HD
HETATM   11  C           1     -24.625  -3.325  -9.420  0.00  0.00     0.180 A 
HETATM   12  N           1     -23.881  -3.799  -8.447  0.00  0.00    -0.355 N 
ATOM     13  HN          1     -24.027  -3.683  -7.444  1.00  0.00     0.166 HD
ENDBRANCH   6   7
ENDBRANCH   5   6
BRANCH   5  14
HETATM   14  N           1     -19.751  -3.794  -8.099  0.00  0.00    -0.066 N 
HETATM   15  H           1     -19.787  -2.767  -8.293  0.00  0.00     0.275 HD
HETATM   16  H           1     -18.947  -4.000  -7.464  0.00  0.00     0.275 HD
HETATM   17  H           1     -19.629  -4.315  -8.996  0.00  0.00     0.275 HD
ENDBRANCH   5  14
ENDBRANCH   1   5
BRANCH   3  18
HETATM   18  C           1     -20.995  -6.747  -4.559  0.00  0.00     0.185 C 
BRANCH  18  19
HETATM   19  C           1     -22.205  -6.650  -3.638  0.00  0.00     0.036 C 
BRANCH  19  20
HETATM   20  C           1     -21.779  -6.064  -2.298  0.00  0.00     0.004 C 
BRANCH  20  21
HETATM   21  C           1     -22.294  -6.948  -1.170  0.00  0.00     0.027 C 
BRANCH  21  22
HETATM   22  C           1     -21.241  -7.992  -0.822  0.00  0.00     0.229 C 
BRANCH  22  23
HETATM   23  N           1     -21.655  -9.324  -1.374  0.00  0.00    -0.079 N 
HETATM   24  H           1     -22.014  -9.203  -2.348  0.00  0.00     0.274 HD
HETATM   25  H           1     -20.832  -9.968  -1.384  0.00  0.00     0.274 HD
HETATM   26  H           1     -22.408  -9.731  -0.774  0.00  0.00     0.274 HD
ENDBRANCH  22  23
ENDBRANCH  21  22
ENDBRANCH  20  21
ENDBRANCH  19  20
ENDBRANCH  18  19
BRANCH  18  27
HETATM   27  C           1     -20.666  -8.198  -4.805  0.00  0.00     0.196 C 
HETATM   28  O           1     -19.982  -8.834  -3.974  0.00  0.00    -0.646 OA
HETATM   29  O           1     -21.077  -8.766  -5.841  0.00  0.00    -0.646 OA
ENDBRANCH  18  27
ENDBRANCH   3  18
TORSDOF 11
ENDMDL
MODEL 6
REMARK VINA RESULT:      -6.2      9.800     12.127
REMARK  11 active torsions:
REMARK  status: ('A' for Active; 'I' for Inactive)
REMARK    1  A    between atoms: C_1  and  C_3 
REMARK    2  A    between atoms: C_1  and  C_18 
REMARK    3  A    between atoms: C_3  and  N_4 
REMARK    4  A    between atoms: C_9  and  C_10 
REMARK    5  A    between atoms: C_10  and  C_11 
REMARK    6  A    between atoms: C_11  and  C_12 
REMARK    7  A    between atoms: C_11  and  N_21 
REMARK       I    between atoms: C_12  and  N_17 
REMARK    8  A    between atoms: N_17  and  C_25 
REMARK    9  A    between atoms: C_18  and  C_22 
REMARK   10  A    between atoms: C_22  and  C_25 
REMARK   11  A    between atoms: C_25  and  C_26 
ROOT
HETATM    1  C           1     -28.213  -6.178 -18.724  0.00  0.00     0.249 C 
HETATM    2  O           1     -28.434  -5.162 -19.338  0.00  0.00    -0.271 OA
HETATM    3  N           1     -27.351  -7.113 -19.234  0.00  0.00    -0.345 N 
HETATM    4  H           1     -27.165  -7.964 -18.720  0.00  0.00     0.163 HD
ENDROOT
BRANCH   1   5
HETATM    5  C           1     -28.885  -6.419 -17.394  0.00  0.00     0.280 C 
BRANCH   5   6
HETATM    6  C           1     -29.047  -5.095 -16.659  0.00  0.00     0.101 C 
BRANCH   6   7
HETATM    7  C           1     -30.437  -4.578 -16.861  0.00  0.00     0.028 A 
HETATM    8  C           1     -30.753  -3.438 -17.561  0.00  0.00     0.114 A 
HETATM    9  N           1     -32.115  -3.347 -17.493  0.00  0.00    -0.360 N 
HETATM   10  H           1     -32.710  -2.593 -17.921  0.00  0.00     0.166 HD
HETATM   11  C           1     -32.563  -4.413 -16.768  0.00  0.00     0.180 A 
HETATM   12  N           1     -31.570  -5.175 -16.372  0.00  0.00    -0.355 N 
ATOM     13  HN          1     -31.628  -6.031 -15.819  1.00  0.00     0.166 HD
ENDBRANCH   6   7
ENDBRANCH   5   6
BRANCH   5  14
HETATM   14  N           1     -28.044  -7.348 -16.570  0.00  0.00    -0.066 N 
HETATM   15  H           1     -27.242  -7.694 -17.145  0.00  0.00     0.275 HD
HETATM   16  H           1     -27.680  -6.839 -15.734  0.00  0.00     0.275 HD
HETATM   17  H           1     -28.625  -8.160 -16.260  0.00  0.00     0.275 HD
ENDBRANCH   5  14
ENDBRANCH   1   5
BRANCH   3  18
HETATM   18  C           1     -26.706  -6.881 -20.512  0.00  0.00     0.185 C 
BRANCH  18  19
HETATM   19  C           1     -25.286  -6.380 -20.280  0.00  0.00     0.036 C 
BRANCH  19  20
HETATM   20  C           1     -24.496  -7.428 -19.509  0.00  0.00     0.004 C 
BRANCH  20  21
HETATM   21  C           1     -23.788  -6.768 -18.333  0.00  0.00     0.027 C 
BRANCH  21  22
HETATM   22  C           1     -24.434  -7.222 -17.031  0.00  0.00     0.229 C 
BRANCH  22  23
HETATM   23  N           1     -23.593  -8.293 -16.401  0.00  0.00    -0.079 N 
HETATM   24  H           1     -24.041  -9.225 -16.556  0.00  0.00     0.274 HD
HETATM   25  H           1     -22.642  -8.288 -16.834  0.00  0.00     0.274 HD
HETATM   26  H           1     -23.511  -8.113 -15.375  0.00  0.00     0.274 HD
ENDBRANCH  22  23
ENDBRANCH  21  22
ENDBRANCH  20  21
ENDBRANCH  19  20
ENDBRANCH  18  19
BRANCH  18  27
HETATM   27  C           1     -26.662  -8.172 -21.292  0.00  0.00     0.196 C 
HETATM   28  O           1     -25.605  -8.523 -21.860  0.00  0.00    -0.646 OA
HETATM   29  O           1     -27.682  -8.890 -21.371  0.00  0.00    -0.646 OA
ENDBRANCH  18  27
ENDBRANCH   3  18
TORSDOF 11
ENDMDL
MODEL 7
REMARK VINA RESULT:      -6.0     13.939     17.010
REMARK  11 active torsions:
REMARK  status: ('A' for Active; 'I' for Inactive)
REMARK    1  A    between atoms: C_1  and  C_3 
REMARK    2  A    between atoms: C_1  and  C_18 
REMARK    3  A    between atoms: C_3  and  N_4 
REMARK    4  A    between atoms: C_9  and  C_10 
REMARK    5  A    between atoms: C_10  and  C_11 
REMARK    6  A    between atoms: C_11  and  C_12 
REMARK    7  A    between atoms: C_11  and  N_21 
REMARK       I    between atoms: C_12  and  N_17 
REMARK    8  A    between atoms: N_17  and  C_25 
REMARK    9  A    between atoms: C_18  and  C_22 
REMARK   10  A    between atoms: C_22  and  C_25 
REMARK   11  A    between atoms: C_25  and  C_26 
ROOT
HETATM    1  C           1     -20.910  -5.164  -6.272  0.00  0.00     0.249 C 
HETATM    2  O           1     -20.166  -4.473  -5.618  0.00  0.00    -0.271 OA
HETATM    3  N           1     -21.242  -6.418  -5.832  0.00  0.00    -0.345 N 
HETATM    4  H           1     -21.865  -6.997  -6.380  0.00  0.00     0.163 HD
ENDROOT
BRANCH   1   5
HETATM    5  C           1     -21.472  -4.648  -7.574  0.00  0.00     0.280 C 
BRANCH   5   6
HETATM    6  C           1     -20.391  -4.688  -8.646  0.00  0.00     0.101 C 
BRANCH   6   7
HETATM    7  C           1     -21.008  -4.439  -9.987  0.00  0.00     0.028 A 
HETATM    8  C           1     -20.361  -3.853 -11.049  0.00  0.00     0.114 A 
HETATM    9  N           1     -21.285  -3.823 -12.055  0.00  0.00    -0.360 N 
HETATM   10  H           1     -21.139  -3.440 -13.023  0.00  0.00     0.166 HD
HETATM   11  C           1     -22.435  -4.380 -11.573  0.00  0.00     0.180 A 
HETATM   12  N           1     -22.297  -4.761 -10.324  0.00  0.00    -0.355 N 
ATOM     13  HN          1     -22.999  -5.204  -9.731  1.00  0.00     0.166 HD
ENDBRANCH   6   7
ENDBRANCH   5   6
BRANCH   5  14
HETATM   14  N           1     -21.940  -3.234  -7.390  0.00  0.00    -0.066 N 
HETATM   15  H           1     -22.959  -3.172  -7.619  0.00  0.00     0.275 HD
HETATM   16  H           1     -21.787  -2.943  -6.398  0.00  0.00     0.275 HD
HETATM   17  H           1     -21.401  -2.604  -8.026  0.00  0.00     0.275 HD
ENDBRANCH   5  14
ENDBRANCH   1   5
BRANCH   3  18
HETATM   18  C           1     -20.702  -6.914  -4.582  0.00  0.00     0.185 C 
BRANCH  18  19
HETATM   19  C           1     -21.839  -7.167  -3.601  0.00  0.00     0.036 C 
BRANCH  19  20
HETATM   20  C           1     -21.748  -6.174  -2.449  0.00  0.00     0.004 C 
BRANCH  20  21
HETATM   21  C           1     -22.299  -6.813  -1.182  0.00  0.00     0.027 C 
BRANCH  21  22
HETATM   22  C           1     -21.598  -8.142  -0.935  0.00  0.00     0.229 C 
BRANCH  22  23
HETATM   23  N           1     -21.358  -8.316   0.535  0.00  0.00    -0.079 N 
HETATM   24  H           1     -21.153  -7.388   0.968  0.00  0.00     0.274 HD
HETATM   25  H           1     -22.209  -8.728   0.980  0.00  0.00     0.274 HD
HETATM   26  H           1     -20.544  -8.956   0.681  0.00  0.00     0.274 HD
ENDBRANCH  22  23
ENDBRANCH  21  22
ENDBRANCH  20  21
ENDBRANCH  19  20
ENDBRANCH  18  19
BRANCH  18  27
HETATM   27  C           1     -19.959  -8.203  -4.833  0.00  0.00     0.196 C 
HETATM   28  O           1     -19.902  -9.076  -3.941  0.00  0.00    -0.646 OA
HETATM   29  O           1     -19.402  -8.399  -5.935  0.00  0.00    -0.646 OA
ENDBRANCH  18  27
ENDBRANCH   3  18
TORSDOF 11
ENDMDL
MODEL 8
REMARK VINA RESULT:      -5.9     10.126     12.250
REMARK  11 active torsions:
REMARK  status: ('A' for Active; 'I' for Inactive)
REMARK    1  A    between atoms: C_1  and  C_3 
REMARK    2  A    between atoms: C_1  and  C_18 
REMARK    3  A    between atoms: C_3  and  N_4 
REMARK    4  A    between atoms: C_9  and  C_10 
REMARK    5  A    between atoms: C_10  and  C_11 
REMARK    6  A    between atoms: C_11  and  C_12 
REMARK    7  A    between atoms: C_11  and  N_21 
REMARK       I    between atoms: C_12  and  N_17 
REMARK    8  A    between atoms: N_17  and  C_25 
REMARK    9  A    between atoms: C_18  and  C_22 
REMARK   10  A    between atoms: C_22  and  C_25 
REMARK   11  A    between atoms: C_25  and  C_26 
ROOT
HETATM    1  C           1     -28.079  -5.826 -18.489  0.00  0.00     0.249 C 
HETATM    2  O           1     -28.702  -5.110 -19.237  0.00  0.00    -0.271 OA
HETATM    3  N           1     -27.228  -6.771 -18.998  0.00  0.00    -0.345 N 
HETATM    4  H           1     -26.706  -7.371 -18.372  0.00  0.00     0.163 HD
ENDROOT
BRANCH   1   5
HETATM    5  C           1     -28.239  -5.680 -16.996  0.00  0.00     0.280 C 
BRANCH   5   6
HETATM    6  C           1     -28.683  -4.261 -16.668  0.00  0.00     0.101 C 
BRANCH   6   7
HETATM    7  C           1     -30.164  -4.147 -16.850  0.00  0.00     0.028 A 
HETATM    8  C           1     -31.090  -4.969 -16.253  0.00  0.00     0.114 A 
HETATM    9  N           1     -32.303  -4.513 -16.691  0.00  0.00    -0.360 N 
HETATM   10  H           1     -33.244  -4.907 -16.436  0.00  0.00     0.166 HD
HETATM   11  C           1     -32.069  -3.454 -17.521  0.00  0.00     0.180 A 
HETATM   12  N           1     -30.784  -3.210 -17.636  0.00  0.00    -0.355 N 
ATOM     13  HN          1     -30.340  -2.478 -18.191  1.00  0.00     0.166 HD
ENDBRANCH   6   7
ENDBRANCH   5   6
BRANCH   5  14
HETATM   14  N           1     -26.927  -5.960 -16.324  0.00  0.00    -0.066 N 
HETATM   15  H           1     -26.640  -6.947 -16.517  0.00  0.00     0.275 HD
HETATM   16  H           1     -26.200  -5.308 -16.694  0.00  0.00     0.275 HD
HETATM   17  H           1     -27.028  -5.822 -15.293  0.00  0.00     0.275 HD
ENDBRANCH   5  14
ENDBRANCH   1   5
BRANCH   3  18
HETATM   18  C           1     -27.076  -6.911 -20.433  0.00  0.00     0.185 C 
BRANCH  18  19
HETATM   19  C           1     -25.610  -6.730 -20.809  0.00  0.00     0.036 C 
BRANCH  19  20
HETATM   20  C           1     -24.756  -6.748 -19.548  0.00  0.00     0.004 C 
BRANCH  20  21
HETATM   21  C           1     -23.664  -7.799 -19.688  0.00  0.00     0.027 C 
BRANCH  21  22
HETATM   22  C           1     -23.475  -8.142 -21.160  0.00  0.00     0.229 C 
BRANCH  22  23
HETATM   23  N           1     -22.462  -9.241 -21.292  0.00  0.00    -0.079 N 
HETATM   24  H           1     -22.705  -9.844 -22.110  0.00  0.00     0.274 HD
HETATM   25  H           1     -21.513  -8.825 -21.435  0.00  0.00     0.274 HD
HETATM   26  H           1     -22.461  -9.819 -20.421  0.00  0.00     0.274 HD
ENDBRANCH  22  23
ENDBRANCH  21  22
ENDBRANCH  20  21
ENDBRANCH  19  20
ENDBRANCH  18  19
BRANCH  18  27
HETATM   27  C           1     -27.536  -8.285 -20.854  0.00  0.00     0.196 C 
HETATM   28  O           1     -28.610  -8.747 -20.412  0.00  0.00    -0.646 OA
HETATM   29  O           1     -26.843  -8.962 -21.645  0.00  0.00    -0.646 OA
ENDBRANCH  18  27
ENDBRANCH   3  18
TORSDOF 11
ENDMDL
MODEL 9
REMARK VINA RESULT:      -5.8     13.967     17.182
REMARK  11 active torsions:
REMARK  status: ('A' for Active; 'I' for Inactive)
REMARK    1  A    between atoms: C_1  and  C_3 
REMARK    2  A    between atoms: C_1  and  C_18 
REMARK    3  A    between atoms: C_3  and  N_4 
REMARK    4  A    between atoms: C_9  and  C_10 
REMARK    5  A    between atoms: C_10  and  C_11 
REMARK    6  A    between atoms: C_11  and  C_12 
REMARK    7  A    between atoms: C_11  and  N_21 
REMARK       I    between atoms: C_12  and  N_17 
REMARK    8  A    between atoms: N_17  and  C_25 
REMARK    9  A    between atoms: C_18  and  C_22 
REMARK   10  A    between atoms: C_22  and  C_25 
REMARK   11  A    between atoms: C_25  and  C_26 
ROOT
HETATM    1  C           1     -20.788  -7.052  -5.805  0.00  0.00     0.249 C 
HETATM    2  O           1     -19.748  -6.983  -6.416  0.00  0.00    -0.271 OA
HETATM    3  N           1     -20.897  -7.897  -4.732  0.00  0.00    -0.345 N 
HETATM    4  H           1     -21.768  -7.955  -4.221  0.00  0.00     0.163 HD
ENDROOT
BRANCH   1   5
HETATM    5  C           1     -21.968  -6.209  -6.224  0.00  0.00     0.280 C 
BRANCH   5   6
HETATM    6  C           1     -21.486  -4.817  -6.610  0.00  0.00     0.101 C 
BRANCH   6   7
HETATM    7  C           1     -22.222  -4.355  -7.829  0.00  0.00     0.028 A 
HETATM    8  C           1     -21.640  -4.127  -9.054  0.00  0.00     0.114 A 
HETATM    9  N           1     -22.665  -3.723  -9.863  0.00  0.00    -0.360 N 
HETATM   10  H           1     -22.590  -3.461 -10.878  0.00  0.00     0.166 HD
HETATM   11  C           1     -23.806  -3.721  -9.112  0.00  0.00     0.180 A 
HETATM   12  N           1     -23.567  -4.099  -7.877  0.00  0.00    -0.355 N 
ATOM     13  HN          1     -24.241  -4.184  -7.115  1.00  0.00     0.166 HD
ENDBRANCH   6   7
ENDBRANCH   5   6
BRANCH   5  14
HETATM   14  N           1     -22.936  -6.103  -5.082  0.00  0.00    -0.066 N 
HETATM   15  H           1     -22.408  -6.049  -4.182  0.00  0.00     0.275 HD
HETATM   16  H           1     -23.518  -5.243  -5.198  0.00  0.00     0.275 HD
HETATM   17  H           1     -23.555  -6.944  -5.073  0.00  0.00     0.275 HD
ENDBRANCH   5  14
ENDBRANCH   1   5
BRANCH   3  18
HETATM   18  C           1     -19.764  -8.708  -4.331  0.00  0.00     0.185 C 
BRANCH  18  19
HETATM   19  C           1     -19.715  -8.795  -2.810  0.00  0.00     0.036 C 
BRANCH  19  20
HETATM   20  C           1     -20.473  -7.619  -2.209  0.00  0.00     0.004 C 
BRANCH  20  21
HETATM   21  C           1     -21.462  -8.129  -1.170  0.00  0.00     0.027 C 
BRANCH  21  22
HETATM   22  C           1     -22.415  -7.007  -0.781  0.00  0.00     0.229 C 
BRANCH  22  23
HETATM   23  N           1     -22.298  -5.885  -1.770  0.00  0.00    -0.079 N 
HETATM   24  H           1     -23.248  -5.498  -1.973  0.00  0.00     0.274 HD
HETATM   25  H           1     -21.692  -5.132  -1.373  0.00  0.00     0.274 HD
HETATM   26  H           1     -21.873  -6.244  -2.655  0.00  0.00     0.274 HD
ENDBRANCH  22  23
ENDBRANCH  21  22
ENDBRANCH  20  21
ENDBRANCH  19  20
ENDBRANCH  18  19
BRANCH  18  27
HETATM   27  C           1     -19.909 -10.093  -4.909  0.00  0.00     0.196 C 
HETATM   28  O           1     -20.530 -10.974  -4.275  0.00  0.00    -0.646 OA
HETATM   29  O           1     -19.408 -10.362  -6.023  0.00  0.00    -0.646 OA
ENDBRANCH  18  27
ENDBRANCH   3  18
TORSDOF 11
ENDMDL
