MODEL 1
REMARK VINA RESULT:      -5.3      0.000      0.000
REMARK  8 active torsions:
REMARK  status: ('A' for Active; 'I' for Inactive)
REMARK    1  A    between atoms: N_3  and  C_4 
REMARK       I    between atoms: N_3  and  C_20 
REMARK    2  A    between atoms: C_4  and  C_5 
REMARK    3  A    between atoms: C_4  and  C_11 
REMARK    4  A    between atoms: C_5  and  C_6 
REMARK    5  A    between atoms: C_6  and  Se_15 
REMARK    6  A    between atoms: C_8  and  C_12 
REMARK    7  A    between atoms: N_9  and  C_12 
REMARK    8  A    between atoms: C_12  and  C_20 
ROOT
HETATM    1  H           1     -22.429  -6.841  -6.553  0.00  0.00     0.163 HD
HETATM    2  N           1     -21.779  -6.138  -6.225  0.00  0.00    -0.345 N 
HETATM    3  O           1     -20.846  -4.132  -6.535  0.00  0.00    -0.271 OA
HETATM    4  C           1     -21.622  -4.971  -6.925  0.00  0.00     0.249 C 
ENDROOT
BRANCH   2   5
HETATM    5  C           1     -21.014  -6.366  -5.015  0.00  0.00     0.185 C 
BRANCH   5   6
HETATM    6  C           1     -21.963  -6.698  -3.870  0.00  0.00     0.036 C 
BRANCH   6   7
HETATM    7  C           1     -21.462  -6.042  -2.590  0.00  0.00     0.003 C 
BRANCH   7   8
HETATM    8 Se           1     -22.344  -6.858  -1.054  0.00  0.00     0.000 Se
HETATM    9  C           1     -21.782  -8.673  -1.490  0.00  0.00     0.000 C 
ENDBRANCH   7   8
ENDBRANCH   6   7
ENDBRANCH   5   6
BRANCH   5  10
HETATM   10  C           1     -20.063  -7.516  -5.231  0.00  0.00     0.196 C 
HETATM   11  O           1     -19.465  -7.637  -6.322  0.00  0.00    -0.646 OA
HETATM   12  O           1     -19.871  -8.349  -4.319  0.00  0.00    -0.646 OA
ENDBRANCH   5  10
ENDBRANCH   2   5
BRANCH   4  13
HETATM   13  C           1     -22.418  -4.735  -8.186  0.00  0.00     0.278 C 
BRANCH  13  14
HETATM   14  C           1     -21.632  -3.823  -9.119  0.00  0.00     0.017 C 
HETATM   15  C           1     -20.384  -4.549  -9.605  0.00  0.00     0.012 C 
HETATM   16  C           1     -22.500  -3.451 -10.314  0.00  0.00     0.012 C 
ENDBRANCH  13  14
BRANCH  13  17
HETATM   17  N           1     -23.724  -4.086  -7.836  0.00  0.00    -0.066 N 
HETATM   18  H           1     -23.585  -3.055  -7.737  0.00  0.00     0.275 HD
HETATM   19  H           1     -24.419  -4.271  -8.594  0.00  0.00     0.275 HD
HETATM   20  H           1     -24.078  -4.478  -6.934  0.00  0.00     0.275 HD
ENDBRANCH  13  17
ENDBRANCH   4  13
TORSDOF 8
ENDMDL
MODEL 2
REMARK VINA RESULT:      -5.2      3.064      6.633
REMARK  8 active torsions:
REMARK  status: ('A' for Active; 'I' for Inactive)
REMARK    1  A    between atoms: N_3  and  C_4 
REMARK       I    between atoms: N_3  and  C_20 
REMARK    2  A    between atoms: C_4  and  C_5 
REMARK    3  A    between atoms: C_4  and  C_11 
REMARK    4  A    between atoms: C_5  and  C_6 
REMARK    5  A    between atoms: C_6  and  Se_15 
REMARK    6  A    between atoms: C_8  and  C_12 
REMARK    7  A    between atoms: N_9  and  C_12 
REMARK    8  A    between atoms: C_12  and  C_20 
ROOT
HETATM    1  H           1     -20.424  -6.887  -3.229  0.00  0.00     0.163 HD
HETATM    2  N           1     -20.801  -7.821  -3.323  0.00  0.00    -0.345 N 
HETATM    3  O           1     -21.815  -9.559  -2.354  0.00  0.00    -0.271 OA
HETATM    4  C           1     -21.366  -8.443  -2.242  0.00  0.00     0.249 C 
ENDROOT
BRANCH   2   5
HETATM    5  C           1     -20.741  -8.502  -4.602  0.00  0.00     0.185 C 
BRANCH   5   6
HETATM    6  C           1     -21.356  -7.615  -5.677  0.00  0.00     0.036 C 
BRANCH   6   7
HETATM    7  C           1     -21.632  -6.234  -5.099  0.00  0.00     0.003 C 
BRANCH   7   8
HETATM    8 Se           1     -20.313  -4.969  -5.780  0.00  0.00     0.000 Se
HETATM    9  C           1     -21.501  -4.201  -7.121  0.00  0.00     0.000 C 
ENDBRANCH   7   8
ENDBRANCH   6   7
ENDBRANCH   5   6
BRANCH   5  10
HETATM   10  C           1     -19.303  -8.792  -4.949  0.00  0.00     0.196 C 
HETATM   11  O           1     -18.899  -8.638  -6.122  0.00  0.00    -0.646 OA
HETATM   12  O           1     -18.513  -9.188  -4.065  0.00  0.00    -0.646 OA
ENDBRANCH   5  10
ENDBRANCH   2   5
BRANCH   4  13
HETATM   13  C           1     -21.427  -7.734  -0.911  0.00  0.00     0.278 C 
BRANCH  13  14
HETATM   14  C           1     -21.998  -8.678   0.141  0.00  0.00     0.017 C 
HETATM   15  C           1     -21.061  -8.729   1.340  0.00  0.00     0.012 C 
HETATM   16  C           1     -23.364  -8.173   0.586  0.00  0.00     0.012 C 
ENDBRANCH  13  14
BRANCH  13  17
HETATM   17  N           1     -22.307  -6.526  -1.029  0.00  0.00    -0.066 N 
HETATM   18  H           1     -23.212  -6.705  -0.538  0.00  0.00     0.275 HD
HETATM   19  H           1     -21.831  -5.704  -0.592  0.00  0.00     0.275 HD
HETATM   20  H           1     -22.492  -6.327  -2.038  0.00  0.00     0.275 HD
ENDBRANCH  13  17
ENDBRANCH   4  13
TORSDOF 8
ENDMDL
MODEL 3
REMARK VINA RESULT:      -5.1      2.577      3.285
REMARK  8 active torsions:
REMARK  status: ('A' for Active; 'I' for Inactive)
REMARK    1  A    between atoms: N_3  and  C_4 
REMARK       I    between atoms: N_3  and  C_20 
REMARK    2  A    between atoms: C_4  and  C_5 
REMARK    3  A    between atoms: C_4  and  C_11 
REMARK    4  A    between atoms: C_5  and  C_6 
REMARK    5  A    between atoms: C_6  and  Se_15 
REMARK    6  A    between atoms: C_8  and  C_12 
REMARK    7  A    between atoms: N_9  and  C_12 
REMARK    8  A    between atoms: C_12  and  C_20 
ROOT
HETATM    1  H           1     -19.946  -6.331  -5.077  0.00  0.00     0.163 HD
HETATM    2  N           1     -20.956  -6.378  -5.058  0.00  0.00    -0.345 N 
HETATM    3  O           1     -22.903  -5.592  -5.820  0.00  0.00    -0.271 OA
HETATM    4  C           1     -21.696  -5.536  -5.844  0.00  0.00     0.249 C 
ENDROOT
BRANCH   2   5
HETATM    5  C           1     -21.621  -7.338  -4.198  0.00  0.00     0.185 C 
BRANCH   5   6
HETATM    6  C           1     -20.897  -8.676  -4.277  0.00  0.00     0.036 C 
BRANCH   6   7
HETATM    7  C           1     -19.599  -8.505  -5.055  0.00  0.00     0.003 C 
BRANCH   7   8
HETATM    8 Se           1     -18.430 -10.027  -4.712  0.00  0.00     0.000 Se
HETATM    9  C           1     -17.917  -9.440  -2.926  0.00  0.00     0.000 C 
ENDBRANCH   7   8
ENDBRANCH   6   7
ENDBRANCH   5   6
BRANCH   5  10
HETATM   10  C           1     -21.601  -6.837  -2.776  0.00  0.00     0.196 C 
HETATM   11  O           1     -22.397  -5.943  -2.416  0.00  0.00    -0.646 OA
HETATM   12  O           1     -20.788  -7.314  -1.956  0.00  0.00    -0.646 OA
ENDBRANCH   5  10
ENDBRANCH   2   5
BRANCH   4  13
HETATM   13  C           1     -21.004  -4.536  -6.738  0.00  0.00     0.278 C 
BRANCH  13  14
HETATM   14  C           1     -21.381  -4.806  -8.189  0.00  0.00     0.017 C 
HETATM   15  C           1     -22.389  -3.764  -8.655  0.00  0.00     0.012 C 
HETATM   16  C           1     -20.134  -4.731  -9.060  0.00  0.00     0.012 C 
ENDBRANCH  13  14
BRANCH  13  17
HETATM   17  N           1     -19.519  -4.666  -6.575  0.00  0.00    -0.066 N 
HETATM   18  H           1     -19.090  -4.936  -7.489  0.00  0.00     0.275 HD
HETATM   19  H           1     -19.121  -3.751  -6.262  0.00  0.00     0.275 HD
HETATM   20  H           1     -19.309  -5.401  -5.862  0.00  0.00     0.275 HD
ENDBRANCH  13  17
ENDBRANCH   4  13
TORSDOF 8
ENDMDL
MODEL 4
REMARK VINA RESULT:      -5.1      1.539      2.002
REMARK  8 active torsions:
REMARK  status: ('A' for Active; 'I' for Inactive)
REMARK    1  A    between atoms: N_3  and  C_4 
REMARK       I    between atoms: N_3  and  C_20 
REMARK    2  A    between atoms: C_4  and  C_5 
REMARK    3  A    between atoms: C_4  and  C_11 
REMARK    4  A    between atoms: C_5  and  C_6 
REMARK    5  A    between atoms: C_6  and  Se_15 
REMARK    6  A    between atoms: C_8  and  C_12 
REMARK    7  A    between atoms: N_9  and  C_12 
REMARK    8  A    between atoms: C_12  and  C_20 
ROOT
HETATM    1  H           1     -20.733  -7.761  -6.958  0.00  0.00     0.163 HD
HETATM    2  N           1     -20.678  -7.193  -6.123  0.00  0.00    -0.345 N 
HETATM    3  O           1     -20.913  -5.180  -5.185  0.00  0.00    -0.271 OA
HETATM    4  C           1     -20.979  -5.858  -6.182  0.00  0.00     0.249 C 
ENDROOT
BRANCH   2   5
HETATM    5  C           1     -20.279  -7.791  -4.863  0.00  0.00     0.185 C 
BRANCH   5   6
HETATM    6  C           1     -21.521  -8.196  -4.079  0.00  0.00     0.036 C 
BRANCH   6   7
HETATM    7  C           1     -21.228  -8.115  -2.587  0.00  0.00     0.003 C 
BRANCH   7   8
HETATM    8 Se           1     -22.107  -6.546  -1.835  0.00  0.00     0.000 Se
HETATM    9  C           1     -22.642  -7.434  -0.185  0.00  0.00     0.000 C 
ENDBRANCH   7   8
ENDBRANCH   6   7
ENDBRANCH   5   6
BRANCH   5  10
HETATM   10  C           1     -19.432  -9.009  -5.132  0.00  0.00     0.196 C 
HETATM   11  O           1     -18.344  -9.159  -4.535  0.00  0.00    -0.646 OA
HETATM   12  O           1     -19.818  -9.871  -5.951  0.00  0.00    -0.646 OA
ENDBRANCH   5  10
ENDBRANCH   2   5
BRANCH   4  13
HETATM   13  C           1     -21.393  -5.236  -7.493  0.00  0.00     0.278 C 
BRANCH  13  14
HETATM   14  C           1     -20.179  -5.120  -8.406  0.00  0.00     0.017 C 
HETATM   15  C           1     -20.588  -4.455  -9.713  0.00  0.00     0.012 C 
HETATM   16  C           1     -19.109  -4.280  -7.721  0.00  0.00     0.012 C 
ENDBRANCH  13  14
BRANCH  13  17
HETATM   17  N           1     -21.960  -3.871  -7.240  0.00  0.00    -0.066 N 
HETATM   18  H           1     -23.004  -3.913  -7.288  0.00  0.00     0.275 HD
HETATM   19  H           1     -21.668  -3.543  -6.292  0.00  0.00     0.275 HD
HETATM   20  H           1     -21.606  -3.206  -7.965  0.00  0.00     0.275 HD
ENDBRANCH  13  17
ENDBRANCH   4  13
TORSDOF 8
ENDMDL
MODEL 5
REMARK VINA RESULT:      -5.0      4.770      8.620
REMARK  8 active torsions:
REMARK  status: ('A' for Active; 'I' for Inactive)
REMARK    1  A    between atoms: N_3  and  C_4 
REMARK       I    between atoms: N_3  and  C_20 
REMARK    2  A    between atoms: C_4  and  C_5 
REMARK    3  A    between atoms: C_4  and  C_11 
REMARK    4  A    between atoms: C_5  and  C_6 
REMARK    5  A    between atoms: C_6  and  Se_15 
REMARK    6  A    between atoms: C_8  and  C_12 
REMARK    7  A    between atoms: N_9  and  C_12 
REMARK    8  A    between atoms: C_12  and  C_20 
ROOT
HETATM    1  H           1     -22.081  -9.809  -1.841  0.00  0.00     0.163 HD
HETATM    2  N           1     -21.608  -9.514  -0.997  0.00  0.00    -0.345 N 
HETATM    3  O           1     -20.793 -10.067   1.008  0.00  0.00    -0.271 OA
HETATM    4  C           1     -21.357 -10.419  -0.001  0.00  0.00     0.249 C 
ENDROOT
BRANCH   2   5
HETATM    5  C           1     -21.196  -8.132  -0.841  0.00  0.00     0.185 C 
BRANCH   5   6
HETATM    6  C           1     -20.411  -7.696  -2.072  0.00  0.00     0.036 C 
BRANCH   6   7
HETATM    7  C           1     -20.620  -8.707  -3.192  0.00  0.00     0.003 C 
BRANCH   7   8
HETATM    8 Se           1     -20.358  -7.832  -4.914  0.00  0.00     0.000 Se
HETATM    9  C           1     -22.046  -6.860  -4.862  0.00  0.00     0.000 C 
ENDBRANCH   7   8
ENDBRANCH   6   7
ENDBRANCH   5   6
BRANCH   5  10
HETATM   10  C           1     -22.415  -7.259  -0.686  0.00  0.00     0.196 C 
HETATM   11  O           1     -23.281  -7.541   0.171  0.00  0.00    -0.646 OA
HETATM   12  O           1     -22.561  -6.253  -1.413  0.00  0.00    -0.646 OA
ENDBRANCH   5  10
ENDBRANCH   2   5
BRANCH   4  13
HETATM   13  C           1     -21.787 -11.857  -0.162  0.00  0.00     0.278 C 
BRANCH  13  14
HETATM   14  C           1     -23.226 -12.013   0.314  0.00  0.00     0.017 C 
HETATM   15  C           1     -24.141 -12.203  -0.888  0.00  0.00     0.012 C 
HETATM   16  C           1     -23.328 -13.228   1.227  0.00  0.00     0.012 C 
ENDBRANCH  13  14
BRANCH  13  17
HETATM   17  N           1     -20.892 -12.740   0.654  0.00  0.00    -0.066 N 
HETATM   18  H           1     -21.367 -12.984   1.552  0.00  0.00     0.275 HD
HETATM   19  H           1     -20.685 -13.616   0.121  0.00  0.00     0.275 HD
HETATM   20  H           1     -19.998 -12.237   0.859  0.00  0.00     0.275 HD
ENDBRANCH  13  17
ENDBRANCH   4  13
TORSDOF 8
ENDMDL
MODEL 6
REMARK VINA RESULT:      -5.0      4.386      7.263
REMARK  8 active torsions:
REMARK  status: ('A' for Active; 'I' for Inactive)
REMARK    1  A    between atoms: N_3  and  C_4 
REMARK       I    between atoms: N_3  and  C_20 
REMARK    2  A    between atoms: C_4  and  C_5 
REMARK    3  A    between atoms: C_4  and  C_11 
REMARK    4  A    between atoms: C_5  and  C_6 
REMARK    5  A    between atoms: C_6  and  Se_15 
REMARK    6  A    between atoms: C_8  and  C_12 
REMARK    7  A    between atoms: N_9  and  C_12 
REMARK    8  A    between atoms: C_12  and  C_20 
ROOT
HETATM    1  H           1     -22.386  -9.267  -3.080  0.00  0.00     0.163 HD
HETATM    2  N           1     -21.600  -8.720  -2.754  0.00  0.00    -0.345 N 
HETATM    3  O           1     -20.139  -8.294  -1.120  0.00  0.00    -0.271 OA
HETATM    4  C           1     -21.077  -8.947  -1.509  0.00  0.00     0.249 C 
ENDROOT
BRANCH   2   5
HETATM    5  C           1     -21.026  -7.697  -3.606  0.00  0.00     0.185 C 
BRANCH   5   6
HETATM    6  C           1     -20.811  -8.263  -5.004  0.00  0.00     0.036 C 
BRANCH   6   7
HETATM    7  C           1     -19.323  -8.485  -5.239  0.00  0.00     0.003 C 
BRANCH   7   8
HETATM    8 Se           1     -18.807 -10.228  -4.533  0.00  0.00     0.000 Se
HETATM    9  C           1     -17.585  -9.507  -3.196  0.00  0.00     0.000 C 
ENDBRANCH   7   8
ENDBRANCH   6   7
ENDBRANCH   5   6
BRANCH   5  10
HETATM   10  C           1     -21.964  -6.519  -3.678  0.00  0.00     0.196 C 
HETATM   11  O           1     -22.366  -5.974  -2.627  0.00  0.00    -0.646 OA
HETATM   12  O           1     -22.341  -6.086  -4.788  0.00  0.00    -0.646 OA
ENDBRANCH   5  10
ENDBRANCH   2   5
BRANCH   4  13
HETATM   13  C           1     -21.676 -10.012  -0.622  0.00  0.00     0.278 C 
BRANCH  13  14
HETATM   14  C           1     -23.169  -9.756  -0.458  0.00  0.00     0.017 C 
HETATM   15  C           1     -23.847 -11.017   0.061  0.00  0.00     0.012 C 
HETATM   16  C           1     -23.382  -8.620   0.534  0.00  0.00     0.012 C 
ENDBRANCH  13  14
BRANCH  13  17
HETATM   17  N           1     -21.011  -9.974   0.721  0.00  0.00    -0.066 N 
HETATM   18  H           1     -21.111  -9.018   1.132  0.00  0.00     0.275 HD
HETATM   19  H           1     -21.463 -10.672   1.354  0.00  0.00     0.275 HD
HETATM   20  H           1     -19.997 -10.203   0.616  0.00  0.00     0.275 HD
ENDBRANCH  13  17
ENDBRANCH   4  13
TORSDOF 8
ENDMDL
MODEL 7
REMARK VINA RESULT:      -4.9     20.093     21.543
REMARK  8 active torsions:
REMARK  status: ('A' for Active; 'I' for Inactive)
REMARK    1  A    between atoms: N_3  and  C_4 
REMARK       I    between atoms: N_3  and  C_20 
REMARK    2  A    between atoms: C_4  and  C_5 
REMARK    3  A    between atoms: C_4  and  C_11 
REMARK    4  A    between atoms: C_5  and  C_6 
REMARK    5  A    between atoms: C_6  and  Se_15 
REMARK    6  A    between atoms: C_8  and  C_12 
REMARK    7  A    between atoms: N_9  and  C_12 
REMARK    8  A    between atoms: C_12  and  C_20 
ROOT
HETATM    1  H           1     -11.731   6.212 -21.688  0.00  0.00     0.163 HD
HETATM    2  N           1     -11.264   5.365 -21.391  0.00  0.00    -0.345 N 
HETATM    3  O           1     -11.260   3.133 -21.315  0.00  0.00    -0.271 OA
HETATM    4  C           1     -11.818   4.144 -21.670  0.00  0.00     0.249 C 
ENDROOT
BRANCH   2   5
HETATM    5  C           1     -10.008   5.443 -20.671  0.00  0.00     0.185 C 
BRANCH   5   6
HETATM    6  C           1      -9.295   6.740 -21.036  0.00  0.00     0.036 C 
BRANCH   6   7
HETATM    7  C           1     -10.325   7.829 -21.300  0.00  0.00     0.003 C 
BRANCH   7   8
HETATM    8 Se           1     -10.333   9.092 -19.814  0.00  0.00     0.000 Se
HETATM    9  C           1     -12.265   9.041 -19.567  0.00  0.00     0.000 C 
ENDBRANCH   7   8
ENDBRANCH   6   7
ENDBRANCH   5   6
BRANCH   5  10
HETATM   10  C           1     -10.277   5.417 -19.188  0.00  0.00     0.196 C 
HETATM   11  O           1     -11.453   5.453 -18.764  0.00  0.00    -0.646 OA
HETATM   12  O           1      -9.325   5.357 -18.380  0.00  0.00    -0.646 OA
ENDBRANCH   5  10
ENDBRANCH   2   5
BRANCH   4  13
HETATM   13  C           1     -13.126   4.063 -22.419  0.00  0.00     0.278 C 
BRANCH  13  14
HETATM   14  C           1     -14.041   5.194 -21.967  0.00  0.00     0.017 C 
HETATM   15  C           1     -15.243   5.278 -22.898  0.00  0.00     0.012 C 
HETATM   16  C           1     -14.518   4.922 -20.546  0.00  0.00     0.012 C 
ENDBRANCH  13  14
BRANCH  13  17
HETATM   17  N           1     -13.782   2.745 -22.135  0.00  0.00    -0.066 N 
HETATM   18  H           1     -13.762   2.153 -22.996  0.00  0.00     0.275 HD
HETATM   19  H           1     -13.267   2.258 -21.367  0.00  0.00     0.275 HD
HETATM   20  H           1     -14.774   2.904 -21.845  0.00  0.00     0.275 HD
ENDBRANCH  13  17
ENDBRANCH   4  13
TORSDOF 8
ENDMDL
MODEL 8
REMARK VINA RESULT:      -4.9     20.384     22.018
REMARK  8 active torsions:
REMARK  status: ('A' for Active; 'I' for Inactive)
REMARK    1  A    between atoms: N_3  and  C_4 
REMARK       I    between atoms: N_3  and  C_20 
REMARK    2  A    between atoms: C_4  and  C_5 
REMARK    3  A    between atoms: C_4  and  C_11 
REMARK    4  A    between atoms: C_5  and  C_6 
REMARK    5  A    between atoms: C_6  and  Se_15 
REMARK    6  A    between atoms: C_8  and  C_12 
REMARK    7  A    between atoms: N_9  and  C_12 
REMARK    8  A    between atoms: C_12  and  C_20 
ROOT
HETATM    1  H           1     -12.152   6.920 -19.018  0.00  0.00     0.163 HD
HETATM    2  N           1     -11.980   7.327 -19.929  0.00  0.00    -0.345 N 
HETATM    3  O           1     -11.741   7.014 -22.127  0.00  0.00    -0.271 OA
HETATM    4  C           1     -11.947   6.528 -21.040  0.00  0.00     0.249 C 
ENDROOT
BRANCH   2   5
HETATM    5  C           1     -11.769   8.756 -20.056  0.00  0.00     0.185 C 
BRANCH   5   6
HETATM    6  C           1     -12.832   9.499 -19.257  0.00  0.00     0.036 C 
BRANCH   6   7
HETATM    7  C           1     -13.283  10.728 -20.034  0.00  0.00     0.003 C 
BRANCH   7   8
HETATM    8 Se           1     -14.525  11.766 -18.946  0.00  0.00     0.000 Se
HETATM    9  C           1     -14.692  10.412 -17.554  0.00  0.00     0.000 C 
ENDBRANCH   7   8
ENDBRANCH   6   7
ENDBRANCH   5   6
BRANCH   5  10
HETATM   10  C           1     -10.402   9.110 -19.526  0.00  0.00     0.196 C 
HETATM   11  O           1      -9.564   9.659 -20.274  0.00  0.00    -0.646 OA
HETATM   12  O           1     -10.105   8.854 -18.339  0.00  0.00    -0.646 OA
ENDBRANCH   5  10
ENDBRANCH   2   5
BRANCH   4  13
HETATM   13  C           1     -12.167   5.041 -20.907  0.00  0.00     0.278 C 
BRANCH  13  14
HETATM   14  C           1     -13.570   4.690 -21.386  0.00  0.00     0.017 C 
HETATM   15  C           1     -13.597   3.243 -21.862  0.00  0.00     0.012 C 
HETATM   16  C           1     -14.556   4.866 -20.239  0.00  0.00     0.012 C 
ENDBRANCH  13  14
BRANCH  13  17
HETATM   17  N           1     -12.015   4.641 -19.470  0.00  0.00    -0.066 N 
HETATM   18  H           1     -11.993   5.497 -18.870  0.00  0.00     0.275 HD
HETATM   19  H           1     -12.823   4.040 -19.188  0.00  0.00     0.275 HD
HETATM   20  H           1     -11.124   4.107 -19.348  0.00  0.00     0.275 HD
ENDBRANCH  13  17
ENDBRANCH   4  13
TORSDOF 8
ENDMDL
MODEL 9
REMARK VINA RESULT:      -4.8     14.097     15.589
REMARK  8 active torsions:
REMARK  status: ('A' for Active; 'I' for Inactive)
REMARK    1  A    between atoms: N_3  and  C_4 
REMARK       I    between atoms: N_3  and  C_20 
REMARK    2  A    between atoms: C_4  and  C_5 
REMARK    3  A    between atoms: C_4  and  C_11 
REMARK    4  A    between atoms: C_5  and  C_6 
REMARK    5  A    between atoms: C_6  and  Se_15 
REMARK    6  A    between atoms: C_8  and  C_12 
REMARK    7  A    between atoms: N_9  and  C_12 
REMARK    8  A    between atoms: C_12  and  C_20 
ROOT
HETATM    1  H           1     -36.025  -2.418 -12.808  0.00  0.00     0.163 HD
HETATM    2  N           1     -35.226  -2.504 -12.193  0.00  0.00    -0.345 N 
HETATM    3  O           1     -33.879  -1.541 -10.694  0.00  0.00    -0.271 OA
HETATM    4  C           1     -34.834  -1.439 -11.427  0.00  0.00     0.249 C 
ENDROOT
BRANCH   2   5
HETATM    5  C           1     -34.494  -3.754 -12.125  0.00  0.00     0.185 C 
BRANCH   5   6
HETATM    6  C           1     -35.136  -4.660 -11.082  0.00  0.00     0.036 C 
BRANCH   6   7
HETATM    7  C           1     -34.101  -5.650 -10.565  0.00  0.00     0.003 C 
BRANCH   7   8
HETATM    8 Se           1     -35.007  -7.150  -9.709  0.00  0.00     0.000 Se
HETATM    9  C           1     -33.681  -8.472 -10.250  0.00  0.00     0.000 C 
ENDBRANCH   7   8
ENDBRANCH   6   7
ENDBRANCH   5   6
BRANCH   5  10
HETATM   10  C           1     -34.531  -4.431 -13.472  0.00  0.00     0.196 C 
HETATM   11  O           1     -33.997  -3.884 -14.462  0.00  0.00    -0.646 OA
HETATM   12  O           1     -35.094  -5.539 -13.600  0.00  0.00    -0.646 OA
ENDBRANCH   5  10
ENDBRANCH   2   5
BRANCH   4  13
HETATM   13  C           1     -35.596  -0.137 -11.499  0.00  0.00     0.278 C 
BRANCH  13  14
HETATM   14  C           1     -36.909  -0.274 -10.738  0.00  0.00     0.017 C 
HETATM   15  C           1     -37.019   0.844  -9.710  0.00  0.00     0.012 C 
HETATM   16  C           1     -38.073  -0.182 -11.716  0.00  0.00     0.012 C 
ENDBRANCH  13  14
BRANCH  13  17
HETATM   17  N           1     -35.881   0.195 -12.933  0.00  0.00    -0.066 N 
HETATM   18  H           1     -35.642   1.197 -13.113  0.00  0.00     0.275 HD
HETATM   19  H           1     -35.304  -0.417 -13.554  0.00  0.00     0.275 HD
HETATM   20  H           1     -36.895   0.038 -13.132  0.00  0.00     0.275 HD
ENDBRANCH  13  17
ENDBRANCH   4  13
TORSDOF 8
ENDMDL
