MODEL 1
REMARK VINA RESULT:      -6.7      0.000      0.000
REMARK  4 active torsions:
REMARK  status: ('A' for Active; 'I' for Inactive)
REMARK    1  A    between atoms: C_1  and  C_2 
REMARK    2  A    between atoms: C_2  and  C_4 
REMARK    3  A    between atoms: C_2  and  N_16 
REMARK    4  A    between atoms: C_6  and  C_7 
REMARK       I    between atoms: C_7  and  N_16 
ROOT
HETATM    1  C           1     -34.943  -2.367 -11.283  0.00  0.00     0.274 C 
HETATM    2  H           1     -36.080  -4.106 -11.547  0.00  0.00     0.255 HD
HETATM    3  H           1     -35.341  -3.986 -10.014  0.00  0.00     0.275 HD
HETATM    4  H           1     -34.734  -4.453  -9.856  0.00  0.00     0.274 HD
HETATM    5  C           1     -33.670  -2.981 -11.850  0.00  0.00     0.062 C 
HETATM    6  C           1     -34.026  -3.930 -12.987  0.00  0.00     0.004 C 
HETATM    7  H           1     -33.237  -4.117 -10.605  0.00  0.00     0.254 HD
HETATM    8  C           1     -34.933  -5.036 -12.462  0.00  0.00     0.047 C 
HETATM    9  H           1     -33.365  -5.405  -9.492  0.00  0.00     0.274 HD
HETATM   10  C           1     -34.210  -5.807 -11.366  0.00  0.00     0.229 C 
HETATM   11  H           1     -36.709  -3.035 -10.377  0.00  0.00     0.275 HD
HETATM   12  N           1     -33.860  -4.874 -10.245  0.00  0.00    -0.080 N 
HETATM   13  N           1     -35.836  -3.456 -10.766  0.00  0.00    -0.067 N 
ENDROOT
BRANCH   1  14
HETATM   14  C           1     -35.660  -1.602 -12.369  0.00  0.00     0.249 C 
HETATM   15  N           1     -34.991  -1.238 -13.505  0.00  0.00    -0.344 N 
HETATM   16  H           1     -34.016  -1.481 -13.619  0.00  0.00     0.163 HD
HETATM   17  O           1     -36.825  -1.312 -12.233  0.00  0.00    -0.271 OA
BRANCH  15  18
HETATM   18  C           1     -35.681  -0.503 -14.548  0.00  0.00     0.189 C 
BRANCH  18  19
HETATM   19  C           1     -35.772  -1.357 -15.788  0.00  0.00     0.197 C 
HETATM   20  O           1     -34.825  -2.110 -16.100  0.00  0.00    -0.646 OA
HETATM   21  O           1     -36.797  -1.312 -16.504  0.00  0.00    -0.646 OA
ENDBRANCH  18  19
BRANCH  18  22
HETATM   22  C           1     -34.911   0.772 -14.865  0.00  0.00     0.010 C 
HETATM   23  C           1     -34.474   1.436 -13.566  0.00  0.00     0.012 C 
HETATM   24  C           1     -35.806   1.725 -15.646  0.00  0.00     0.012 C 
ENDBRANCH  18  22
ENDBRANCH  15  18
ENDBRANCH   1  14
TORSDOF 4
ENDMDL
MODEL 2
REMARK VINA RESULT:      -6.5      2.053      5.655
REMARK  4 active torsions:
REMARK  status: ('A' for Active; 'I' for Inactive)
REMARK    1  A    between atoms: C_1  and  C_2 
REMARK    2  A    between atoms: C_2  and  C_4 
REMARK    3  A    between atoms: C_2  and  N_16 
REMARK    4  A    between atoms: C_6  and  C_7 
REMARK       I    between atoms: C_7  and  N_16 
ROOT
HETATM    1  C           1     -34.964  -0.393 -14.400  0.00  0.00     0.274 C 
HETATM    2  H           1     -36.290  -1.014 -15.896  0.00  0.00     0.255 HD
HETATM    3  H           1     -35.386   0.374 -16.303  0.00  0.00     0.275 HD
HETATM    4  H           1     -35.751   1.065 -16.320  0.00  0.00     0.274 HD
HETATM    5  C           1     -35.992   0.482 -13.698  0.00  0.00     0.062 C 
HETATM    6  C           1     -37.363  -0.176 -13.782  0.00  0.00     0.004 C 
HETATM    7  H           1     -36.188   1.785 -14.835  0.00  0.00     0.254 HD
HETATM    8  C           1     -37.756  -0.347 -15.243  0.00  0.00     0.047 C 
HETATM    9  H           1     -36.491   2.602 -16.302  0.00  0.00     0.274 HD
HETATM   10  C           1     -37.806   1.017 -15.919  0.00  0.00     0.229 C 
HETATM   11  H           1     -34.645  -1.163 -16.321  0.00  0.00     0.275 HD
HETATM   12  N           1     -36.456   1.666 -15.837  0.00  0.00    -0.080 N 
HETATM   13  N           1     -35.351  -0.562 -15.839  0.00  0.00    -0.067 N 
ENDROOT
BRANCH   1  14
HETATM   14  C           1     -34.913  -1.746 -13.732  0.00  0.00     0.249 C 
HETATM   15  N           1     -35.028  -1.842 -12.371  0.00  0.00    -0.344 N 
HETATM   16  H           1     -35.148  -1.007 -11.813  0.00  0.00     0.163 HD
HETATM   17  O           1     -34.769  -2.743 -14.398  0.00  0.00    -0.271 OA
BRANCH  15  18
HETATM   18  C           1     -34.979  -3.141 -11.729  0.00  0.00     0.189 C 
BRANCH  18  19
HETATM   19  C           1     -36.148  -3.280 -10.786  0.00  0.00     0.197 C 
HETATM   20  O           1     -36.502  -4.411 -10.390  0.00  0.00    -0.646 OA
HETATM   21  O           1     -36.764  -2.262 -10.401  0.00  0.00    -0.646 OA
ENDBRANCH  18  19
BRANCH  18  22
HETATM   22  C           1     -33.678  -3.274 -10.950  0.00  0.00     0.010 C 
HETATM   23  C           1     -33.178  -1.889 -10.558  0.00  0.00     0.012 C 
HETATM   24  C           1     -32.634  -3.964 -11.818  0.00  0.00     0.012 C 
ENDBRANCH  18  22
ENDBRANCH  15  18
ENDBRANCH   1  14
TORSDOF 4
ENDMDL
MODEL 3
REMARK VINA RESULT:      -6.2      2.179      3.120
REMARK  4 active torsions:
REMARK  status: ('A' for Active; 'I' for Inactive)
REMARK    1  A    between atoms: C_1  and  C_2 
REMARK    2  A    between atoms: C_2  and  C_4 
REMARK    3  A    between atoms: C_2  and  N_16 
REMARK    4  A    between atoms: C_6  and  C_7 
REMARK       I    between atoms: C_7  and  N_16 
ROOT
HETATM    1  C           1     -33.738  -3.654 -12.307  0.00  0.00     0.274 C 
HETATM    2  H           1     -33.162  -4.165 -10.360  0.00  0.00     0.255 HD
HETATM    3  H           1     -32.500  -5.174 -11.566  0.00  0.00     0.275 HD
HETATM    4  H           1     -32.776  -5.902 -11.635  0.00  0.00     0.274 HD
HETATM    5  C           1     -34.995  -4.511 -12.278  0.00  0.00     0.062 C 
HETATM    6  C           1     -35.602  -4.478 -10.881  0.00  0.00     0.004 C 
HETATM    7  H           1     -34.331  -6.119 -12.305  0.00  0.00     0.254 HD
HETATM    8  C           1     -34.594  -5.021  -9.877  0.00  0.00     0.047 C 
HETATM    9  H           1     -33.394  -7.476 -11.864  0.00  0.00     0.274 HD
HETATM   10  C           1     -34.237  -6.456 -10.241  0.00  0.00     0.229 C 
HETATM   11  H           1     -31.882  -3.600 -11.337  0.00  0.00     0.275 HD
HETATM   12  N           1     -33.639  -6.491 -11.615  0.00  0.00    -0.080 N 
HETATM   13  N           1     -32.745  -4.189 -11.317  0.00  0.00    -0.067 N 
ENDROOT
BRANCH   1  14
HETATM   14  C           1     -34.089  -2.231 -11.947  0.00  0.00     0.249 C 
HETATM   15  N           1     -35.046  -1.561 -12.660  0.00  0.00    -0.344 N 
HETATM   16  H           1     -35.518  -2.019 -13.429  0.00  0.00     0.163 HD
HETATM   17  O           1     -33.526  -1.684 -11.029  0.00  0.00    -0.271 OA
BRANCH  15  18
HETATM   18  C           1     -35.384  -0.193 -12.314  0.00  0.00     0.189 C 
BRANCH  18  19
HETATM   19  C           1     -36.533  -0.193 -11.337  0.00  0.00     0.197 C 
HETATM   20  O           1     -36.566   0.644 -10.410  0.00  0.00    -0.646 OA
HETATM   21  O           1     -37.454  -1.030 -11.455  0.00  0.00    -0.646 OA
ENDBRANCH  18  19
BRANCH  18  22
HETATM   22  C           1     -35.785   0.565 -13.572  0.00  0.00     0.010 C 
HETATM   23  C           1     -36.180  -0.428 -14.658  0.00  0.00     0.012 C 
HETATM   24  C           1     -34.610   1.404 -14.055  0.00  0.00     0.012 C 
ENDBRANCH  18  22
ENDBRANCH  15  18
ENDBRANCH   1  14
TORSDOF 4
ENDMDL
MODEL 4
REMARK VINA RESULT:      -6.2     13.359     14.845
REMARK  4 active torsions:
REMARK  status: ('A' for Active; 'I' for Inactive)
REMARK    1  A    between atoms: C_1  and  C_2 
REMARK    2  A    between atoms: C_2  and  C_4 
REMARK    3  A    between atoms: C_2  and  N_16 
REMARK    4  A    between atoms: C_6  and  C_7 
REMARK       I    between atoms: C_7  and  N_16 
ROOT
HETATM    1  C           1     -21.838  -4.932  -6.093  0.00  0.00     0.274 C 
HETATM    2  H           1     -21.356  -6.635  -7.212  0.00  0.00     0.255 HD
HETATM    3  H           1     -22.022  -6.978  -5.680  0.00  0.00     0.275 HD
HETATM    4  H           1     -21.550  -7.258  -5.123  0.00  0.00     0.274 HD
HETATM    5  C           1     -20.455  -4.817  -5.467  0.00  0.00     0.062 C 
HETATM    6  C           1     -19.400  -5.232  -6.484  0.00  0.00     0.004 C 
HETATM    7  H           1     -20.432  -6.190  -4.398  0.00  0.00     0.254 HD
HETATM    8  C           1     -19.645  -6.673  -6.911  0.00  0.00     0.047 C 
HETATM    9  H           1     -20.544  -7.805  -3.858  0.00  0.00     0.274 HD
HETATM   10  C           1     -19.562  -7.585  -5.694  0.00  0.00     0.229 C 
HETATM   11  H           1     -23.028  -6.430  -6.944  0.00  0.00     0.275 HD
HETATM   12  N           1     -20.601  -7.178  -4.692  0.00  0.00    -0.080 N 
HETATM   13  N           1     -22.079  -6.352  -6.514  0.00  0.00    -0.067 N 
ENDROOT
BRANCH   1  14
HETATM   14  C           1     -21.922  -4.029  -7.299  0.00  0.00     0.249 C 
HETATM   15  N           1     -22.434  -4.504  -8.476  0.00  0.00    -0.344 N 
HETATM   16  H           1     -22.757  -5.461  -8.538  0.00  0.00     0.163 HD
HETATM   17  O           1     -21.536  -2.886  -7.226  0.00  0.00    -0.271 OA
BRANCH  15  18
HETATM   18  C           1     -22.514  -3.636  -9.635  0.00  0.00     0.189 C 
BRANCH  18  19
HETATM   19  C           1     -23.933  -3.614 -10.148  0.00  0.00     0.197 C 
HETATM   20  O           1     -24.795  -2.917  -9.573  0.00  0.00    -0.646 OA
HETATM   21  O           1     -24.245  -4.295 -11.150  0.00  0.00    -0.646 OA
ENDBRANCH  18  19
BRANCH  18  22
HETATM   22  C           1     -21.587  -4.157 -10.725  0.00  0.00     0.010 C 
HETATM   23  C           1     -20.336  -4.748 -10.086  0.00  0.00     0.012 C 
HETATM   24  C           1     -21.193  -3.010 -11.646  0.00  0.00     0.012 C 
ENDBRANCH  18  22
ENDBRANCH  15  18
ENDBRANCH   1  14
TORSDOF 4
ENDMDL
MODEL 5
REMARK VINA RESULT:      -6.0     10.198     11.701
REMARK  4 active torsions:
REMARK  status: ('A' for Active; 'I' for Inactive)
REMARK    1  A    between atoms: C_1  and  C_2 
REMARK    2  A    between atoms: C_2  and  C_4 
REMARK    3  A    between atoms: C_2  and  N_16 
REMARK    4  A    between atoms: C_6  and  C_7 
REMARK       I    between atoms: C_7  and  N_16 
ROOT
HETATM    1  C           1     -28.747  -6.252 -18.784  0.00  0.00     0.274 C 
HETATM    2  H           1     -27.949  -7.033 -17.012  0.00  0.00     0.255 HD
HETATM    3  H           1     -29.620  -7.316 -17.204  0.00  0.00     0.275 HD
HETATM    4  H           1     -30.120  -6.914 -16.757  0.00  0.00     0.274 HD
HETATM    5  C           1     -29.047  -4.888 -18.178  0.00  0.00     0.062 C 
HETATM    6  C           1     -27.955  -4.524 -17.180  0.00  0.00     0.004 C 
HETATM    7  H           1     -30.361  -5.258 -17.099  0.00  0.00     0.254 HD
HETATM    8  C           1     -27.906  -5.570 -16.075  0.00  0.00     0.047 C 
HETATM    9  H           1     -31.249  -6.011 -15.850  0.00  0.00     0.274 HD
HETATM   10  C           1     -29.250  -5.618 -15.361  0.00  0.00     0.229 C 
HETATM   11  H           1     -28.493  -8.219 -18.112  0.00  0.00     0.275 HD
HETATM   12  N           1     -30.326  -5.977 -16.342  0.00  0.00    -0.080 N 
HETATM   13  N           1     -28.698  -7.283 -17.695  0.00  0.00    -0.067 N 
ENDROOT
BRANCH   1  14
HETATM   14  C           1     -27.415  -6.207 -19.493  0.00  0.00     0.249 C 
HETATM   15  N           1     -26.396  -7.024 -19.086  0.00  0.00    -0.344 N 
HETATM   16  H           1     -26.534  -7.660 -18.311  0.00  0.00     0.163 HD
HETATM   17  O           1     -27.249  -5.448 -20.419  0.00  0.00    -0.271 OA
BRANCH  15  18
HETATM   18  C           1     -25.116  -6.981 -19.767  0.00  0.00     0.189 C 
BRANCH  18  19
HETATM   19  C           1     -25.161  -7.879 -20.979  0.00  0.00     0.197 C 
HETATM   20  O           1     -24.146  -8.016 -21.694  0.00  0.00    -0.646 OA
HETATM   21  O           1     -26.215  -8.487 -21.266  0.00  0.00    -0.646 OA
ENDBRANCH  18  19
BRANCH  18  22
HETATM   22  C           1     -24.021  -7.456 -18.822  0.00  0.00     0.010 C 
HETATM   23  C           1     -24.418  -7.138 -17.386  0.00  0.00     0.012 C 
HETATM   24  C           1     -22.717  -6.745 -19.157  0.00  0.00     0.012 C 
ENDBRANCH  18  22
ENDBRANCH  15  18
ENDBRANCH   1  14
TORSDOF 4
ENDMDL
MODEL 6
REMARK VINA RESULT:      -5.9      9.490     11.070
REMARK  4 active torsions:
REMARK  status: ('A' for Active; 'I' for Inactive)
REMARK    1  A    between atoms: C_1  and  C_2 
REMARK    2  A    between atoms: C_2  and  C_4 
REMARK    3  A    between atoms: C_2  and  N_16 
REMARK    4  A    between atoms: C_6  and  C_7 
REMARK       I    between atoms: C_7  and  N_16 
ROOT
HETATM    1  C           1     -28.489  -6.285 -16.753  0.00  0.00     0.274 C 
HETATM    2  H           1     -28.866  -4.285 -16.259  0.00  0.00     0.255 HD
HETATM    3  H           1     -29.793  -5.406 -15.368  0.00  0.00     0.275 HD
HETATM    4  H           1     -30.555  -5.470 -15.528  0.00  0.00     0.274 HD
HETATM    5  C           1     -29.522  -6.319 -17.870  0.00  0.00     0.062 C 
HETATM    6  C           1     -29.548  -4.972 -18.581  0.00  0.00     0.004 C 
HETATM    7  H           1     -31.015  -6.243 -16.979  0.00  0.00     0.254 HD
HETATM    8  C           1     -29.913  -3.879 -17.585  0.00  0.00     0.047 C 
HETATM    9  H           1     -32.208  -5.691 -15.891  0.00  0.00     0.274 HD
HETATM   10  C           1     -31.288  -4.168 -16.996  0.00  0.00     0.229 C 
HETATM   11  H           1     -28.140  -5.186 -15.005  0.00  0.00     0.275 HD
HETATM   12  N           1     -31.264  -5.494 -16.296  0.00  0.00    -0.080 N 
HETATM   13  N           1     -28.849  -5.209 -15.772  0.00  0.00    -0.067 N 
ENDROOT
BRANCH   1  14
HETATM   14  C           1     -27.126  -5.999 -17.335  0.00  0.00     0.249 C 
HETATM   15  N           1     -26.612  -6.814 -18.306  0.00  0.00    -0.344 N 
HETATM   16  H           1     -27.146  -7.608 -18.636  0.00  0.00     0.163 HD
HETATM   17  O           1     -26.489  -5.051 -16.941  0.00  0.00    -0.271 OA
BRANCH  15  18
HETATM   18  C           1     -25.303  -6.539 -18.866  0.00  0.00     0.189 C 
BRANCH  18  19
HETATM   19  C           1     -25.337  -6.760 -20.357  0.00  0.00     0.197 C 
HETATM   20  O           1     -25.249  -5.786 -21.136  0.00  0.00    -0.646 OA
HETATM   21  O           1     -25.454  -7.918 -20.815  0.00  0.00    -0.646 OA
ENDBRANCH  18  19
BRANCH  18  22
HETATM   22  C           1     -24.276  -7.472 -18.237  0.00  0.00     0.010 C 
HETATM   23  C           1     -24.382  -7.393 -16.719  0.00  0.00     0.012 C 
HETATM   24  C           1     -22.878  -7.053 -18.671  0.00  0.00     0.012 C 
ENDBRANCH  18  22
ENDBRANCH  15  18
ENDBRANCH   1  14
TORSDOF 4
ENDMDL
MODEL 7
REMARK VINA RESULT:      -5.9     13.352     14.897
REMARK  4 active torsions:
REMARK  status: ('A' for Active; 'I' for Inactive)
REMARK    1  A    between atoms: C_1  and  C_2 
REMARK    2  A    between atoms: C_2  and  C_4 
REMARK    3  A    between atoms: C_2  and  N_16 
REMARK    4  A    between atoms: C_6  and  C_7 
REMARK       I    between atoms: C_7  and  N_16 
ROOT
HETATM    1  C           1     -21.203  -4.590  -6.613  0.00  0.00     0.274 C 
HETATM    2  H           1     -22.503  -6.189  -6.241  0.00  0.00     0.255 HD
HETATM    3  H           1     -22.483  -5.010  -5.009  0.00  0.00     0.275 HD
HETATM    4  H           1     -22.136  -5.185  -4.331  0.00  0.00     0.274 HD
HETATM    5  C           1     -20.002  -5.276  -5.978  0.00  0.00     0.062 C 
HETATM    6  C           1     -20.057  -6.770  -6.267  0.00  0.00     0.004 C 
HETATM    7  H           1     -20.430  -5.256  -4.292  0.00  0.00     0.254 HD
HETATM    8  C           1     -21.339  -7.353  -5.687  0.00  0.00     0.047 C 
HETATM    9  H           1     -21.328  -5.501  -2.861  0.00  0.00     0.274 HD
HETATM   10  C           1     -21.364  -7.127  -4.181  0.00  0.00     0.229 C 
HETATM   11  H           1     -23.290  -4.694  -6.478  0.00  0.00     0.275 HD
HETATM   12  N           1     -21.310  -5.656  -3.895  0.00  0.00    -0.080 N 
HETATM   13  N           1     -22.466  -5.165  -6.042  0.00  0.00    -0.067 N 
ENDROOT
BRANCH   1  14
HETATM   14  C           1     -21.180  -4.814  -8.106  0.00  0.00     0.249 C 
HETATM   15  N           1     -22.117  -4.214  -8.902  0.00  0.00    -0.344 N 
HETATM   16  H           1     -22.826  -3.620  -8.491  0.00  0.00     0.163 HD
HETATM   17  O           1     -20.334  -5.523  -8.597  0.00  0.00    -0.271 OA
BRANCH  15  18
HETATM   18  C           1     -22.095  -4.429 -10.336  0.00  0.00     0.189 C 
BRANCH  18  19
HETATM   19  C           1     -21.250  -3.364 -10.990  0.00  0.00     0.197 C 
HETATM   20  O           1     -20.006  -3.482 -11.019  0.00  0.00    -0.646 OA
HETATM   21  O           1     -21.794  -2.362 -11.504  0.00  0.00    -0.646 OA
ENDBRANCH  18  19
BRANCH  18  22
HETATM   22  C           1     -23.515  -4.358 -10.882  0.00  0.00     0.010 C 
HETATM   23  C           1     -24.500  -4.739  -9.785  0.00  0.00     0.012 C 
HETATM   24  C           1     -23.658  -5.324 -12.051  0.00  0.00     0.012 C 
ENDBRANCH  18  22
ENDBRANCH  15  18
ENDBRANCH   1  14
TORSDOF 4
ENDMDL
MODEL 8
REMARK VINA RESULT:      -5.8     15.053     17.186
REMARK  4 active torsions:
REMARK  status: ('A' for Active; 'I' for Inactive)
REMARK    1  A    between atoms: C_1  and  C_2 
REMARK    2  A    between atoms: C_2  and  C_4 
REMARK    3  A    between atoms: C_2  and  N_16 
REMARK    4  A    between atoms: C_6  and  C_7 
REMARK       I    between atoms: C_7  and  N_16 
ROOT
HETATM    1  C           1     -20.028  -5.070  -8.012  0.00  0.00     0.274 C 
HETATM    2  H           1     -22.009  -5.723  -8.207  0.00  0.00     0.255 HD
HETATM    3  H           1     -21.188  -5.544  -9.692  0.00  0.00     0.275 HD
HETATM    4  H           1     -21.381  -4.944 -10.154  0.00  0.00     0.274 HD
HETATM    5  C           1     -20.397  -3.594  -8.037  0.00  0.00     0.062 C 
HETATM    6  C           1     -21.724  -3.388  -7.318  0.00  0.00     0.004 C 
HETATM    7  H           1     -20.888  -3.376  -9.692  0.00  0.00     0.254 HD
HETATM    8  C           1     -22.811  -4.194  -8.018  0.00  0.00     0.047 C 
HETATM    9  H           1     -21.722  -3.610 -11.162  0.00  0.00     0.274 HD
HETATM   10  C           1     -22.939  -3.728  -9.462  0.00  0.00     0.229 C 
HETATM   11  H           1     -20.846  -6.878  -8.684  0.00  0.00     0.275 HD
HETATM   12  N           1     -21.633  -3.930 -10.171  0.00  0.00    -0.080 N 
HETATM   13  N           1     -21.099  -5.864  -8.701  0.00  0.00    -0.067 N 
ENDROOT
BRANCH   1  14
HETATM   14  C           1     -19.901  -5.535  -6.581  0.00  0.00     0.249 C 
HETATM   15  N           1     -20.382  -6.762  -6.215  0.00  0.00    -0.344 N 
HETATM   16  H           1     -20.822  -7.360  -6.902  0.00  0.00     0.163 HD
HETATM   17  O           1     -19.375  -4.821  -5.760  0.00  0.00    -0.271 OA
BRANCH  15  18
HETATM   18  C           1     -20.259  -7.208  -4.840  0.00  0.00     0.189 C 
BRANCH  18  19
HETATM   19  C           1     -19.759  -8.631  -4.817  0.00  0.00     0.197 C 
HETATM   20  O           1     -18.929  -8.989  -3.954  0.00  0.00    -0.646 OA
HETATM   21  O           1     -20.177  -9.454  -5.661  0.00  0.00    -0.646 OA
ENDBRANCH  18  19
BRANCH  18  22
HETATM   22  C           1     -21.619  -7.135  -4.160  0.00  0.00     0.010 C 
HETATM   23  C           1     -22.638  -6.541  -5.124  0.00  0.00     0.012 C 
HETATM   24  C           1     -21.520  -6.256  -2.921  0.00  0.00     0.012 C 
ENDBRANCH  18  22
ENDBRANCH  15  18
ENDBRANCH   1  14
TORSDOF 4
ENDMDL
MODEL 9
REMARK VINA RESULT:      -5.7     18.521     20.273
REMARK  4 active torsions:
REMARK  status: ('A' for Active; 'I' for Inactive)
REMARK    1  A    between atoms: C_1  and  C_2 
REMARK    2  A    between atoms: C_2  and  C_4 
REMARK    3  A    between atoms: C_2  and  N_16 
REMARK    4  A    between atoms: C_6  and  C_7 
REMARK       I    between atoms: C_7  and  N_16 
ROOT
HETATM    1  C           1     -18.944 -10.543  -2.173  0.00  0.00     0.274 C 
HETATM    2  H           1     -19.380 -11.593  -3.932  0.00  0.00     0.255 HD
HETATM    3  H           1     -18.090 -12.253  -3.033  0.00  0.00     0.275 HD
HETATM    4  H           1     -17.363 -12.170  -3.308  0.00  0.00     0.274 HD
HETATM    5  C           1     -17.979  -9.583  -2.855  0.00  0.00     0.062 C 
HETATM    6  C           1     -18.481  -9.267  -4.257  0.00  0.00     0.004 C 
HETATM    7  H           1     -16.636 -10.628  -3.221  0.00  0.00     0.254 HD
HETATM    8  C           1     -18.574 -10.553  -5.067  0.00  0.00     0.047 C 
HETATM    9  H           1     -15.755 -11.953  -3.837  0.00  0.00     0.274 HD
HETATM   10  C           1     -17.196 -11.197  -5.156  0.00  0.00     0.229 C 
HETATM   11  H           1     -19.697 -12.469  -2.503  0.00  0.00     0.275 HD
HETATM   12  N           1     -16.700 -11.510  -3.776  0.00  0.00    -0.080 N 
HETATM   13  N           1     -19.035 -11.811  -2.971  0.00  0.00    -0.067 N 
ENDROOT
BRANCH   1  14
HETATM   14  C           1     -20.309  -9.907  -2.084  0.00  0.00     0.249 C 
HETATM   15  N           1     -20.473  -8.729  -1.407  0.00  0.00    -0.344 N 
HETATM   16  H           1     -19.678  -8.284  -0.966  0.00  0.00     0.163 HD
HETATM   17  O           1     -21.258 -10.438  -2.611  0.00  0.00    -0.271 OA
BRANCH  15  18
HETATM   18  C           1     -21.785  -8.117  -1.322  0.00  0.00     0.189 C 
BRANCH  18  19
HETATM   19  C           1     -21.806  -6.857  -2.150  0.00  0.00     0.197 C 
HETATM   20  O           1     -21.119  -6.781  -3.191  0.00  0.00    -0.646 OA
HETATM   21  O           1     -22.512  -5.888  -1.796  0.00  0.00    -0.646 OA
ENDBRANCH  18  19
BRANCH  18  22
HETATM   22  C           1     -22.093  -7.777   0.130  0.00  0.00     0.010 C 
HETATM   23  C           1     -21.082  -8.465   1.038  0.00  0.00     0.012 C 
HETATM   24  C           1     -23.496  -8.258   0.477  0.00  0.00     0.012 C 
ENDBRANCH  18  22
ENDBRANCH  15  18
ENDBRANCH   1  14
TORSDOF 4
ENDMDL
