MODEL 1
REMARK VINA RESULT:      -5.6      0.000      0.000
REMARK  5 active torsions:
REMARK  status: ('A' for Active; 'I' for Inactive)
REMARK    1  A    between atoms: N_2  and  C_10 
REMARK       I    between atoms: C_3  and  N_4 
REMARK    2  A    between atoms: C_3  and  C_10 
REMARK    3  A    between atoms: N_4  and  C_14 
REMARK    4  A    between atoms: C_8  and  C_10 
REMARK    5  A    between atoms: C_14  and  C_15 
ROOT
HETATM    1  C           1     -21.966  -4.828  -8.038  0.00  0.00     0.249 C 
HETATM    2  N           1     -21.744  -4.785  -9.388  0.00  0.00    -0.345 N 
HETATM    3  H           1     -21.125  -5.458  -9.820  0.00  0.00     0.163 HD
HETATM    4  O           1     -22.705  -4.024  -7.521  0.00  0.00    -0.271 OA
ENDROOT
BRANCH   1   5
HETATM    5  C           1     -21.287  -5.879  -7.194  0.00  0.00     0.278 C 
BRANCH   5   6
HETATM    6  N           1     -19.854  -6.010  -7.617  0.00  0.00    -0.066 N 
HETATM    7  H           1     -19.268  -6.265  -6.790  0.00  0.00     0.275 HD
HETATM    8  H           1     -19.772  -6.755  -8.345  0.00  0.00     0.275 HD
HETATM    9  H           1     -19.522  -5.100  -8.010  0.00  0.00     0.275 HD
ENDBRANCH   5   6
BRANCH   5  10
HETATM   10  C           1     -21.348  -5.473  -5.728  0.00  0.00     0.017 C 
HETATM   11  C           1     -20.072  -4.728  -5.355  0.00  0.00     0.012 C 
HETATM   12  C           1     -21.479  -6.719  -4.861  0.00  0.00     0.012 C 
ENDBRANCH   5  10
ENDBRANCH   1   5
BRANCH   2  13
HETATM   13  C           1     -22.396  -3.776 -10.198  0.00  0.00     0.181 C 
HETATM   14  C           1     -21.438  -3.299 -11.282  0.00  0.00     0.043 C 
BRANCH  13  15
HETATM   15  C           1     -23.629  -4.365 -10.838  0.00  0.00     0.196 C 
HETATM   16  O           1     -23.584  -4.778 -12.018  0.00  0.00    -0.646 OA
HETATM   17  O           1     -24.695  -4.440 -10.190  0.00  0.00    -0.646 OA
ENDBRANCH  13  15
ENDBRANCH   2  13
TORSDOF 5
ENDMDL
MODEL 2
REMARK VINA RESULT:      -5.3      1.910      2.480
REMARK  5 active torsions:
REMARK  status: ('A' for Active; 'I' for Inactive)
REMARK    1  A    between atoms: N_2  and  C_10 
REMARK       I    between atoms: C_3  and  N_4 
REMARK    2  A    between atoms: C_3  and  C_10 
REMARK    3  A    between atoms: N_4  and  C_14 
REMARK    4  A    between atoms: C_8  and  C_10 
REMARK    5  A    between atoms: C_14  and  C_15 
ROOT
HETATM    1  C           1     -21.661  -4.772  -8.345  0.00  0.00     0.249 C 
HETATM    2  N           1     -22.524  -4.386  -9.335  0.00  0.00    -0.345 N 
HETATM    3  H           1     -23.402  -3.943  -9.097  0.00  0.00     0.163 HD
HETATM    4  O           1     -20.613  -5.301  -8.629  0.00  0.00    -0.271 OA
ENDROOT
BRANCH   1   5
HETATM    5  C           1     -22.019  -4.535  -6.898  0.00  0.00     0.278 C 
BRANCH   5   6
HETATM    6  N           1     -23.508  -4.617  -6.732  0.00  0.00    -0.066 N 
HETATM    7  H           1     -23.740  -4.735  -5.720  0.00  0.00     0.275 HD
HETATM    8  H           1     -23.947  -3.738  -7.089  0.00  0.00     0.275 HD
HETATM    9  H           1     -23.874  -5.434  -7.271  0.00  0.00     0.275 HD
ENDBRANCH   5   6
BRANCH   5  10
HETATM   10  C           1     -21.354  -5.595  -6.030  0.00  0.00     0.017 C 
HETATM   11  C           1     -22.404  -6.264  -5.152  0.00  0.00     0.012 C 
HETATM   12  C           1     -20.299  -4.940  -5.147  0.00  0.00     0.012 C 
ENDBRANCH   5  10
ENDBRANCH   1   5
BRANCH   2  13
HETATM   13  C           1     -22.181  -4.613 -10.725  0.00  0.00     0.181 C 
HETATM   14  C           1     -23.455  -4.777 -11.543  0.00  0.00     0.043 C 
BRANCH  13  15
HETATM   15  C           1     -21.396  -3.434 -11.246  0.00  0.00     0.196 C 
HETATM   16  O           1     -20.151  -3.504 -11.339  0.00  0.00    -0.646 OA
HETATM   17  O           1     -21.989  -2.388 -11.586  0.00  0.00    -0.646 OA
ENDBRANCH  13  15
ENDBRANCH   2  13
TORSDOF 5
ENDMDL
MODEL 3
REMARK VINA RESULT:      -5.0      2.406      5.206
REMARK  5 active torsions:
REMARK  status: ('A' for Active; 'I' for Inactive)
REMARK    1  A    between atoms: N_2  and  C_10 
REMARK       I    between atoms: C_3  and  N_4 
REMARK    2  A    between atoms: C_3  and  C_10 
REMARK    3  A    between atoms: N_4  and  C_14 
REMARK    4  A    between atoms: C_8  and  C_10 
REMARK    5  A    between atoms: C_14  and  C_15 
ROOT
HETATM    1  C           1     -21.778  -4.081  -7.837  0.00  0.00     0.249 C 
HETATM    2  N           1     -21.871  -5.360  -7.356  0.00  0.00    -0.345 N 
HETATM    3  H           1     -22.227  -6.099  -7.949  0.00  0.00     0.163 HD
HETATM    4  O           1     -21.353  -3.200  -7.130  0.00  0.00    -0.271 OA
ENDROOT
BRANCH   1   5
HETATM    5  C           1     -22.209  -3.774  -9.250  0.00  0.00     0.278 C 
BRANCH   5   6
HETATM    6  N           1     -21.221  -4.363 -10.213  0.00  0.00    -0.066 N 
HETATM    7  H           1     -21.661  -4.445 -11.157  0.00  0.00     0.275 HD
HETATM    8  H           1     -20.381  -3.745 -10.273  0.00  0.00     0.275 HD
HETATM    9  H           1     -20.934  -5.311  -9.880  0.00  0.00     0.275 HD
ENDBRANCH   5   6
BRANCH   5  10
HETATM   10  C           1     -23.585  -4.374  -9.504  0.00  0.00     0.017 C 
HETATM   11  C           1     -23.599  -5.052 -10.869  0.00  0.00     0.012 C 
HETATM   12  C           1     -24.634  -3.270  -9.477  0.00  0.00     0.012 C 
ENDBRANCH   5  10
ENDBRANCH   1   5
BRANCH   2  13
HETATM   13  C           1     -21.457  -5.656  -5.999  0.00  0.00     0.181 C 
HETATM   14  C           1     -22.618  -6.286  -5.241  0.00  0.00     0.043 C 
BRANCH  13  15
HETATM   15  C           1     -20.293  -6.616  -6.027  0.00  0.00     0.196 C 
HETATM   16  O           1     -20.081  -7.370  -5.052  0.00  0.00    -0.646 OA
HETATM   17  O           1     -19.541  -6.658  -7.024  0.00  0.00    -0.646 OA
ENDBRANCH  13  15
ENDBRANCH   2  13
TORSDOF 5
ENDMDL
MODEL 4
REMARK VINA RESULT:      -4.9      3.454      5.002
REMARK  5 active torsions:
REMARK  status: ('A' for Active; 'I' for Inactive)
REMARK    1  A    between atoms: N_2  and  C_10 
REMARK       I    between atoms: C_3  and  N_4 
REMARK    2  A    between atoms: C_3  and  C_10 
REMARK    3  A    between atoms: N_4  and  C_14 
REMARK    4  A    between atoms: C_8  and  C_10 
REMARK    5  A    between atoms: C_14  and  C_15 
ROOT
HETATM    1  C           1     -21.582  -6.716  -4.246  0.00  0.00     0.249 C 
HETATM    2  N           1     -21.374  -5.615  -5.033  0.00  0.00    -0.345 N 
HETATM    3  H           1     -21.076  -4.743  -4.615  0.00  0.00     0.163 HD
HETATM    4  O           1     -21.938  -7.757  -4.745  0.00  0.00    -0.271 OA
ENDROOT
BRANCH   1   5
HETATM    5  C           1     -21.368  -6.628  -2.755  0.00  0.00     0.278 C 
BRANCH   5   6
HETATM    6  N           1     -22.441  -5.776  -2.145  0.00  0.00    -0.066 N 
HETATM    7  H           1     -22.161  -4.771  -2.199  0.00  0.00     0.275 HD
HETATM    8  H           1     -23.336  -5.916  -2.667  0.00  0.00     0.275 HD
HETATM    9  H           1     -22.575  -6.047  -1.144  0.00  0.00     0.275 HD
ENDBRANCH   5   6
BRANCH   5  10
HETATM   10  C           1     -21.425  -8.025  -2.150  0.00  0.00     0.017 C 
HETATM   11  C           1     -22.105  -7.960  -0.788  0.00  0.00     0.012 C 
HETATM   12  C           1     -20.010  -8.565  -1.984  0.00  0.00     0.012 C 
ENDBRANCH   5  10
ENDBRANCH   1   5
BRANCH   2  13
HETATM   13  C           1     -21.579  -5.699  -6.466  0.00  0.00     0.181 C 
HETATM   14  C           1     -22.356  -4.477  -6.939  0.00  0.00     0.043 C 
BRANCH  13  15
HETATM   15  C           1     -20.242  -5.748  -7.163  0.00  0.00     0.196 C 
HETATM   16  O           1     -19.846  -4.763  -7.824  0.00  0.00    -0.646 OA
HETATM   17  O           1     -19.531  -6.772  -7.079  0.00  0.00    -0.646 OA
ENDBRANCH  13  15
ENDBRANCH   2  13
TORSDOF 5
ENDMDL
MODEL 5
REMARK VINA RESULT:      -4.9      2.882      5.960
REMARK  5 active torsions:
REMARK  status: ('A' for Active; 'I' for Inactive)
REMARK    1  A    between atoms: N_2  and  C_10 
REMARK       I    between atoms: C_3  and  N_4 
REMARK    2  A    between atoms: C_3  and  C_10 
REMARK    3  A    between atoms: N_4  and  C_14 
REMARK    4  A    between atoms: C_8  and  C_10 
REMARK    5  A    between atoms: C_14  and  C_15 
ROOT
HETATM    1  C           1     -21.730  -5.494  -5.911  0.00  0.00     0.249 C 
HETATM    2  N           1     -21.019  -6.365  -5.130  0.00  0.00    -0.345 N 
HETATM    3  H           1     -20.008  -6.356  -5.153  0.00  0.00     0.163 HD
HETATM    4  O           1     -22.937  -5.506  -5.885  0.00  0.00    -0.271 OA
ENDROOT
BRANCH   1   5
HETATM    5  C           1     -21.004  -4.519  -6.806  0.00  0.00     0.278 C 
BRANCH   5   6
HETATM    6  N           1     -19.524  -4.675  -6.618  0.00  0.00    -0.066 N 
HETATM    7  H           1     -19.125  -3.787  -6.239  0.00  0.00     0.275 HD
HETATM    8  H           1     -19.338  -5.455  -5.948  0.00  0.00     0.275 HD
HETATM    9  H           1     -19.078  -4.892  -7.538  0.00  0.00     0.275 HD
ENDBRANCH   5   6
BRANCH   5  10
HETATM   10  C           1     -21.363  -4.798  -8.260  0.00  0.00     0.017 C 
HETATM   11  C           1     -20.105  -4.725  -9.115  0.00  0.00     0.012 C 
HETATM   12  C           1     -22.366  -3.759  -8.743  0.00  0.00     0.012 C 
ENDBRANCH   5  10
ENDBRANCH   1   5
BRANCH   2  13
HETATM   13  C           1     -21.716  -7.302  -4.271  0.00  0.00     0.181 C 
HETATM   14  C           1     -21.082  -8.681  -4.404  0.00  0.00     0.043 C 
BRANCH  13  15
HETATM   15  C           1     -21.617  -6.838  -2.839  0.00  0.00     0.196 C 
HETATM   16  O           1     -20.764  -7.342  -2.076  0.00  0.00    -0.646 OA
HETATM   17  O           1     -22.387  -5.950  -2.414  0.00  0.00    -0.646 OA
ENDBRANCH  13  15
ENDBRANCH   2  13
TORSDOF 5
ENDMDL
MODEL 6
REMARK VINA RESULT:      -4.9      2.006      2.951
REMARK  5 active torsions:
REMARK  status: ('A' for Active; 'I' for Inactive)
REMARK    1  A    between atoms: N_2  and  C_10 
REMARK       I    between atoms: C_3  and  N_4 
REMARK    2  A    between atoms: C_3  and  C_10 
REMARK    3  A    between atoms: N_4  and  C_14 
REMARK    4  A    between atoms: C_8  and  C_10 
REMARK    5  A    between atoms: C_14  and  C_15 
ROOT
HETATM    1  C           1     -21.249  -5.630  -5.761  0.00  0.00     0.249 C 
HETATM    2  N           1     -21.693  -5.482  -7.048  0.00  0.00    -0.345 N 
HETATM    3  H           1     -22.311  -6.173  -7.453  0.00  0.00     0.163 HD
HETATM    4  O           1     -20.512  -4.805  -5.278  0.00  0.00    -0.271 OA
ENDROOT
BRANCH   1   5
HETATM    5  C           1     -21.682  -6.825  -4.947  0.00  0.00     0.278 C 
BRANCH   5   6
HETATM    6  N           1     -21.275  -8.084  -5.653  0.00  0.00    -0.066 N 
HETATM    7  H           1     -21.952  -8.287  -6.422  0.00  0.00     0.275 HD
HETATM    8  H           1     -20.317  -7.964  -6.054  0.00  0.00     0.275 HD
HETATM    9  H           1     -21.272  -8.878  -4.974  0.00  0.00     0.275 HD
ENDBRANCH   5   6
BRANCH   5  10
HETATM   10  C           1     -21.019  -6.774  -3.577  0.00  0.00     0.017 C 
HETATM   11  C           1     -20.518  -8.163  -3.204  0.00  0.00     0.012 C 
HETATM   12  C           1     -22.031  -6.305  -2.540  0.00  0.00     0.012 C 
ENDBRANCH   5  10
ENDBRANCH   1   5
BRANCH   2  13
HETATM   13  C           1     -21.278  -4.334  -7.831  0.00  0.00     0.181 C 
HETATM   14  C           1     -20.046  -4.696  -8.648  0.00  0.00     0.043 C 
BRANCH  13  15
HETATM   15  C           1     -22.397  -3.928  -8.758  0.00  0.00     0.196 C 
HETATM   16  O           1     -23.587  -4.054  -8.395  0.00  0.00    -0.646 OA
HETATM   17  O           1     -22.134  -3.465  -9.889  0.00  0.00    -0.646 OA
ENDBRANCH  13  15
ENDBRANCH   2  13
TORSDOF 5
ENDMDL
MODEL 7
REMARK VINA RESULT:      -4.7      5.521      7.707
REMARK  5 active torsions:
REMARK  status: ('A' for Active; 'I' for Inactive)
REMARK    1  A    between atoms: N_2  and  C_10 
REMARK       I    between atoms: C_3  and  N_4 
REMARK    2  A    between atoms: C_3  and  C_10 
REMARK    3  A    between atoms: N_4  and  C_14 
REMARK    4  A    between atoms: C_8  and  C_10 
REMARK    5  A    between atoms: C_14  and  C_15 
ROOT
HETATM    1  C           1     -21.019  -9.046  -1.785  0.00  0.00     0.249 C 
HETATM    2  N           1     -21.612  -8.758  -2.985  0.00  0.00    -0.345 N 
HETATM    3  H           1     -22.435  -9.268  -3.278  0.00  0.00     0.163 HD
HETATM    4  O           1     -20.037  -8.437  -1.435  0.00  0.00    -0.271 OA
ENDROOT
BRANCH   1   5
HETATM    5  C           1     -21.592 -10.127  -0.901  0.00  0.00     0.278 C 
BRANCH   5   6
HETATM    6  N           1     -20.832 -10.171   0.391  0.00  0.00    -0.066 N 
HETATM    7  H           1     -21.127  -9.371   0.996  0.00  0.00     0.275 HD
HETATM    8  H           1     -21.033 -11.071   0.883  0.00  0.00     0.275 HD
HETATM    9  H           1     -19.808 -10.100   0.196  0.00  0.00     0.275 HD
ENDBRANCH   5   6
BRANCH   5  10
HETATM   10  C           1     -23.058  -9.827  -0.617  0.00  0.00     0.017 C 
HETATM   11  C           1     -23.157  -8.686   0.387  0.00  0.00     0.012 C 
HETATM   12  C           1     -23.728 -11.068  -0.041  0.00  0.00     0.012 C 
ENDBRANCH   5  10
ENDBRANCH   1   5
BRANCH   2  13
HETATM   13  C           1     -21.062  -7.720  -3.834  0.00  0.00     0.181 C 
HETATM   14  C           1     -20.927  -8.247  -5.257  0.00  0.00     0.043 C 
BRANCH  13  15
HETATM   15  C           1     -21.982  -6.524  -3.825  0.00  0.00     0.196 C 
HETATM   16  O           1     -22.329  -6.010  -2.739  0.00  0.00    -0.646 OA
HETATM   17  O           1     -22.397  -6.046  -4.903  0.00  0.00    -0.646 OA
ENDBRANCH  13  15
ENDBRANCH   2  13
TORSDOF 5
ENDMDL
MODEL 8
REMARK VINA RESULT:      -4.6      4.794      7.064
REMARK  5 active torsions:
REMARK  status: ('A' for Active; 'I' for Inactive)
REMARK    1  A    between atoms: N_2  and  C_10 
REMARK       I    between atoms: C_3  and  N_4 
REMARK    2  A    between atoms: C_3  and  C_10 
REMARK    3  A    between atoms: N_4  and  C_14 
REMARK    4  A    between atoms: C_8  and  C_10 
REMARK    5  A    between atoms: C_14  and  C_15 
ROOT
HETATM    1  C           1     -20.578  -8.000  -2.128  0.00  0.00     0.249 C 
HETATM    2  N           1     -21.115  -7.503  -3.286  0.00  0.00    -0.345 N 
HETATM    3  H           1     -21.936  -6.912  -3.250  0.00  0.00     0.163 HD
HETATM    4  O           1     -19.599  -8.705  -2.171  0.00  0.00    -0.271 OA
ENDROOT
BRANCH   1   5
HETATM    5  C           1     -21.211  -7.667  -0.800  0.00  0.00     0.278 C 
BRANCH   5   6
HETATM    6  N           1     -22.492  -6.921  -1.029  0.00  0.00    -0.066 N 
HETATM    7  H           1     -22.283  -5.996  -1.469  0.00  0.00     0.275 HD
HETATM    8  H           1     -23.110  -7.476  -1.663  0.00  0.00     0.275 HD
HETATM    9  H           1     -22.976  -6.769  -0.115  0.00  0.00     0.275 HD
ENDBRANCH   5   6
BRANCH   5  10
HETATM   10  C           1     -21.504  -8.954  -0.039  0.00  0.00     0.017 C 
HETATM   11  C           1     -23.000  -9.237  -0.079  0.00  0.00     0.012 C 
HETATM   12  C           1     -21.056  -8.801   1.409  0.00  0.00     0.012 C 
ENDBRANCH   5  10
ENDBRANCH   1   5
BRANCH   2  13
HETATM   13  C           1     -20.507  -7.821  -4.562  0.00  0.00     0.181 C 
HETATM   14  C           1     -21.215  -9.022  -5.176  0.00  0.00     0.043 C 
BRANCH  13  15
HETATM   15  C           1     -20.631  -6.636  -5.488  0.00  0.00     0.196 C 
HETATM   16  O           1     -20.702  -5.480  -5.017  0.00  0.00    -0.646 OA
HETATM   17  O           1     -20.664  -6.810  -6.725  0.00  0.00    -0.646 OA
ENDBRANCH  13  15
ENDBRANCH   2  13
TORSDOF 5
ENDMDL
MODEL 9
REMARK VINA RESULT:      -4.5      5.781      7.794
REMARK  5 active torsions:
REMARK  status: ('A' for Active; 'I' for Inactive)
REMARK    1  A    between atoms: N_2  and  C_10 
REMARK       I    between atoms: C_3  and  N_4 
REMARK    2  A    between atoms: C_3  and  C_10 
REMARK    3  A    between atoms: N_4  and  C_14 
REMARK    4  A    between atoms: C_8  and  C_10 
REMARK    5  A    between atoms: C_14  and  C_15 
ROOT
HETATM    1  C           1     -21.789  -9.526  -2.087  0.00  0.00     0.249 C 
HETATM    2  N           1     -21.212  -8.397  -2.604  0.00  0.00    -0.345 N 
HETATM    3  H           1     -20.713  -7.760  -1.997  0.00  0.00     0.163 HD
HETATM    4  O           1     -22.384 -10.287  -2.812  0.00  0.00    -0.271 OA
ENDROOT
BRANCH   1   5
HETATM    5  C           1     -21.680  -9.820  -0.611  0.00  0.00     0.278 C 
BRANCH   5   6
HETATM    6  N           1     -20.388 -10.531  -0.336  0.00  0.00    -0.066 N 
HETATM    7  H           1     -19.588  -9.888  -0.533  0.00  0.00     0.275 HD
HETATM    8  H           1     -20.359 -10.826   0.666  0.00  0.00     0.275 HD
HETATM    9  H           1     -20.316 -11.373  -0.950  0.00  0.00     0.275 HD
ENDBRANCH   5   6
BRANCH   5  10
HETATM   10  C           1     -21.716  -8.514   0.172  0.00  0.00     0.017 C 
HETATM   11  C           1     -20.980  -8.694   1.493  0.00  0.00     0.012 C 
HETATM   12  C           1     -23.164  -8.127   0.447  0.00  0.00     0.012 C 
ENDBRANCH   5  10
ENDBRANCH   1   5
BRANCH   2  13
HETATM   13  C           1     -21.316  -8.115  -4.022  0.00  0.00     0.181 C 
HETATM   14  C           1     -21.805  -6.686  -4.220  0.00  0.00     0.043 C 
BRANCH  13  15
HETATM   15  C           1     -19.962  -8.278  -4.667  0.00  0.00     0.196 C 
HETATM   16  O           1     -19.761  -7.836  -5.819  0.00  0.00    -0.646 OA
HETATM   17  O           1     -19.040  -8.854  -4.050  0.00  0.00    -0.646 OA
ENDBRANCH  13  15
ENDBRANCH   2  13
TORSDOF 5
ENDMDL
