MODEL 1
REMARK VINA RESULT:      -7.7      0.000      0.000
REMARK  9 active torsions:
REMARK  status: ('A' for Active; 'I' for Inactive)
REMARK    1  A    between atoms: C_1  and  C_31 
REMARK    2  A    between atoms: C_1  and  C_4 
REMARK    3  A    between atoms: C_1  and  N_25 
REMARK    4  A    between atoms: C_4  and  C_14 
REMARK    5  A    between atoms: C_6  and  C_11 
REMARK    6  A    between atoms: C_11  and  C_19 
REMARK    7  A    between atoms: C_11  and  N_20 
REMARK       I    between atoms: N_18  and  C_23 
REMARK    8  A    between atoms: C_19  and  C_29 
REMARK       I    between atoms: N_20  and  C_31 
REMARK    9  A    between atoms: C_23  and  C_29 
ROOT
HETATM    1  C           1     -20.468  -5.866  -5.056  0.00  0.00     0.278 C 
ENDROOT
BRANCH   1   2
HETATM    2  C           1     -20.953  -5.878  -6.484  0.00  0.00     0.249 C 
HETATM    3  O           1     -21.148  -6.928  -7.048  0.00  0.00    -0.271 OA
HETATM    4  N           1     -21.174  -4.697  -7.142  0.00  0.00    -0.345 N 
HETATM    5  H           1     -21.013  -3.817  -6.670  0.00  0.00     0.163 HD
BRANCH   4   6
HETATM    6  C           1     -21.641  -4.709  -8.514  0.00  0.00     0.186 C 
BRANCH   6   7
HETATM    7  C           1     -20.476  -4.470  -9.443  0.00  0.00     0.196 C 
HETATM    8  O           1     -20.627  -4.585 -10.679  0.00  0.00    -0.646 OA
HETATM    9  O           1     -19.359  -4.157  -8.977  0.00  0.00    -0.646 OA
ENDBRANCH   6   7
BRANCH   6  10
HETATM   10  C           1     -22.678  -3.610  -8.709  0.00  0.00     0.045 C 
BRANCH  10  11
HETATM   11  C           1     -24.015  -4.234  -9.084  0.00  0.00     0.105 C 
BRANCH  11  12
HETATM   12  C           1     -24.257  -4.055 -10.563  0.00  0.00     0.215 C 
HETATM   13  N           1     -23.615  -4.862 -11.464  0.00  0.00    -0.370 N 
HETATM   14  H           1     -22.978  -5.578 -11.139  0.00  0.00     0.159 HD
HETATM   15  H           1     -23.777  -4.742 -12.456  0.00  0.00     0.159 HD
HETATM   16  O           1     -25.018  -3.202 -10.952  0.00  0.00    -0.274 OA
ENDBRANCH  11  12
ENDBRANCH  10  11
ENDBRANCH   6  10
ENDBRANCH   4   6
ENDBRANCH   1   2
BRANCH   1  17
HETATM   17  C           1     -21.604  -6.278  -4.129  0.00  0.00     0.083 C 
BRANCH  17  18
HETATM   18  C           1     -21.153  -7.405  -3.255  0.00  0.00    -0.028 A 
HETATM   19  C           1     -21.528  -7.617  -1.899  0.00  0.00    -0.002 A 
HETATM   20  C           1     -20.882  -8.776  -1.470  0.00  0.00     0.042 A 
HETATM   21  C           1     -22.360  -6.931  -0.994  0.00  0.00     0.014 A 
HETATM   22  N           1     -20.143  -9.244  -2.534  0.00  0.00    -0.365 N 
HETATM   23  C           1     -21.025  -9.288  -0.174  0.00  0.00     0.030 A 
HETATM   24  C           1     -20.299  -8.422  -3.618  0.00  0.00     0.096 A 
HETATM   25  H           1     -19.544 -10.107  -2.516  0.00  0.00     0.165 HD
HETATM   26  C           1     -21.857  -8.588   0.707  0.00  0.00     0.002 A 
HETATM   27  C           1     -22.515  -7.428   0.306  0.00  0.00     0.001 A 
ENDBRANCH  17  18
ENDBRANCH   1  17
BRANCH   1  28
HETATM   28  N           1     -20.006  -4.484  -4.697  0.00  0.00    -0.066 N 
HETATM   29  H           1     -20.680  -3.782  -5.076  0.00  0.00     0.275 HD
HETATM   30  H           1     -19.955  -4.394  -3.657  0.00  0.00     0.275 HD
HETATM   31  H           1     -19.060  -4.316  -5.108  0.00  0.00     0.275 HD
ENDBRANCH   1  28
TORSDOF 9
ENDMDL
MODEL 2
REMARK VINA RESULT:      -7.5      2.870      8.437
REMARK  9 active torsions:
REMARK  status: ('A' for Active; 'I' for Inactive)
REMARK    1  A    between atoms: C_1  and  C_31 
REMARK    2  A    between atoms: C_1  and  C_4 
REMARK    3  A    between atoms: C_1  and  N_25 
REMARK    4  A    between atoms: C_4  and  C_14 
REMARK    5  A    between atoms: C_6  and  C_11 
REMARK    6  A    between atoms: C_11  and  C_19 
REMARK    7  A    between atoms: C_11  and  N_20 
REMARK       I    between atoms: N_18  and  C_23 
REMARK    8  A    between atoms: C_19  and  C_29 
REMARK       I    between atoms: N_20  and  C_31 
REMARK    9  A    between atoms: C_23  and  C_29 
ROOT
HETATM    1  C           1     -21.247  -5.449  -5.430  0.00  0.00     0.278 C 
ENDROOT
BRANCH   1   2
HETATM    2  C           1     -21.454  -6.685  -4.589  0.00  0.00     0.249 C 
HETATM    3  O           1     -21.947  -7.673  -5.078  0.00  0.00    -0.271 OA
HETATM    4  N           1     -21.082  -6.686  -3.271  0.00  0.00    -0.345 N 
HETATM    5  H           1     -20.668  -5.859  -2.862  0.00  0.00     0.163 HD
BRANCH   4   6
HETATM    6  C           1     -21.281  -7.874  -2.464  0.00  0.00     0.186 C 
BRANCH   6   7
HETATM    7  C           1     -21.948  -7.492  -1.165  0.00  0.00     0.196 C 
HETATM    8  O           1     -22.625  -6.444  -1.095  0.00  0.00    -0.646 OA
HETATM    9  O           1     -21.824  -8.225  -0.160  0.00  0.00    -0.646 OA
ENDBRANCH   6   7
BRANCH   6  10
HETATM   10  C           1     -19.934  -8.522  -2.171  0.00  0.00     0.045 C 
BRANCH  10  11
HETATM   11  C           1     -19.750  -9.740  -3.066  0.00  0.00     0.105 C 
BRANCH  11  12
HETATM   12  C           1     -18.748  -9.423  -4.148  0.00  0.00     0.215 C 
HETATM   13  N           1     -19.179  -9.108  -5.409  0.00  0.00    -0.370 N 
HETATM   14  H           1     -20.169  -9.087  -5.615  0.00  0.00     0.159 HD
HETATM   15  H           1     -18.506  -8.895  -6.135  0.00  0.00     0.159 HD
HETATM   16  O           1     -17.566  -9.447  -3.903  0.00  0.00    -0.274 OA
ENDBRANCH  11  12
ENDBRANCH  10  11
ENDBRANCH   6  10
ENDBRANCH   4   6
ENDBRANCH   1   2
BRANCH   1  17
HETATM   17  C           1     -21.000  -5.854  -6.877  0.00  0.00     0.083 C 
BRANCH  17  18
HETATM   18  C           1     -21.805  -4.979  -7.786  0.00  0.00    -0.028 A 
HETATM   19  C           1     -21.415  -4.526  -9.077  0.00  0.00    -0.002 A 
HETATM   20  C           1     -22.456  -3.739  -9.568  0.00  0.00     0.042 A 
HETATM   21  C           1     -20.272  -4.714  -9.876  0.00  0.00     0.014 A 
HETATM   22  N           1     -23.438  -3.720  -8.604  0.00  0.00    -0.365 N 
HETATM   23  C           1     -22.412  -3.125 -10.826  0.00  0.00     0.030 A 
HETATM   24  C           1     -23.054  -4.466  -7.521  0.00  0.00     0.096 A 
HETATM   25  H           1     -24.351  -3.206  -8.685  0.00  0.00     0.165 HD
HETATM   26  C           1     -21.266  -3.326 -11.602  0.00  0.00     0.002 A 
HETATM   27  C           1     -20.210  -4.107 -11.137  0.00  0.00     0.001 A 
ENDBRANCH  17  18
ENDBRANCH   1  17
BRANCH   1  28
HETATM   28  N           1     -20.061  -4.688  -4.915  0.00  0.00    -0.066 N 
HETATM   29  H           1     -19.186  -5.085  -5.326  0.00  0.00     0.275 HD
HETATM   30  H           1     -20.148  -3.683  -5.186  0.00  0.00     0.275 HD
HETATM   31  H           1     -20.022  -4.766  -3.874  0.00  0.00     0.275 HD
ENDBRANCH   1  28
TORSDOF 9
ENDMDL
MODEL 3
REMARK VINA RESULT:      -7.4      2.867      8.289
REMARK  9 active torsions:
REMARK  status: ('A' for Active; 'I' for Inactive)
REMARK    1  A    between atoms: C_1  and  C_31 
REMARK    2  A    between atoms: C_1  and  C_4 
REMARK    3  A    between atoms: C_1  and  N_25 
REMARK    4  A    between atoms: C_4  and  C_14 
REMARK    5  A    between atoms: C_6  and  C_11 
REMARK    6  A    between atoms: C_11  and  C_19 
REMARK    7  A    between atoms: C_11  and  N_20 
REMARK       I    between atoms: N_18  and  C_23 
REMARK    8  A    between atoms: C_19  and  C_29 
REMARK       I    between atoms: N_20  and  C_31 
REMARK    9  A    between atoms: C_23  and  C_29 
ROOT
HETATM    1  C           1     -21.659  -6.369  -5.489  0.00  0.00     0.278 C 
ENDROOT
BRANCH   1   2
HETATM    2  C           1     -20.756  -7.577  -5.472  0.00  0.00     0.249 C 
HETATM    3  O           1     -19.720  -7.566  -6.094  0.00  0.00    -0.271 OA
HETATM    4  N           1     -21.110  -8.687  -4.752  0.00  0.00    -0.345 N 
HETATM    5  H           1     -21.976  -8.696  -4.230  0.00  0.00     0.163 HD
BRANCH   4   6
HETATM    6  C           1     -20.241  -9.847  -4.736  0.00  0.00     0.186 C 
BRANCH   6   7
HETATM    7  C           1     -20.867 -10.953  -5.550  0.00  0.00     0.196 C 
HETATM    8  O           1     -21.847 -11.584  -5.099  0.00  0.00    -0.646 OA
HETATM    9  O           1     -20.405 -11.237  -6.677  0.00  0.00    -0.646 OA
ENDBRANCH   6   7
BRANCH   6  10
HETATM   10  C           1     -20.049 -10.321  -3.301  0.00  0.00     0.045 C 
BRANCH  10  11
HETATM   11  C           1     -19.579  -9.157  -2.440  0.00  0.00     0.105 C 
BRANCH  11  12
HETATM   12  C           1     -20.685  -8.748  -1.498  0.00  0.00     0.215 C 
HETATM   13  N           1     -20.890  -9.448  -0.339  0.00  0.00    -0.370 N 
HETATM   14  H           1     -20.301 -10.239  -0.114  0.00  0.00     0.159 HD
HETATM   15  H           1     -21.632  -9.174   0.293  0.00  0.00     0.159 HD
HETATM   16  O           1     -21.389  -7.804  -1.765  0.00  0.00    -0.274 OA
ENDBRANCH  11  12
ENDBRANCH  10  11
ENDBRANCH   6  10
ENDBRANCH   4   6
ENDBRANCH   1   2
BRANCH   1  17
HETATM   17  C           1     -20.977  -5.234  -6.242  0.00  0.00     0.083 C 
BRANCH  17  18
HETATM   18  C           1     -21.887  -4.729  -7.316  0.00  0.00    -0.028 A 
HETATM   19  C           1     -21.525  -4.464  -8.667  0.00  0.00    -0.002 A 
HETATM   20  C           1     -22.672  -4.010  -9.318  0.00  0.00     0.042 A 
HETATM   21  C           1     -20.326  -4.568  -9.397  0.00  0.00     0.014 A 
HETATM   22  N           1     -23.689  -4.004  -8.390  0.00  0.00    -0.365 N 
HETATM   23  C           1     -22.681  -3.653 -10.672  0.00  0.00     0.030 A 
HETATM   24  C           1     -23.225  -4.436  -7.176  0.00  0.00     0.096 A 
HETATM   25  H           1     -24.678  -3.709  -8.584  0.00  0.00     0.165 HD
HETATM   26  C           1     -21.478  -3.765 -11.377  0.00  0.00     0.002 A 
HETATM   27  C           1     -20.317  -4.214 -10.752  0.00  0.00     0.001 A 
ENDBRANCH  17  18
ENDBRANCH   1  17
BRANCH   1  28
HETATM   28  N           1     -21.940  -5.936  -4.080  0.00  0.00    -0.066 N 
HETATM   29  H           1     -22.949  -5.680  -3.988  0.00  0.00     0.275 HD
HETATM   30  H           1     -21.718  -6.719  -3.425  0.00  0.00     0.275 HD
HETATM   31  H           1     -21.348  -5.107  -3.847  0.00  0.00     0.275 HD
ENDBRANCH   1  28
TORSDOF 9
ENDMDL
MODEL 4
REMARK VINA RESULT:      -7.3      3.593      8.456
REMARK  9 active torsions:
REMARK  status: ('A' for Active; 'I' for Inactive)
REMARK    1  A    between atoms: C_1  and  C_31 
REMARK    2  A    between atoms: C_1  and  C_4 
REMARK    3  A    between atoms: C_1  and  N_25 
REMARK    4  A    between atoms: C_4  and  C_14 
REMARK    5  A    between atoms: C_6  and  C_11 
REMARK    6  A    between atoms: C_11  and  C_19 
REMARK    7  A    between atoms: C_11  and  N_20 
REMARK       I    between atoms: N_18  and  C_23 
REMARK    8  A    between atoms: C_19  and  C_29 
REMARK       I    between atoms: N_20  and  C_31 
REMARK    9  A    between atoms: C_23  and  C_29 
ROOT
HETATM    1  C           1     -21.558  -6.471  -5.364  0.00  0.00     0.278 C 
ENDROOT
BRANCH   1   2
HETATM    2  C           1     -20.890  -7.823  -5.390  0.00  0.00     0.249 C 
HETATM    3  O           1     -21.343  -8.708  -6.077  0.00  0.00    -0.271 OA
HETATM    4  N           1     -19.769  -8.048  -4.635  0.00  0.00    -0.345 N 
HETATM    5  H           1     -19.389  -7.307  -4.061  0.00  0.00     0.163 HD
BRANCH   4   6
HETATM    6  C           1     -19.127  -9.348  -4.661  0.00  0.00     0.186 C 
BRANCH   6   7
HETATM    7  C           1     -18.554  -9.651  -3.299  0.00  0.00     0.196 C 
HETATM    8  O           1     -19.226 -10.299  -2.467  0.00  0.00    -0.646 OA
HETATM    9  O           1     -17.405  -9.257  -3.003  0.00  0.00    -0.646 OA
ENDBRANCH   6   7
BRANCH   6  10
HETATM   10  C           1     -18.007  -9.343  -5.693  0.00  0.00     0.045 C 
BRANCH  10  11
HETATM   11  C           1     -17.726 -10.769  -6.145  0.00  0.00     0.105 C 
BRANCH  11  12
HETATM   12  C           1     -16.247 -11.049  -6.037  0.00  0.00     0.215 C 
HETATM   13  N           1     -15.475 -10.323  -5.171  0.00  0.00    -0.370 N 
HETATM   14  H           1     -15.895  -9.598  -4.603  0.00  0.00     0.159 HD
HETATM   15  H           1     -14.482 -10.510  -5.098  0.00  0.00     0.159 HD
HETATM   16  O           1     -15.744 -11.913  -6.714  0.00  0.00    -0.274 OA
ENDBRANCH  11  12
ENDBRANCH  10  11
ENDBRANCH   6  10
ENDBRANCH   4   6
ENDBRANCH   1   2
BRANCH   1  17
HETATM   17  C           1     -20.805  -5.514  -6.279  0.00  0.00     0.083 C 
BRANCH  17  18
HETATM   18  C           1     -21.759  -4.906  -7.259  0.00  0.00    -0.028 A 
HETATM   19  C           1     -21.467  -4.559  -8.608  0.00  0.00    -0.002 A 
HETATM   20  C           1     -22.634  -4.025  -9.156  0.00  0.00     0.042 A 
HETATM   21  C           1     -20.319  -4.650  -9.416  0.00  0.00     0.014 A 
HETATM   22  N           1     -23.593  -4.051  -8.168  0.00  0.00    -0.365 N 
HETATM   23  C           1     -22.711  -3.574 -10.479  0.00  0.00     0.030 A 
HETATM   24  C           1     -23.074  -4.581  -7.017  0.00  0.00     0.096 A 
HETATM   25  H           1     -24.581  -3.711  -8.281  0.00  0.00     0.165 HD
HETATM   26  C           1     -21.557  -3.675 -11.263  0.00  0.00     0.002 A 
HETATM   27  C           1     -20.378  -4.204 -10.742  0.00  0.00     0.001 A 
ENDBRANCH  17  18
ENDBRANCH   1  17
BRANCH   1  28
HETATM   28  N           1     -21.545  -5.935  -3.962  0.00  0.00    -0.066 N 
HETATM   29  H           1     -20.987  -6.572  -3.350  0.00  0.00     0.275 HD
HETATM   30  H           1     -21.115  -4.983  -3.958  0.00  0.00     0.275 HD
HETATM   31  H           1     -22.524  -5.877  -3.603  0.00  0.00     0.275 HD
ENDBRANCH   1  28
TORSDOF 9
ENDMDL
MODEL 5
REMARK VINA RESULT:      -7.2      1.552      2.074
REMARK  9 active torsions:
REMARK  status: ('A' for Active; 'I' for Inactive)
REMARK    1  A    between atoms: C_1  and  C_31 
REMARK    2  A    between atoms: C_1  and  C_4 
REMARK    3  A    between atoms: C_1  and  N_25 
REMARK    4  A    between atoms: C_4  and  C_14 
REMARK    5  A    between atoms: C_6  and  C_11 
REMARK    6  A    between atoms: C_11  and  C_19 
REMARK    7  A    between atoms: C_11  and  N_20 
REMARK       I    between atoms: N_18  and  C_23 
REMARK    8  A    between atoms: C_19  and  C_29 
REMARK       I    between atoms: N_20  and  C_31 
REMARK    9  A    between atoms: C_23  and  C_29 
ROOT
HETATM    1  C           1     -22.037  -6.215  -4.810  0.00  0.00     0.278 C 
ENDROOT
BRANCH   1   2
HETATM    2  C           1     -21.452  -6.099  -6.196  0.00  0.00     0.249 C 
HETATM    3  O           1     -20.872  -7.038  -6.688  0.00  0.00    -0.271 OA
HETATM    4  N           1     -21.578  -4.930  -6.897  0.00  0.00    -0.345 N 
HETATM    5  H           1     -22.065  -4.144  -6.486  0.00  0.00     0.163 HD
BRANCH   4   6
HETATM    6  C           1     -21.017  -4.819  -8.229  0.00  0.00     0.186 C 
BRANCH   6   7
HETATM    7  C           1     -19.650  -4.186  -8.146  0.00  0.00     0.196 C 
HETATM    8  O           1     -19.331  -3.278  -8.944  0.00  0.00    -0.646 OA
HETATM    9  O           1     -18.835  -4.570  -7.278  0.00  0.00    -0.646 OA
ENDBRANCH   6   7
BRANCH   6  10
HETATM   10  C           1     -21.924  -3.954  -9.095  0.00  0.00     0.045 C 
BRANCH  10  11
HETATM   11  C           1     -23.378  -4.210  -8.721  0.00  0.00     0.105 C 
BRANCH  11  12
HETATM   12  C           1     -24.280  -3.628  -9.782  0.00  0.00     0.215 C 
HETATM   13  N           1     -25.637  -3.630  -9.602  0.00  0.00    -0.370 N 
HETATM   14  H           1     -26.035  -4.021  -8.758  0.00  0.00     0.159 HD
HETATM   15  H           1     -26.243  -3.240 -10.313  0.00  0.00     0.159 HD
HETATM   16  O           1     -23.805  -3.162 -10.790  0.00  0.00    -0.274 OA
ENDBRANCH  11  12
ENDBRANCH  10  11
ENDBRANCH   6  10
ENDBRANCH   4   6
ENDBRANCH   1   2
BRANCH   1  17
HETATM   17  C           1     -21.494  -7.466  -4.132  0.00  0.00     0.083 C 
BRANCH  17  18
HETATM   18  C           1     -21.702  -7.364  -2.654  0.00  0.00    -0.028 A 
HETATM   19  C           1     -21.417  -8.375  -1.695  0.00  0.00    -0.002 A 
HETATM   20  C           1     -21.760  -7.863  -0.443  0.00  0.00     0.042 A 
HETATM   21  C           1     -20.897  -9.681  -1.773  0.00  0.00     0.014 A 
HETATM   22  N           1     -22.235  -6.586  -0.645  0.00  0.00    -0.365 N 
HETATM   23  C           1     -21.609  -8.595   0.741  0.00  0.00     0.030 A 
HETATM   24  C           1     -22.205  -6.275  -1.978  0.00  0.00     0.096 A 
HETATM   25  H           1     -22.574  -5.944   0.114  0.00  0.00     0.165 HD
HETATM   26  C           1     -21.091  -9.890   0.638  0.00  0.00     0.002 A 
HETATM   27  C           1     -20.740 -10.427  -0.599  0.00  0.00     0.001 A 
ENDBRANCH  17  18
ENDBRANCH   1  17
BRANCH   1  28
HETATM   28  N           1     -23.531  -6.307  -4.905  0.00  0.00    -0.066 N 
HETATM   29  H           1     -23.875  -7.066  -4.275  0.00  0.00     0.275 HD
HETATM   30  H           1     -23.955  -5.396  -4.616  0.00  0.00     0.275 HD
HETATM   31  H           1     -23.805  -6.521  -5.890  0.00  0.00     0.275 HD
ENDBRANCH   1  28
TORSDOF 9
ENDMDL
MODEL 6
REMARK VINA RESULT:      -7.1      2.212      2.968
REMARK  9 active torsions:
REMARK  status: ('A' for Active; 'I' for Inactive)
REMARK    1  A    between atoms: C_1  and  C_31 
REMARK    2  A    between atoms: C_1  and  C_4 
REMARK    3  A    between atoms: C_1  and  N_25 
REMARK    4  A    between atoms: C_4  and  C_14 
REMARK    5  A    between atoms: C_6  and  C_11 
REMARK    6  A    between atoms: C_11  and  C_19 
REMARK    7  A    between atoms: C_11  and  N_20 
REMARK       I    between atoms: N_18  and  C_23 
REMARK    8  A    between atoms: C_19  and  C_29 
REMARK       I    between atoms: N_20  and  C_31 
REMARK    9  A    between atoms: C_23  and  C_29 
ROOT
HETATM    1  C           1     -21.262  -6.262  -2.803  0.00  0.00     0.278 C 
ENDROOT
BRANCH   1   2
HETATM    2  C           1     -21.491  -6.357  -4.291  0.00  0.00     0.249 C 
HETATM    3  O           1     -22.037  -7.329  -4.758  0.00  0.00    -0.271 OA
HETATM    4  N           1     -21.081  -5.342  -5.114  0.00  0.00    -0.345 N 
HETATM    5  H           1     -20.626  -4.528  -4.724  0.00  0.00     0.163 HD
BRANCH   4   6
HETATM    6  C           1     -21.303  -5.434  -6.544  0.00  0.00     0.186 C 
BRANCH   6   7
HETATM    7  C           1     -20.001  -5.761  -7.233  0.00  0.00     0.196 C 
HETATM    8  O           1     -19.451  -6.867  -7.039  0.00  0.00    -0.646 OA
HETATM    9  O           1     -19.472  -4.926  -7.998  0.00  0.00    -0.646 OA
ENDBRANCH   6   7
BRANCH   6  10
HETATM   10  C           1     -21.832  -4.104  -7.064  0.00  0.00     0.045 C 
BRANCH  10  11
HETATM   11  C           1     -23.143  -4.332  -7.803  0.00  0.00     0.105 C 
BRANCH  11  12
HETATM   12  C           1     -22.886  -4.351  -9.290  0.00  0.00     0.215 C 
HETATM   13  N           1     -21.714  -3.850  -9.788  0.00  0.00    -0.370 N 
HETATM   14  H           1     -21.019  -3.468  -9.160  0.00  0.00     0.159 HD
HETATM   15  H           1     -21.541  -3.862 -10.786  0.00  0.00     0.159 HD
HETATM   16  O           1     -23.715  -4.807 -10.041  0.00  0.00    -0.274 OA
ENDBRANCH  11  12
ENDBRANCH  10  11
ENDBRANCH   6  10
ENDBRANCH   4   6
ENDBRANCH   1   2
BRANCH   1  17
HETATM   17  C           1     -20.688  -7.577  -2.292  0.00  0.00     0.083 C 
BRANCH  17  18
HETATM   18  C           1     -21.617  -8.167  -1.278  0.00  0.00    -0.028 A 
HETATM   19  C           1     -22.332  -9.390  -1.407  0.00  0.00    -0.002 A 
HETATM   20  C           1     -23.075  -9.557  -0.237  0.00  0.00     0.042 A 
HETATM   21  C           1     -22.418 -10.373  -2.410  0.00  0.00     0.014 A 
HETATM   22  N           1     -22.813  -8.470   0.567  0.00  0.00    -0.365 N 
HETATM   23  C           1     -23.903 -10.664  -0.019  0.00  0.00     0.030 A 
HETATM   24  C           1     -21.933  -7.623  -0.053  0.00  0.00     0.096 A 
HETATM   25  H           1     -23.229  -8.312   1.518  0.00  0.00     0.165 HD
HETATM   26  C           1     -23.973 -11.628  -1.031  0.00  0.00     0.002 A 
HETATM   27  C           1     -23.243 -11.487  -2.209  0.00  0.00     0.001 A 
ENDBRANCH  17  18
ENDBRANCH   1  17
BRANCH   1  28
HETATM   28  N           1     -22.565  -5.984  -2.114  0.00  0.00    -0.066 N 
HETATM   29  H           1     -23.122  -6.866  -2.051  0.00  0.00     0.275 HD
HETATM   30  H           1     -22.379  -5.620  -1.152  0.00  0.00     0.275 HD
HETATM   31  H           1     -23.101  -5.271  -2.658  0.00  0.00     0.275 HD
ENDBRANCH   1  28
TORSDOF 9
ENDMDL
MODEL 7
REMARK VINA RESULT:      -7.0      3.005      8.601
REMARK  9 active torsions:
REMARK  status: ('A' for Active; 'I' for Inactive)
REMARK    1  A    between atoms: C_1  and  C_31 
REMARK    2  A    between atoms: C_1  and  C_4 
REMARK    3  A    between atoms: C_1  and  N_25 
REMARK    4  A    between atoms: C_4  and  C_14 
REMARK    5  A    between atoms: C_6  and  C_11 
REMARK    6  A    between atoms: C_11  and  C_19 
REMARK    7  A    between atoms: C_11  and  N_20 
REMARK       I    between atoms: N_18  and  C_23 
REMARK    8  A    between atoms: C_19  and  C_29 
REMARK       I    between atoms: N_20  and  C_31 
REMARK    9  A    between atoms: C_23  and  C_29 
ROOT
HETATM    1  C           1     -20.380  -6.265  -6.013  0.00  0.00     0.278 C 
ENDROOT
BRANCH   1   2
HETATM    2  C           1     -20.515  -6.511  -4.531  0.00  0.00     0.249 C 
HETATM    3  O           1     -20.831  -5.608  -3.794  0.00  0.00    -0.271 OA
HETATM    4  N           1     -20.278  -7.760  -4.020  0.00  0.00    -0.345 N 
HETATM    5  H           1     -20.014  -8.517  -4.637  0.00  0.00     0.163 HD
BRANCH   4   6
HETATM    6  C           1     -20.408  -7.996  -2.596  0.00  0.00     0.186 C 
BRANCH   6   7
HETATM    7  C           1     -19.701  -9.279  -2.234  0.00  0.00     0.196 C 
HETATM    8  O           1     -18.493  -9.430  -2.520  0.00  0.00    -0.646 OA
HETATM    9  O           1     -20.323 -10.191  -1.647  0.00  0.00    -0.646 OA
ENDBRANCH   6   7
BRANCH   6  10
HETATM   10  C           1     -21.882  -8.109  -2.230  0.00  0.00     0.045 C 
BRANCH  10  11
HETATM   11  C           1     -22.209  -7.116  -1.123  0.00  0.00     0.105 C 
BRANCH  11  12
HETATM   12  C           1     -22.393  -7.856   0.179  0.00  0.00     0.215 C 
HETATM   13  N           1     -23.653  -8.133   0.636  0.00  0.00    -0.370 N 
HETATM   14  H           1     -24.461  -7.842   0.102  0.00  0.00     0.159 HD
HETATM   15  H           1     -23.777  -8.629   1.510  0.00  0.00     0.159 HD
HETATM   16  O           1     -21.429  -8.204   0.818  0.00  0.00    -0.274 OA
ENDBRANCH  11  12
ENDBRANCH  10  11
ENDBRANCH   6  10
ENDBRANCH   4   6
ENDBRANCH   1   2
BRANCH   1  17
HETATM   17  C           1     -20.512  -4.774  -6.295  0.00  0.00     0.083 C 
BRANCH  17  18
HETATM   18  C           1     -21.593  -4.549  -7.305  0.00  0.00    -0.028 A 
HETATM   19  C           1     -21.414  -4.422  -8.711  0.00  0.00    -0.002 A 
HETATM   20  C           1     -22.677  -4.224  -9.269  0.00  0.00     0.042 A 
HETATM   21  C           1     -20.295  -4.457  -9.563  0.00  0.00     0.014 A 
HETATM   22  N           1     -23.584  -4.233  -8.233  0.00  0.00    -0.365 N 
HETATM   23  C           1     -22.878  -4.059 -10.645  0.00  0.00     0.030 A 
HETATM   24  C           1     -22.938  -4.428  -7.040  0.00  0.00     0.096 A 
HETATM   25  H           1     -24.621  -4.106  -8.340  0.00  0.00     0.165 HD
HETATM   26  C           1     -21.751  -4.097 -11.471  0.00  0.00     0.002 A 
HETATM   27  C           1     -20.477  -4.293 -10.941  0.00  0.00     0.001 A 
ENDBRANCH  17  18
ENDBRANCH   1  17
BRANCH   1  28
HETATM   28  N           1     -21.460  -7.008  -6.743  0.00  0.00    -0.066 N 
HETATM   29  H           1     -21.536  -7.977  -6.360  0.00  0.00     0.275 HD
HETATM   30  H           1     -22.370  -6.511  -6.618  0.00  0.00     0.275 HD
HETATM   31  H           1     -21.224  -7.053  -7.760  0.00  0.00     0.275 HD
ENDBRANCH   1  28
TORSDOF 9
ENDMDL
MODEL 8
REMARK VINA RESULT:      -7.0      1.860      2.355
REMARK  9 active torsions:
REMARK  status: ('A' for Active; 'I' for Inactive)
REMARK    1  A    between atoms: C_1  and  C_31 
REMARK    2  A    between atoms: C_1  and  C_4 
REMARK    3  A    between atoms: C_1  and  N_25 
REMARK    4  A    between atoms: C_4  and  C_14 
REMARK    5  A    between atoms: C_6  and  C_11 
REMARK    6  A    between atoms: C_11  and  C_19 
REMARK    7  A    between atoms: C_11  and  N_20 
REMARK       I    between atoms: N_18  and  C_23 
REMARK    8  A    between atoms: C_19  and  C_29 
REMARK       I    between atoms: N_20  and  C_31 
REMARK    9  A    between atoms: C_23  and  C_29 
ROOT
HETATM    1  C           1     -21.093  -7.746  -5.011  0.00  0.00     0.278 C 
ENDROOT
BRANCH   1   2
HETATM    2  C           1     -20.783  -6.451  -5.719  0.00  0.00     0.249 C 
HETATM    3  O           1     -20.329  -5.517  -5.102  0.00  0.00    -0.271 OA
HETATM    4  N           1     -21.015  -6.333  -7.064  0.00  0.00    -0.345 N 
HETATM    5  H           1     -21.394  -7.115  -7.582  0.00  0.00     0.163 HD
BRANCH   4   6
HETATM    6  C           1     -20.716  -5.089  -7.745  0.00  0.00     0.186 C 
BRANCH   6   7
HETATM    7  C           1     -21.792  -4.077  -7.435  0.00  0.00     0.196 C 
HETATM    8  O           1     -22.992  -4.356  -7.645  0.00  0.00    -0.646 OA
HETATM    9  O           1     -21.482  -2.959  -6.968  0.00  0.00    -0.646 OA
ENDBRANCH   6   7
BRANCH   6  10
HETATM   10  C           1     -20.664  -5.330  -9.248  0.00  0.00     0.045 C 
BRANCH  10  11
HETATM   11  C           1     -20.458  -4.005  -9.968  0.00  0.00     0.105 C 
BRANCH  11  12
HETATM   12  C           1     -21.616  -3.753 -10.901  0.00  0.00     0.215 C 
HETATM   13  N           1     -22.721  -4.560 -10.854  0.00  0.00    -0.370 N 
HETATM   14  H           1     -22.761  -5.326 -10.194  0.00  0.00     0.159 HD
HETATM   15  H           1     -23.498  -4.392 -11.481  0.00  0.00     0.159 HD
HETATM   16  O           1     -21.570  -2.839 -11.690  0.00  0.00    -0.274 OA
ENDBRANCH  11  12
ENDBRANCH  10  11
ENDBRANCH   6  10
ENDBRANCH   4   6
ENDBRANCH   1   2
BRANCH   1  17
HETATM   17  C           1     -19.947  -8.100  -4.073  0.00  0.00     0.083 C 
BRANCH  17  18
HETATM   18  C           1     -20.465  -8.932  -2.942  0.00  0.00    -0.028 A 
HETATM   19  C           1     -21.269  -8.473  -1.862  0.00  0.00    -0.002 A 
HETATM   20  C           1     -21.522  -9.572  -1.041  0.00  0.00     0.042 A 
HETATM   21  C           1     -21.807  -7.223  -1.504  0.00  0.00     0.014 A 
HETATM   22  N           1     -20.891 -10.656  -1.611  0.00  0.00    -0.365 N 
HETATM   23  C           1     -22.290  -9.485   0.126  0.00  0.00     0.030 A 
HETATM   24  C           1     -20.248 -10.279  -2.761  0.00  0.00     0.096 A 
HETATM   25  H           1     -20.899 -11.630  -1.219  0.00  0.00     0.165 HD
HETATM   26  C           1     -22.814  -8.232   0.461  0.00  0.00     0.002 A 
HETATM   27  C           1     -22.577  -7.116  -0.340  0.00  0.00     0.001 A 
ENDBRANCH  17  18
ENDBRANCH   1  17
BRANCH   1  28
HETATM   28  N           1     -21.266  -8.840  -6.023  0.00  0.00    -0.066 N 
HETATM   29  H           1     -21.438  -8.421  -6.964  0.00  0.00     0.275 HD
HETATM   30  H           1     -20.401  -9.425  -6.054  0.00  0.00     0.275 HD
HETATM   31  H           1     -22.081  -9.437  -5.754  0.00  0.00     0.275 HD
ENDBRANCH   1  28
TORSDOF 9
ENDMDL
MODEL 9
REMARK VINA RESULT:      -6.9      2.819      8.376
REMARK  9 active torsions:
REMARK  status: ('A' for Active; 'I' for Inactive)
REMARK    1  A    between atoms: C_1  and  C_31 
REMARK    2  A    between atoms: C_1  and  C_4 
REMARK    3  A    between atoms: C_1  and  N_25 
REMARK    4  A    between atoms: C_4  and  C_14 
REMARK    5  A    between atoms: C_6  and  C_11 
REMARK    6  A    between atoms: C_11  and  C_19 
REMARK    7  A    between atoms: C_11  and  N_20 
REMARK       I    between atoms: N_18  and  C_23 
REMARK    8  A    between atoms: C_19  and  C_29 
REMARK       I    between atoms: N_20  and  C_31 
REMARK    9  A    between atoms: C_23  and  C_29 
ROOT
HETATM    1  C           1     -19.959  -5.895  -6.082  0.00  0.00     0.278 C 
ENDROOT
BRANCH   1   2
HETATM    2  C           1     -20.865  -6.752  -5.233  0.00  0.00     0.249 C 
HETATM    3  O           1     -21.658  -7.498  -5.758  0.00  0.00    -0.271 OA
HETATM    4  N           1     -20.790  -6.684  -3.867  0.00  0.00    -0.345 N 
HETATM    5  H           1     -20.126  -6.061  -3.427  0.00  0.00     0.163 HD
BRANCH   4   6
HETATM    6  C           1     -21.661  -7.508  -3.052  0.00  0.00     0.186 C 
BRANCH   6   7
HETATM    7  C           1     -22.030  -6.758  -1.796  0.00  0.00     0.196 C 
HETATM    8  O           1     -22.121  -7.366  -0.708  0.00  0.00    -0.646 OA
HETATM    9  O           1     -22.246  -5.527  -1.845  0.00  0.00    -0.646 OA
ENDBRANCH   6   7
BRANCH   6  10
HETATM   10  C           1     -20.940  -8.797  -2.679  0.00  0.00     0.045 C 
BRANCH  10  11
HETATM   11  C           1     -21.770  -9.992  -3.127  0.00  0.00     0.105 C 
BRANCH  11  12
HETATM   12  C           1     -22.180 -10.802  -1.922  0.00  0.00     0.215 C 
HETATM   13  N           1     -22.958 -10.235  -0.949  0.00  0.00    -0.370 N 
HETATM   14  H           1     -23.258  -9.272  -1.037  0.00  0.00     0.159 HD
HETATM   15  H           1     -23.233 -10.778  -0.140  0.00  0.00     0.159 HD
HETATM   16  O           1     -21.822 -11.951  -1.816  0.00  0.00    -0.274 OA
ENDBRANCH  11  12
ENDBRANCH  10  11
ENDBRANCH   6  10
ENDBRANCH   4   6
ENDBRANCH   1   2
BRANCH   1  17
HETATM   17  C           1     -20.492  -4.469  -6.114  0.00  0.00     0.083 C 
BRANCH  17  18
HETATM   18  C           1     -21.571  -4.362  -7.145  0.00  0.00    -0.028 A 
HETATM   19  C           1     -21.382  -4.137  -8.538  0.00  0.00    -0.002 A 
HETATM   20  C           1     -22.647  -4.107  -9.125  0.00  0.00     0.042 A 
HETATM   21  C           1     -20.251  -3.958  -9.356  0.00  0.00     0.014 A 
HETATM   22  N           1     -23.565  -4.307  -8.118  0.00  0.00    -0.365 N 
HETATM   23  C           1     -22.840  -3.905 -10.497  0.00  0.00     0.030 A 
HETATM   24  C           1     -22.925  -4.461  -6.917  0.00  0.00     0.096 A 
HETATM   25  H           1     -24.607  -4.335  -8.251  0.00  0.00     0.165 HD
HETATM   26  C           1     -21.701  -3.728 -11.289  0.00  0.00     0.002 A 
HETATM   27  C           1     -20.425  -3.754 -10.730  0.00  0.00     0.001 A 
ENDBRANCH  17  18
ENDBRANCH   1  17
BRANCH   1  28
HETATM   28  N           1     -19.915  -6.444  -7.477  0.00  0.00    -0.066 N 
HETATM   29  H           1     -19.246  -7.245  -7.516  0.00  0.00     0.275 HD
HETATM   30  H           1     -20.868  -6.772  -7.752  0.00  0.00     0.275 HD
HETATM   31  H           1     -19.601  -5.695  -8.136  0.00  0.00     0.275 HD
ENDBRANCH   1  28
TORSDOF 9
ENDMDL
