MODEL 1
REMARK VINA RESULT:      -8.6      0.000      0.000
REMARK  8 active torsions:
REMARK  status: ('A' for Active; 'I' for Inactive)
REMARK    1  A    between atoms: N_4  and  C_10 
REMARK       I    between atoms: N_4  and  C_5 
REMARK    2  A    between atoms: C_5  and  C_22 
REMARK    3  A    between atoms: C_9  and  C_10 
REMARK    4  A    between atoms: C_9  and  C_17 
REMARK    5  A    between atoms: C_10  and  C_26 
REMARK    6  A    between atoms: C_13  and  C_22 
REMARK    7  A    between atoms: C_13  and  C_16 
REMARK    8  A    between atoms: N_21  and  C_22 
ROOT
HETATM    1  N           1     -22.203  -5.624  -5.603  0.00  0.00    -0.344 N 
HETATM    2  C           1     -21.542  -6.243  -4.576  0.00  0.00     0.249 C 
HETATM    3  O           1     -20.854  -5.596  -3.824  0.00  0.00    -0.271 OA
HETATM    4  H           1     -23.139  -5.266  -5.460  0.00  0.00     0.163 HD
ENDROOT
BRANCH   2   5
HETATM    5  C           1     -21.675  -7.734  -4.384  0.00  0.00     0.278 C 
BRANCH   5   6
HETATM    6  C           1     -20.771  -8.182  -3.243  0.00  0.00     0.081 C 
BRANCH   6   7
HETATM    7  C           1     -21.602  -8.493  -2.038  0.00  0.00    -0.056 A 
HETATM    8  C           1     -22.094  -9.785  -1.845  0.00  0.00     0.007 A 
HETATM    9  C           1     -22.869 -10.074  -0.723  0.00  0.00     0.001 A 
HETATM   10  C           1     -23.151  -9.074   0.208  0.00  0.00     0.000 A 
HETATM   11  C           1     -22.660  -7.784   0.015  0.00  0.00     0.001 A 
HETATM   12  C           1     -21.884  -7.493  -1.109  0.00  0.00     0.007 A 
ENDBRANCH   6   7
ENDBRANCH   5   6
BRANCH   5  13
HETATM   13  N           1     -21.274  -8.438  -5.646  0.00  0.00    -0.066 N 
HETATM   14  H           1     -20.332  -8.871  -5.518  0.00  0.00     0.275 HD
HETATM   15  H           1     -21.238  -7.751  -6.432  0.00  0.00     0.275 HD
HETATM   16  H           1     -21.973  -9.183  -5.866  0.00  0.00     0.275 HD
ENDBRANCH   5  13
ENDBRANCH   2   5
BRANCH   1  17
HETATM   17  C           1     -21.561  -5.482  -6.896  0.00  0.00     0.189 C 
BRANCH  17  18
HETATM   18  C           1     -21.920  -4.129  -7.494  0.00  0.00     0.074 C 
BRANCH  18  19
HETATM   19  C           1     -21.880  -4.216  -8.989  0.00  0.00    -0.056 A 
HETATM   20  C           1     -23.042  -4.515  -9.700  0.00  0.00     0.007 A 
HETATM   21  C           1     -23.005  -4.595 -11.092  0.00  0.00     0.001 A 
HETATM   22  C           1     -21.807  -4.378 -11.772  0.00  0.00     0.000 A 
HETATM   23  C           1     -20.646  -4.079 -11.060  0.00  0.00     0.001 A 
HETATM   24  C           1     -20.682  -3.998  -9.668  0.00  0.00     0.007 A 
ENDBRANCH  18  19
ENDBRANCH  17  18
BRANCH  17  25
HETATM   25  C           1     -20.065  -5.578  -6.727  0.00  0.00     0.197 C 
HETATM   26  O           1     -19.480  -6.663  -6.938  0.00  0.00    -0.646 OA
HETATM   27  O           1     -19.410  -4.573  -6.377  0.00  0.00    -0.646 OA
ENDBRANCH  17  25
ENDBRANCH   1  17
TORSDOF 8
ENDMDL
MODEL 2
REMARK VINA RESULT:      -8.4      1.486      7.951
REMARK  8 active torsions:
REMARK  status: ('A' for Active; 'I' for Inactive)
REMARK    1  A    between atoms: N_4  and  C_10 
REMARK       I    between atoms: N_4  and  C_5 
REMARK    2  A    between atoms: C_5  and  C_22 
REMARK    3  A    between atoms: C_9  and  C_10 
REMARK    4  A    between atoms: C_9  and  C_17 
REMARK    5  A    between atoms: C_10  and  C_26 
REMARK    6  A    between atoms: C_13  and  C_22 
REMARK    7  A    between atoms: C_13  and  C_16 
REMARK    8  A    between atoms: N_21  and  C_22 
ROOT
HETATM    1  N           1     -20.613  -8.224  -5.658  0.00  0.00    -0.344 N 
HETATM    2  C           1     -20.387  -7.008  -6.244  0.00  0.00     0.249 C 
HETATM    3  O           1     -19.295  -6.745  -6.687  0.00  0.00    -0.271 OA
HETATM    4  H           1     -20.931  -9.005  -6.219  0.00  0.00     0.163 HD
ENDROOT
BRANCH   2   5
HETATM    5  C           1     -21.504  -5.997  -6.338  0.00  0.00     0.278 C 
BRANCH   5   6
HETATM    6  C           1     -20.931  -4.642  -6.732  0.00  0.00     0.081 C 
BRANCH   6   7
HETATM    7  C           1     -21.250  -4.363  -8.168  0.00  0.00    -0.056 A 
HETATM    8  C           1     -20.250  -4.463  -9.137  0.00  0.00     0.007 A 
HETATM    9  C           1     -20.548  -4.202 -10.474  0.00  0.00     0.001 A 
HETATM   10  C           1     -21.844  -3.842 -10.843  0.00  0.00     0.000 A 
HETATM   11  C           1     -22.842  -3.742  -9.876  0.00  0.00     0.001 A 
HETATM   12  C           1     -22.545  -4.003  -8.537  0.00  0.00     0.007 A 
ENDBRANCH   6   7
ENDBRANCH   5   6
BRANCH   5  13
HETATM   13  N           1     -22.187  -5.882  -5.008  0.00  0.00    -0.066 N 
HETATM   14  H           1     -23.056  -5.311  -5.111  0.00  0.00     0.275 HD
HETATM   15  H           1     -21.545  -5.421  -4.325  0.00  0.00     0.275 HD
HETATM   16  H           1     -22.436  -6.836  -4.661  0.00  0.00     0.275 HD
ENDBRANCH   5  13
ENDBRANCH   2   5
BRANCH   1  17
HETATM   17  C           1     -20.397  -8.394  -4.234  0.00  0.00     0.189 C 
BRANCH  17  18
HETATM   18  C           1     -21.489  -9.284  -3.658  0.00  0.00     0.074 C 
BRANCH  18  19
HETATM   19  C           1     -21.859  -8.800  -2.290  0.00  0.00    -0.056 A 
HETATM   20  C           1     -22.222  -9.714  -1.302  0.00  0.00     0.007 A 
HETATM   21  C           1     -22.566  -9.263  -0.028  0.00  0.00     0.001 A 
HETATM   22  C           1     -22.547  -7.898   0.258  0.00  0.00     0.000 A 
HETATM   23  C           1     -22.183  -6.984  -0.731  0.00  0.00     0.001 A 
HETATM   24  C           1     -21.839  -7.435  -2.005  0.00  0.00     0.007 A 
ENDBRANCH  18  19
ENDBRANCH  17  18
BRANCH  17  25
HETATM   25  C           1     -19.051  -9.034  -4.003  0.00  0.00     0.197 C 
HETATM   26  O           1     -18.421  -9.531  -4.963  0.00  0.00    -0.646 OA
HETATM   27  O           1     -18.564  -9.069  -2.853  0.00  0.00    -0.646 OA
ENDBRANCH  17  25
ENDBRANCH   1  17
TORSDOF 8
ENDMDL
MODEL 3
REMARK VINA RESULT:      -8.3      3.990      6.654
REMARK  8 active torsions:
REMARK  status: ('A' for Active; 'I' for Inactive)
REMARK    1  A    between atoms: N_4  and  C_10 
REMARK       I    between atoms: N_4  and  C_5 
REMARK    2  A    between atoms: C_5  and  C_22 
REMARK    3  A    between atoms: C_9  and  C_10 
REMARK    4  A    between atoms: C_9  and  C_17 
REMARK    5  A    between atoms: C_10  and  C_26 
REMARK    6  A    between atoms: C_13  and  C_22 
REMARK    7  A    between atoms: C_13  and  C_16 
REMARK    8  A    between atoms: N_21  and  C_22 
ROOT
HETATM    1  N           1     -20.260 -10.037  -4.509  0.00  0.00    -0.344 N 
HETATM    2  C           1     -21.179 -10.810  -5.168  0.00  0.00     0.249 C 
HETATM    3  O           1     -21.340 -10.675  -6.356  0.00  0.00    -0.271 OA
HETATM    4  H           1     -19.304 -10.355  -4.419  0.00  0.00     0.163 HD
ENDROOT
BRANCH   2   5
HETATM    5  C           1     -21.989 -11.831  -4.407  0.00  0.00     0.278 C 
BRANCH   5   6
HETATM    6  C           1     -21.232 -12.249  -3.153  0.00  0.00     0.081 C 
BRANCH   6   7
HETATM    7  C           1     -22.109 -12.065  -1.954  0.00  0.00    -0.056 A 
HETATM    8  C           1     -23.235 -11.246  -2.033  0.00  0.00     0.007 A 
HETATM    9  C           1     -24.052 -11.075  -0.916  0.00  0.00     0.001 A 
HETATM   10  C           1     -23.743 -11.723   0.280  0.00  0.00     0.000 A 
HETATM   11  C           1     -22.617 -12.542   0.359  0.00  0.00     0.001 A 
HETATM   12  C           1     -21.800 -12.713  -0.759  0.00  0.00     0.007 A 
ENDBRANCH   6   7
ENDBRANCH   5   6
BRANCH   5  13
HETATM   13  N           1     -22.221 -13.032  -5.274  0.00  0.00    -0.066 N 
HETATM   14  H           1     -22.692 -13.779  -4.716  0.00  0.00     0.275 HD
HETATM   15  H           1     -21.305 -13.387  -5.630  0.00  0.00     0.275 HD
HETATM   16  H           1     -22.828 -12.766  -6.082  0.00  0.00     0.275 HD
ENDBRANCH   5  13
ENDBRANCH   2   5
BRANCH   1  17
HETATM   17  C           1     -20.659  -8.764  -3.942  0.00  0.00     0.189 C 
BRANCH  17  18
HETATM   18  C           1     -19.840  -8.489  -2.688  0.00  0.00     0.074 C 
BRANCH  18  19
HETATM   19  C           1     -20.758  -8.343  -1.514  0.00  0.00    -0.056 A 
HETATM   20  C           1     -21.793  -7.410  -1.550  0.00  0.00     0.007 A 
HETATM   21  C           1     -22.649  -7.275  -0.456  0.00  0.00     0.001 A 
HETATM   22  C           1     -22.468  -8.073   0.673  0.00  0.00     0.000 A 
HETATM   23  C           1     -21.433  -9.007   0.709  0.00  0.00     0.001 A 
HETATM   24  C           1     -20.578  -9.142  -0.385  0.00  0.00     0.007 A 
ENDBRANCH  18  19
ENDBRANCH  17  18
BRANCH  17  25
HETATM   25  C           1     -20.419  -7.667  -4.950  0.00  0.00     0.197 C 
HETATM   26  O           1     -21.063  -6.597  -4.876  0.00  0.00    -0.646 OA
HETATM   27  O           1     -19.578  -7.828  -5.861  0.00  0.00    -0.646 OA
ENDBRANCH  17  25
ENDBRANCH   1  17
TORSDOF 8
ENDMDL
MODEL 4
REMARK VINA RESULT:      -8.3      5.652      7.699
REMARK  8 active torsions:
REMARK  status: ('A' for Active; 'I' for Inactive)
REMARK    1  A    between atoms: N_4  and  C_10 
REMARK       I    between atoms: N_4  and  C_5 
REMARK    2  A    between atoms: C_5  and  C_22 
REMARK    3  A    between atoms: C_9  and  C_10 
REMARK    4  A    between atoms: C_9  and  C_17 
REMARK    5  A    between atoms: C_10  and  C_26 
REMARK    6  A    between atoms: C_13  and  C_22 
REMARK    7  A    between atoms: C_13  and  C_16 
REMARK    8  A    between atoms: N_21  and  C_22 
ROOT
HETATM    1  N           1     -20.675 -10.564  -4.664  0.00  0.00    -0.344 N 
HETATM    2  C           1     -19.432 -10.521  -4.091  0.00  0.00     0.249 C 
HETATM    3  O           1     -18.514 -11.121  -4.596  0.00  0.00    -0.271 OA
HETATM    4  H           1     -20.937  -9.875  -5.357  0.00  0.00     0.163 HD
ENDROOT
BRANCH   2   5
HETATM    5  C           1     -19.211  -9.722  -2.830  0.00  0.00     0.278 C 
BRANCH   5   6
HETATM    6  C           1     -20.055  -8.456  -2.876  0.00  0.00     0.081 C 
BRANCH   6   7
HETATM    7  C           1     -20.849  -8.337  -1.612  0.00  0.00    -0.056 A 
HETATM    8  C           1     -20.541  -9.146  -0.517  0.00  0.00     0.007 A 
HETATM    9  C           1     -21.281  -9.036   0.660  0.00  0.00     0.001 A 
HETATM   10  C           1     -22.327  -8.117   0.743  0.00  0.00     0.000 A 
HETATM   11  C           1     -22.635  -7.310  -0.351  0.00  0.00     0.001 A 
HETATM   12  C           1     -21.895  -7.420  -1.529  0.00  0.00     0.007 A 
ENDBRANCH   6   7
ENDBRANCH   5   6
BRANCH   5  13
HETATM   13  N           1     -17.762  -9.353  -2.721  0.00  0.00    -0.066 N 
HETATM   14  H           1     -17.609  -8.798  -1.848  0.00  0.00     0.275 HD
HETATM   15  H           1     -17.484  -8.781  -3.550  0.00  0.00     0.275 HD
HETATM   16  H           1     -17.183 -10.222  -2.687  0.00  0.00     0.275 HD
ENDBRANCH   5  13
ENDBRANCH   2   5
BRANCH   1  17
HETATM   17  C           1     -21.616 -11.598  -4.277  0.00  0.00     0.189 C 
BRANCH  17  18
HETATM   18  C           1     -22.785 -10.967  -3.534  0.00  0.00     0.074 C 
BRANCH  18  19
HETATM   19  C           1     -22.812 -11.471  -2.124  0.00  0.00    -0.056 A 
HETATM   20  C           1     -21.804 -12.321  -1.669  0.00  0.00     0.007 A 
HETATM   21  C           1     -21.829 -12.789  -0.355  0.00  0.00     0.001 A 
HETATM   22  C           1     -22.860 -12.407   0.503  0.00  0.00     0.000 A 
HETATM   23  C           1     -23.866 -11.555   0.047  0.00  0.00     0.001 A 
HETATM   24  C           1     -23.843 -11.087  -1.266  0.00  0.00     0.007 A 
ENDBRANCH  18  19
ENDBRANCH  17  18
BRANCH  17  25
HETATM   25  C           1     -22.123 -12.302  -5.511  0.00  0.00     0.197 C 
HETATM   26  O           1     -21.643 -12.024  -6.632  0.00  0.00    -0.646 OA
HETATM   27  O           1     -23.024 -13.163  -5.414  0.00  0.00    -0.646 OA
ENDBRANCH  17  25
ENDBRANCH   1  17
TORSDOF 8
ENDMDL
MODEL 5
REMARK VINA RESULT:      -8.2      2.443      8.781
REMARK  8 active torsions:
REMARK  status: ('A' for Active; 'I' for Inactive)
REMARK    1  A    between atoms: N_4  and  C_10 
REMARK       I    between atoms: N_4  and  C_5 
REMARK    2  A    between atoms: C_5  and  C_22 
REMARK    3  A    between atoms: C_9  and  C_10 
REMARK    4  A    between atoms: C_9  and  C_17 
REMARK    5  A    between atoms: C_10  and  C_26 
REMARK    6  A    between atoms: C_13  and  C_22 
REMARK    7  A    between atoms: C_13  and  C_16 
REMARK    8  A    between atoms: N_21  and  C_22 
ROOT
HETATM    1  N           1     -20.997  -7.537  -1.661  0.00  0.00    -0.344 N 
HETATM    2  C           1     -21.529  -6.800  -2.685  0.00  0.00     0.249 C 
HETATM    3  O           1     -22.105  -5.766  -2.447  0.00  0.00    -0.271 OA
HETATM    4  H           1     -20.046  -7.372  -1.358  0.00  0.00     0.163 HD
ENDROOT
BRANCH   2   5
HETATM    5  C           1     -21.393  -7.279  -4.109  0.00  0.00     0.278 C 
BRANCH   5   6
HETATM    6  C           1     -22.379  -6.529  -4.994  0.00  0.00     0.081 C 
BRANCH   6   7
HETATM    7  C           1     -21.630  -5.642  -5.939  0.00  0.00    -0.056 A 
HETATM    8  C           1     -22.327  -4.791  -6.798  0.00  0.00     0.007 A 
HETATM    9  C           1     -21.629  -3.965  -7.678  0.00  0.00     0.001 A 
HETATM   10  C           1     -20.234  -3.989  -7.700  0.00  0.00     0.000 A 
HETATM   11  C           1     -19.538  -4.839  -6.842  0.00  0.00     0.001 A 
HETATM   12  C           1     -20.236  -5.666  -5.961  0.00  0.00     0.007 A 
ENDBRANCH   6   7
ENDBRANCH   5   6
BRANCH   5  13
HETATM   13  N           1     -21.683  -8.749  -4.172  0.00  0.00    -0.066 N 
HETATM   14  H           1     -22.639  -8.931  -3.789  0.00  0.00     0.275 HD
HETATM   15  H           1     -20.976  -9.269  -3.605  0.00  0.00     0.275 HD
HETATM   16  H           1     -21.638  -9.070  -5.165  0.00  0.00     0.275 HD
ENDBRANCH   5  13
ENDBRANCH   2   5
BRANCH   1  17
HETATM   17  C           1     -21.798  -8.557  -1.012  0.00  0.00     0.189 C 
BRANCH  17  18
HETATM   18  C           1     -20.929  -9.770  -0.711  0.00  0.00     0.074 C 
BRANCH  18  19
HETATM   19  C           1     -21.796 -10.911  -0.275  0.00  0.00    -0.056 A 
HETATM   20  C           1     -21.337 -11.805   0.691  0.00  0.00     0.007 A 
HETATM   21  C           1     -22.145 -12.867   1.097  0.00  0.00     0.001 A 
HETATM   22  C           1     -23.411 -13.035   0.537  0.00  0.00     0.000 A 
HETATM   23  C           1     -23.870 -12.139  -0.429  0.00  0.00     0.001 A 
HETATM   24  C           1     -23.062 -11.077  -0.835  0.00  0.00     0.007 A 
ENDBRANCH  18  19
ENDBRANCH  17  18
BRANCH  17  25
HETATM   25  C           1     -22.361  -8.009   0.277  0.00  0.00     0.197 C 
HETATM   26  O           1     -21.656  -7.993   1.310  0.00  0.00    -0.646 OA
HETATM   27  O           1     -23.531  -7.571   0.312  0.00  0.00    -0.646 OA
ENDBRANCH  17  25
ENDBRANCH   1  17
TORSDOF 8
ENDMDL
MODEL 6
REMARK VINA RESULT:      -8.1     13.817     15.976
REMARK  8 active torsions:
REMARK  status: ('A' for Active; 'I' for Inactive)
REMARK    1  A    between atoms: N_4  and  C_10 
REMARK       I    between atoms: N_4  and  C_5 
REMARK    2  A    between atoms: C_5  and  C_22 
REMARK    3  A    between atoms: C_9  and  C_10 
REMARK    4  A    between atoms: C_9  and  C_17 
REMARK    5  A    between atoms: C_10  and  C_26 
REMARK    6  A    between atoms: C_13  and  C_22 
REMARK    7  A    between atoms: C_13  and  C_16 
REMARK    8  A    between atoms: N_21  and  C_22 
ROOT
HETATM    1  N           1     -35.408  -1.429 -10.260  0.00  0.00    -0.344 N 
HETATM    2  C           1     -34.274  -2.007 -10.765  0.00  0.00     0.249 C 
HETATM    3  O           1     -33.189  -1.600 -10.430  0.00  0.00    -0.271 OA
HETATM    4  H           1     -35.819  -1.783  -9.405  0.00  0.00     0.163 HD
ENDROOT
BRANCH   2   5
HETATM    5  C           1     -34.383  -3.154 -11.740  0.00  0.00     0.278 C 
BRANCH   5   6
HETATM    6  C           1     -33.209  -4.103 -11.541  0.00  0.00     0.081 C 
BRANCH   6   7
HETATM    7  C           1     -33.698  -5.386 -10.942  0.00  0.00    -0.056 A 
HETATM    8  C           1     -32.908  -6.534 -11.014  0.00  0.00     0.007 A 
HETATM    9  C           1     -33.364  -7.728 -10.457  0.00  0.00     0.001 A 
HETATM   10  C           1     -34.608  -7.775  -9.827  0.00  0.00     0.000 A 
HETATM   11  C           1     -35.396  -6.628  -9.756  0.00  0.00     0.001 A 
HETATM   12  C           1     -34.941  -5.432 -10.314  0.00  0.00     0.007 A 
ENDBRANCH   6   7
ENDBRANCH   5   6
BRANCH   5  13
HETATM   13  N           1     -34.364  -2.622 -13.142  0.00  0.00    -0.066 N 
HETATM   14  H           1     -34.487  -3.411 -13.815  0.00  0.00     0.275 HD
HETATM   15  H           1     -33.450  -2.149 -13.322  0.00  0.00     0.275 HD
HETATM   16  H           1     -35.141  -1.935 -13.264  0.00  0.00     0.275 HD
ENDBRANCH   5  13
ENDBRANCH   2   5
BRANCH   1  17
HETATM   17  C           1     -36.019  -0.309 -10.949  0.00  0.00     0.189 C 
BRANCH  17  18
HETATM   18  C           1     -36.952  -0.829 -12.034  0.00  0.00     0.074 C 
BRANCH  18  19
HETATM   19  C           1     -36.648  -0.139 -13.328  0.00  0.00    -0.056 A 
HETATM   20  C           1     -37.589  -0.142 -14.357  0.00  0.00     0.007 A 
HETATM   21  C           1     -37.306   0.501 -15.562  0.00  0.00     0.001 A 
HETATM   22  C           1     -36.083   1.147 -15.738  0.00  0.00     0.000 A 
HETATM   23  C           1     -35.143   1.151 -14.707  0.00  0.00     0.001 A 
HETATM   24  C           1     -35.425   0.508 -13.503  0.00  0.00     0.007 A 
ENDBRANCH  18  19
ENDBRANCH  17  18
BRANCH  17  25
HETATM   25  C           1     -36.805   0.519  -9.963  0.00  0.00     0.197 C 
HETATM   26  O           1     -36.296   0.834  -8.865  0.00  0.00    -0.646 OA
HETATM   27  O           1     -37.965   0.890 -10.243  0.00  0.00    -0.646 OA
ENDBRANCH  17  25
ENDBRANCH   1  17
TORSDOF 8
ENDMDL
MODEL 7
REMARK VINA RESULT:      -8.0      4.594      5.954
REMARK  8 active torsions:
REMARK  status: ('A' for Active; 'I' for Inactive)
REMARK    1  A    between atoms: N_4  and  C_10 
REMARK       I    between atoms: N_4  and  C_5 
REMARK    2  A    between atoms: C_5  and  C_22 
REMARK    3  A    between atoms: C_9  and  C_10 
REMARK    4  A    between atoms: C_9  and  C_17 
REMARK    5  A    between atoms: C_10  and  C_26 
REMARK    6  A    between atoms: C_13  and  C_22 
REMARK    7  A    between atoms: C_13  and  C_16 
REMARK    8  A    between atoms: N_21  and  C_22 
ROOT
HETATM    1  N           1     -19.259 -11.403  -2.485  0.00  0.00    -0.344 N 
HETATM    2  C           1     -20.426 -12.016  -2.855  0.00  0.00     0.249 C 
HETATM    3  O           1     -20.421 -12.840  -3.738  0.00  0.00    -0.271 OA
HETATM    4  H           1     -18.683 -11.808  -1.758  0.00  0.00     0.163 HD
ENDROOT
BRANCH   2   5
HETATM    5  C           1     -21.717 -11.662  -2.160  0.00  0.00     0.278 C 
BRANCH   5   6
HETATM    6  C           1     -21.523 -11.753  -0.652  0.00  0.00     0.081 C 
BRANCH   6   7
HETATM    7  C           1     -21.776 -10.413  -0.033  0.00  0.00    -0.056 A 
HETATM    8  C           1     -22.930  -9.701  -0.360  0.00  0.00     0.007 A 
HETATM    9  C           1     -23.165  -8.453   0.216  0.00  0.00     0.001 A 
HETATM   10  C           1     -22.247  -7.918   1.121  0.00  0.00     0.000 A 
HETATM   11  C           1     -21.094  -8.630   1.447  0.00  0.00     0.001 A 
HETATM   12  C           1     -20.858  -9.879   0.870  0.00  0.00     0.007 A 
ENDBRANCH   6   7
ENDBRANCH   5   6
BRANCH   5  13
HETATM   13  N           1     -22.792 -12.618  -2.584  0.00  0.00    -0.066 N 
HETATM   14  H           1     -23.387 -12.860  -1.760  0.00  0.00     0.275 HD
HETATM   15  H           1     -22.355 -13.487  -2.965  0.00  0.00     0.275 HD
HETATM   16  H           1     -23.382 -12.173  -3.322  0.00  0.00     0.275 HD
ENDBRANCH   5  13
ENDBRANCH   2   5
BRANCH   1  17
HETATM   17  C           1     -18.849 -10.173  -3.135  0.00  0.00     0.189 C 
BRANCH  17  18
HETATM   18  C           1     -19.249  -8.985  -2.271  0.00  0.00     0.074 C 
BRANCH  18  19
HETATM   19  C           1     -20.289  -8.176  -2.983  0.00  0.00    -0.056 A 
HETATM   20  C           1     -20.949  -7.146  -2.314  0.00  0.00     0.007 A 
HETATM   21  C           1     -21.917  -6.392  -2.977  0.00  0.00     0.001 A 
HETATM   22  C           1     -22.226  -6.669  -4.309  0.00  0.00     0.000 A 
HETATM   23  C           1     -21.564  -7.699  -4.978  0.00  0.00     0.001 A 
HETATM   24  C           1     -20.596  -8.453  -4.315  0.00  0.00     0.007 A 
ENDBRANCH  18  19
ENDBRANCH  17  18
BRANCH  17  25
HETATM   25  C           1     -17.352 -10.178  -3.322  0.00  0.00     0.197 C 
HETATM   26  O           1     -16.817 -11.033  -4.063  0.00  0.00    -0.646 OA
HETATM   27  O           1     -16.645  -9.330  -2.736  0.00  0.00    -0.646 OA
ENDBRANCH  17  25
ENDBRANCH   1  17
TORSDOF 8
ENDMDL
MODEL 8
REMARK VINA RESULT:      -7.9      4.929      8.718
REMARK  8 active torsions:
REMARK  status: ('A' for Active; 'I' for Inactive)
REMARK    1  A    between atoms: N_4  and  C_10 
REMARK       I    between atoms: N_4  and  C_5 
REMARK    2  A    between atoms: C_5  and  C_22 
REMARK    3  A    between atoms: C_9  and  C_10 
REMARK    4  A    between atoms: C_9  and  C_17 
REMARK    5  A    between atoms: C_10  and  C_26 
REMARK    6  A    between atoms: C_13  and  C_22 
REMARK    7  A    between atoms: C_13  and  C_16 
REMARK    8  A    between atoms: N_21  and  C_22 
ROOT
HETATM    1  N           1     -19.211 -12.156  -1.603  0.00  0.00    -0.344 N 
HETATM    2  C           1     -18.224 -11.236  -1.837  0.00  0.00     0.249 C 
HETATM    3  O           1     -17.078 -11.500  -1.565  0.00  0.00    -0.271 OA
HETATM    4  H           1     -19.461 -12.824  -2.321  0.00  0.00     0.163 HD
ENDROOT
BRANCH   2   5
HETATM    5  C           1     -18.570  -9.895  -2.435  0.00  0.00     0.278 C 
BRANCH   5   6
HETATM    6  C           1     -19.747 -10.051  -3.388  0.00  0.00     0.081 C 
BRANCH   6   7
HETATM    7  C           1     -20.518  -8.769  -3.446  0.00  0.00    -0.056 A 
HETATM    8  C           1     -21.191  -8.413  -4.615  0.00  0.00     0.007 A 
HETATM    9  C           1     -21.908  -7.219  -4.670  0.00  0.00     0.001 A 
HETATM   10  C           1     -21.953  -6.380  -3.556  0.00  0.00     0.000 A 
HETATM   11  C           1     -21.280  -6.736  -2.388  0.00  0.00     0.001 A 
HETATM   12  C           1     -20.562  -7.931  -2.333  0.00  0.00     0.007 A 
ENDBRANCH   6   7
ENDBRANCH   5   6
BRANCH   5  13
HETATM   13  N           1     -17.386  -9.363  -3.186  0.00  0.00    -0.066 N 
HETATM   14  H           1     -17.586  -8.388  -3.506  0.00  0.00     0.275 HD
HETATM   15  H           1     -17.197  -9.970  -4.015  0.00  0.00     0.275 HD
HETATM   16  H           1     -16.549  -9.359  -2.560  0.00  0.00     0.275 HD
ENDBRANCH   5  13
ENDBRANCH   2   5
BRANCH   1  17
HETATM   17  C           1     -19.900 -12.171  -0.326  0.00  0.00     0.189 C 
BRANCH  17  18
HETATM   18  C           1     -21.378 -11.878  -0.543  0.00  0.00     0.074 C 
BRANCH  18  19
HETATM   19  C           1     -21.705 -10.525   0.007  0.00  0.00    -0.056 A 
HETATM   20  C           1     -20.808  -9.884   0.860  0.00  0.00     0.007 A 
HETATM   21  C           1     -21.113  -8.622   1.372  0.00  0.00     0.001 A 
HETATM   22  C           1     -22.315  -8.002   1.031  0.00  0.00     0.000 A 
HETATM   23  C           1     -23.211  -8.644   0.176  0.00  0.00     0.001 A 
HETATM   24  C           1     -22.907  -9.905  -0.336  0.00  0.00     0.007 A 
ENDBRANCH  18  19
ENDBRANCH  17  18
BRANCH  17  25
HETATM   25  C           1     -19.743 -13.529   0.312  0.00  0.00     0.197 C 
HETATM   26  O           1     -18.607 -14.040   0.426  0.00  0.00    -0.646 OA
HETATM   27  O           1     -20.749 -14.144   0.727  0.00  0.00    -0.646 OA
ENDBRANCH  17  25
ENDBRANCH   1  17
TORSDOF 8
ENDMDL
MODEL 9
REMARK VINA RESULT:      -7.7      4.675      7.964
REMARK  8 active torsions:
REMARK  status: ('A' for Active; 'I' for Inactive)
REMARK    1  A    between atoms: N_4  and  C_10 
REMARK       I    between atoms: N_4  and  C_5 
REMARK    2  A    between atoms: C_5  and  C_22 
REMARK    3  A    between atoms: C_9  and  C_10 
REMARK    4  A    between atoms: C_9  and  C_17 
REMARK    5  A    between atoms: C_10  and  C_26 
REMARK    6  A    between atoms: C_13  and  C_22 
REMARK    7  A    between atoms: C_13  and  C_16 
REMARK    8  A    between atoms: N_21  and  C_22 
ROOT
HETATM    1  N           1     -20.670  -8.035  -2.467  0.00  0.00    -0.344 N 
HETATM    2  C           1     -20.896  -8.269  -3.797  0.00  0.00     0.249 C 
HETATM    3  O           1     -21.361  -7.397  -4.492  0.00  0.00    -0.271 OA
HETATM    4  H           1     -19.778  -7.667  -2.162  0.00  0.00     0.163 HD
ENDROOT
BRANCH   2   5
HETATM    5  C           1     -20.564  -9.614  -4.394  0.00  0.00     0.278 C 
BRANCH   5   6
HETATM    6  C           1     -19.796 -10.446  -3.375  0.00  0.00     0.081 C 
BRANCH   6   7
HETATM    7  C           1     -20.550 -11.707  -3.088  0.00  0.00    -0.056 A 
HETATM    8  C           1     -19.911 -12.771  -2.451  0.00  0.00     0.007 A 
HETATM    9  C           1     -20.613 -13.946  -2.185  0.00  0.00     0.001 A 
HETATM   10  C           1     -21.954 -14.057  -2.554  0.00  0.00     0.000 A 
HETATM   11  C           1     -22.592 -12.994  -3.191  0.00  0.00     0.001 A 
HETATM   12  C           1     -21.889 -11.818  -3.458  0.00  0.00     0.007 A 
ENDBRANCH   6   7
ENDBRANCH   5   6
BRANCH   5  13
HETATM   13  N           1     -19.721  -9.423  -5.619  0.00  0.00    -0.066 N 
HETATM   14  H           1     -19.120 -10.265  -5.764  0.00  0.00     0.275 HD
HETATM   15  H           1     -19.116  -8.579  -5.499  0.00  0.00     0.275 HD
HETATM   16  H           1     -20.341  -9.290  -6.450  0.00  0.00     0.275 HD
ENDBRANCH   5  13
ENDBRANCH   2   5
BRANCH   1  17
HETATM   17  C           1     -21.709  -8.317  -1.495  0.00  0.00     0.189 C 
BRANCH  17  18
HETATM   18  C           1     -21.096  -9.004  -0.282  0.00  0.00     0.074 C 
BRANCH  18  19
HETATM   19  C           1     -21.850 -10.263   0.013  0.00  0.00    -0.056 A 
HETATM   20  C           1     -21.210 -11.325   0.653  0.00  0.00     0.007 A 
HETATM   21  C           1     -21.913 -12.498   0.929  0.00  0.00     0.001 A 
HETATM   22  C           1     -23.256 -12.609   0.566  0.00  0.00     0.000 A 
HETATM   23  C           1     -23.895 -11.546  -0.073  0.00  0.00     0.001 A 
HETATM   24  C           1     -23.193 -10.374  -0.349  0.00  0.00     0.007 A 
ENDBRANCH  18  19
ENDBRANCH  17  18
BRANCH  17  25
HETATM   25  C           1     -22.360  -7.025  -1.067  0.00  0.00     0.197 C 
HETATM   26  O           1     -22.154  -5.976  -1.715  0.00  0.00    -0.646 OA
HETATM   27  O           1     -23.106  -7.003  -0.064  0.00  0.00    -0.646 OA
ENDBRANCH  17  25
ENDBRANCH   1  17
TORSDOF 8
ENDMDL
