MODEL 1
REMARK VINA RESULT:      -5.5      0.000      0.000
REMARK  4 active torsions:
REMARK  status: ('A' for Active; 'I' for Inactive)
REMARK    1  A    between atoms: C_2  and  C_3 
REMARK    2  A    between atoms: C_3  and  C_15 
REMARK    3  A    between atoms: C_3  and  N_7 
REMARK       I    between atoms: N_7  and  C_13 
REMARK    4  A    between atoms: C_9  and  C_13 
ROOT
HETATM    1  O           1     -34.369   0.074 -14.188  0.00  0.00    -0.271 OA
HETATM    2  H           1     -36.767  -1.572 -13.014  0.00  0.00     0.163 HD
HETATM    3  N           1     -35.805  -1.311 -13.184  0.00  0.00    -0.344 N 
HETATM    4  C           1     -35.518  -0.237 -13.985  0.00  0.00     0.251 C 
ENDROOT
BRANCH   3   5
HETATM    5  C           1     -34.729  -2.074 -12.581  0.00  0.00     0.189 C 
BRANCH   5   6
HETATM    6  C           1     -35.030  -2.301 -11.106  0.00  0.00     0.010 C 
HETATM    7  C           1     -36.074  -1.295 -10.640  0.00  0.00     0.012 C 
HETATM    8  C           1     -33.754  -2.120 -10.295  0.00  0.00     0.012 C 
ENDBRANCH   5   6
BRANCH   5   9
HETATM    9  C           1     -34.604  -3.405 -13.279  0.00  0.00     0.197 C 
HETATM   10  O           1     -34.250  -3.452 -14.478  0.00  0.00    -0.646 OA
HETATM   11  O           1     -34.854  -4.462 -12.661  0.00  0.00    -0.646 OA
ENDBRANCH   5   9
ENDBRANCH   3   5
BRANCH   4  12
HETATM   12  C           1     -36.639   0.556 -14.611  0.00  0.00     0.311 C 
HETATM   13  N           1     -36.422   0.717 -16.046  0.00  0.00     0.097 N 
HETATM   14  C           1     -36.823  -0.559 -16.633  0.00  0.00     0.271 C 
HETATM   15  H           1     -37.009   1.462 -16.419  0.00  0.00     0.317 HD
HETATM   16  C           1     -38.071  -0.940 -15.855  0.00  0.00     0.033 C 
HETATM   17  C           1     -37.951  -0.203 -14.526  0.00  0.00     0.047 C 
ENDBRANCH   4  12
TORSDOF 4
ENDMDL
MODEL 2
REMARK VINA RESULT:      -5.4     16.218     17.832
REMARK  4 active torsions:
REMARK  status: ('A' for Active; 'I' for Inactive)
REMARK    1  A    between atoms: C_2  and  C_3 
REMARK    2  A    between atoms: C_3  and  C_15 
REMARK    3  A    between atoms: C_3  and  N_7 
REMARK       I    between atoms: N_7  and  C_13 
REMARK    4  A    between atoms: C_9  and  C_13 
ROOT
HETATM    1  O           1     -22.545  -5.575  -5.722  0.00  0.00    -0.271 OA
HETATM    2  H           1     -19.709  -6.144  -4.509  0.00  0.00     0.163 HD
HETATM    3  N           1     -20.702  -6.261  -4.665  0.00  0.00    -0.344 N 
HETATM    4  C           1     -21.360  -5.434  -5.536  0.00  0.00     0.251 C 
ENDROOT
BRANCH   3   5
HETATM    5  C           1     -21.427  -7.304  -3.966  0.00  0.00     0.189 C 
BRANCH   5   6
HETATM    6  C           1     -20.620  -8.595  -3.998  0.00  0.00     0.010 C 
HETATM    7  C           1     -19.556  -8.503  -5.084  0.00  0.00     0.012 C 
HETATM    8  C           1     -21.548  -9.765  -4.293  0.00  0.00     0.012 C 
ENDBRANCH   5   6
BRANCH   5   9
HETATM    9  C           1     -21.652  -6.888  -2.534  0.00  0.00     0.197 C 
HETATM   10  O           1     -21.031  -7.460  -1.612  0.00  0.00    -0.646 OA
HETATM   11  O           1     -22.460  -5.972  -2.268  0.00  0.00    -0.646 OA
ENDBRANCH   5   9
ENDBRANCH   3   5
BRANCH   4  12
HETATM   12  C           1     -20.604  -4.350  -6.263  0.00  0.00     0.311 C 
HETATM   13  N           1     -19.492  -4.913  -7.025  0.00  0.00     0.097 N 
HETATM   14  C           1     -20.104  -5.473  -8.226  0.00  0.00     0.271 C 
HETATM   15  H           1     -18.829  -4.185  -7.288  0.00  0.00     0.317 HD
HETATM   16  C           1     -21.150  -4.443  -8.615  0.00  0.00     0.033 C 
HETATM   17  C           1     -21.477  -3.702  -7.324  0.00  0.00     0.047 C 
ENDBRANCH   4  12
TORSDOF 4
ENDMDL
MODEL 3
REMARK VINA RESULT:      -5.4     24.916     25.794
REMARK  4 active torsions:
REMARK  status: ('A' for Active; 'I' for Inactive)
REMARK    1  A    between atoms: C_2  and  C_3 
REMARK    2  A    between atoms: C_3  and  C_15 
REMARK    3  A    between atoms: C_3  and  N_7 
REMARK       I    between atoms: N_7  and  C_13 
REMARK    4  A    between atoms: C_9  and  C_13 
ROOT
HETATM    1  O           1     -12.941   7.587 -21.579  0.00  0.00    -0.271 OA
HETATM    2  H           1     -11.908   5.683 -19.310  0.00  0.00     0.163 HD
HETATM    3  N           1     -12.412   5.961 -20.142  0.00  0.00    -0.344 N 
HETATM    4  C           1     -12.339   7.255 -20.585  0.00  0.00     0.251 C 
ENDROOT
BRANCH   3   5
HETATM    5  C           1     -13.210   4.990 -20.865  0.00  0.00     0.189 C 
BRANCH   5   6
HETATM    6  C           1     -12.638   3.596 -20.645  0.00  0.00     0.010 C 
HETATM    7  C           1     -11.162   3.586 -21.020  0.00  0.00     0.012 C 
HETATM    8  C           1     -13.390   2.598 -21.516  0.00  0.00     0.012 C 
ENDBRANCH   5   6
BRANCH   5   9
HETATM    9  C           1     -14.632   5.035 -20.364  0.00  0.00     0.197 C 
HETATM   10  O           1     -15.560   5.342 -21.144  0.00  0.00    -0.646 OA
HETATM   11  O           1     -14.883   4.766 -19.170  0.00  0.00    -0.646 OA
ENDBRANCH   5   9
ENDBRANCH   3   5
BRANCH   4  12
HETATM   12  C           1     -11.507   8.264 -19.833  0.00  0.00     0.311 C 
HETATM   13  N           1     -10.200   7.709 -19.492  0.00  0.00     0.097 N 
HETATM   14  C           1      -9.422   7.794 -20.725  0.00  0.00     0.271 C 
HETATM   15  H           1      -9.749   8.266 -18.767  0.00  0.00     0.317 HD
HETATM   16  C           1      -9.806   9.144 -21.305  0.00  0.00     0.033 C 
HETATM   17  C           1     -11.176   9.456 -20.715  0.00  0.00     0.047 C 
ENDBRANCH   4  12
TORSDOF 4
ENDMDL
MODEL 4
REMARK VINA RESULT:      -5.1      1.867      2.203
REMARK  4 active torsions:
REMARK  status: ('A' for Active; 'I' for Inactive)
REMARK    1  A    between atoms: C_2  and  C_3 
REMARK    2  A    between atoms: C_3  and  C_15 
REMARK    3  A    between atoms: C_3  and  N_7 
REMARK       I    between atoms: N_7  and  C_13 
REMARK    4  A    between atoms: C_9  and  C_13 
ROOT
HETATM    1  O           1     -33.751  -1.072 -11.501  0.00  0.00    -0.271 OA
HETATM    2  H           1     -36.063  -2.329 -13.209  0.00  0.00     0.163 HD
HETATM    3  N           1     -35.208  -2.297 -12.669  0.00  0.00    -0.344 N 
HETATM    4  C           1     -34.772  -1.109 -12.145  0.00  0.00     0.251 C 
ENDROOT
BRANCH   3   5
HETATM    5  C           1     -34.443  -3.510 -12.451  0.00  0.00     0.189 C 
BRANCH   5   6
HETATM    6  C           1     -35.112  -4.346 -11.368  0.00  0.00     0.010 C 
HETATM    7  C           1     -36.114  -3.487 -10.609  0.00  0.00     0.012 C 
HETATM    8  C           1     -34.054  -4.865 -10.404  0.00  0.00     0.012 C 
ENDBRANCH   5   6
BRANCH   5   9
HETATM    9  C           1     -34.382  -4.303 -13.732  0.00  0.00     0.197 C 
HETATM   10  O           1     -33.695  -3.888 -14.692  0.00  0.00    -0.646 OA
HETATM   11  O           1     -35.017  -5.374 -13.836  0.00  0.00    -0.646 OA
ENDBRANCH   5   9
ENDBRANCH   3   5
BRANCH   4  12
HETATM   12  C           1     -35.569   0.152 -12.372  0.00  0.00     0.311 C 
HETATM   13  N           1     -34.819   1.100 -13.190  0.00  0.00     0.097 N 
HETATM   14  C           1     -34.959   0.611 -14.559  0.00  0.00     0.271 C 
HETATM   15  H           1     -35.221   2.035 -13.120  0.00  0.00     0.317 HD
HETATM   16  C           1     -36.408   0.163 -14.637  0.00  0.00     0.033 C 
HETATM   17  C           1     -36.811  -0.136 -13.198  0.00  0.00     0.047 C 
ENDBRANCH   4  12
TORSDOF 4
ENDMDL
MODEL 5
REMARK VINA RESULT:      -5.0      9.168     10.761
REMARK  4 active torsions:
REMARK  status: ('A' for Active; 'I' for Inactive)
REMARK    1  A    between atoms: C_2  and  C_3 
REMARK    2  A    between atoms: C_3  and  C_15 
REMARK    3  A    between atoms: C_3  and  N_7 
REMARK       I    between atoms: N_7  and  C_13 
REMARK    4  A    between atoms: C_9  and  C_13 
ROOT
HETATM    1  O           1     -28.724  -7.729 -16.974  0.00  0.00    -0.271 OA
HETATM    2  H           1     -27.444  -5.452 -18.711  0.00  0.00     0.163 HD
HETATM    3  N           1     -27.478  -6.274 -18.123  0.00  0.00    -0.344 N 
HETATM    4  C           1     -28.683  -6.747 -17.677  0.00  0.00     0.251 C 
ENDROOT
BRANCH   3   5
HETATM    5  C           1     -26.251  -6.952 -17.752  0.00  0.00     0.189 C 
BRANCH   5   6
HETATM    6  C           1     -25.140  -6.559 -18.718  0.00  0.00     0.010 C 
HETATM    7  C           1     -25.563  -6.894 -20.142  0.00  0.00     0.012 C 
HETATM    8  C           1     -23.872  -7.326 -18.370  0.00  0.00     0.012 C 
ENDBRANCH   5   6
BRANCH   5   9
HETATM    9  C           1     -25.861  -6.555 -16.350  0.00  0.00     0.197 C 
HETATM   10  O           1     -25.757  -7.428 -15.460  0.00  0.00    -0.646 OA
HETATM   11  O           1     -25.643  -5.356 -16.077  0.00  0.00    -0.646 OA
ENDBRANCH   5   9
ENDBRANCH   3   5
BRANCH   4  12
HETATM   12  C           1     -29.960  -6.042 -18.064  0.00  0.00     0.311 C 
HETATM   13  N           1     -30.876  -5.966 -16.929  0.00  0.00     0.097 N 
HETATM   14  C           1     -30.368  -4.872 -16.107  0.00  0.00     0.271 C 
HETATM   15  H           1     -31.821  -5.746 -17.242  0.00  0.00     0.317 HD
HETATM   16  C           1     -29.954  -3.818 -17.119  0.00  0.00     0.033 C 
HETATM   17  C           1     -29.690  -4.587 -18.408  0.00  0.00     0.047 C 
ENDBRANCH   4  12
TORSDOF 4
ENDMDL
MODEL 6
REMARK VINA RESULT:      -5.0     17.790     19.663
REMARK  4 active torsions:
REMARK  status: ('A' for Active; 'I' for Inactive)
REMARK    1  A    between atoms: C_2  and  C_3 
REMARK    2  A    between atoms: C_3  and  C_15 
REMARK    3  A    between atoms: C_3  and  N_7 
REMARK       I    between atoms: N_7  and  C_13 
REMARK    4  A    between atoms: C_9  and  C_13 
ROOT
HETATM    1  O           1     -22.336  -6.684  -1.754  0.00  0.00    -0.271 OA
HETATM    2  H           1     -20.822  -9.411  -2.090  0.00  0.00     0.163 HD
HETATM    3  N           1     -21.485  -8.749  -1.709  0.00  0.00    -0.344 N 
HETATM    4  C           1     -21.544  -7.475  -2.209  0.00  0.00     0.251 C 
ENDROOT
BRANCH   3   5
HETATM    5  C           1     -22.374  -9.148  -0.635  0.00  0.00     0.189 C 
BRANCH   5   6
HETATM    6  C           1     -22.733 -10.620  -0.793  0.00  0.00     0.010 C 
HETATM    7  C           1     -22.839 -10.962  -2.273  0.00  0.00     0.012 C 
HETATM    8  C           1     -24.068 -10.890  -0.112  0.00  0.00     0.012 C 
ENDBRANCH   5   6
BRANCH   5   9
HETATM    9  C           1     -21.686  -8.938   0.691  0.00  0.00     0.197 C 
HETATM   10  O           1     -20.873  -9.789   1.115  0.00  0.00    -0.646 OA
HETATM   11  O           1     -21.928  -7.915   1.366  0.00  0.00    -0.646 OA
ENDBRANCH   5   9
ENDBRANCH   3   5
BRANCH   4  12
HETATM   12  C           1     -20.619  -7.061  -3.327  0.00  0.00     0.311 C 
HETATM   13  N           1     -20.433  -8.153  -4.279  0.00  0.00     0.097 N 
HETATM   14  C           1     -21.640  -8.148  -5.100  0.00  0.00     0.271 C 
HETATM   15  H           1     -19.619  -7.983  -4.869  0.00  0.00     0.317 HD
HETATM   16  C           1     -21.919  -6.672  -5.327  0.00  0.00     0.033 C 
HETATM   17  C           1     -21.244  -5.956  -4.163  0.00  0.00     0.047 C 
ENDBRANCH   4  12
TORSDOF 4
ENDMDL
MODEL 7
REMARK VINA RESULT:      -5.0     17.715     19.871
REMARK  4 active torsions:
REMARK  status: ('A' for Active; 'I' for Inactive)
REMARK    1  A    between atoms: C_2  and  C_3 
REMARK    2  A    between atoms: C_3  and  C_15 
REMARK    3  A    between atoms: C_3  and  N_7 
REMARK       I    between atoms: N_7  and  C_13 
REMARK    4  A    between atoms: C_9  and  C_13 
ROOT
HETATM    1  O           1     -22.311 -10.430  -3.263  0.00  0.00    -0.271 OA
HETATM    2  H           1     -20.438  -8.257  -1.993  0.00  0.00     0.163 HD
HETATM    3  N           1     -20.977  -8.726  -2.709  0.00  0.00    -0.344 N 
HETATM    4  C           1     -21.667  -9.870  -2.407  0.00  0.00     0.251 C 
ENDROOT
BRANCH   3   5
HETATM    5  C           1     -21.020  -8.187  -4.055  0.00  0.00     0.189 C 
BRANCH   5   6
HETATM    6  C           1     -21.272  -6.686  -3.994  0.00  0.00     0.010 C 
HETATM    7  C           1     -21.765  -6.309  -2.604  0.00  0.00     0.012 C 
HETATM    8  C           1     -22.326  -6.309  -5.027  0.00  0.00     0.012 C 
ENDBRANCH   5   6
BRANCH   5   9
HETATM    9  C           1     -19.703  -8.448  -4.743  0.00  0.00     0.197 C 
HETATM   10  O           1     -18.747  -8.934  -4.099  0.00  0.00    -0.646 OA
HETATM   11  O           1     -19.566  -8.178  -5.955  0.00  0.00    -0.646 OA
ENDBRANCH   5   9
ENDBRANCH   3   5
BRANCH   4  12
HETATM   12  C           1     -21.623 -10.430  -1.006  0.00  0.00     0.311 C 
HETATM   13  N           1     -21.670  -9.356  -0.017  0.00  0.00     0.097 N 
HETATM   14  C           1     -23.074  -8.963   0.045  0.00  0.00     0.271 C 
HETATM   15  H           1     -21.371  -9.695   0.897  0.00  0.00     0.317 HD
HETATM   16  C           1     -23.825 -10.281  -0.024  0.00  0.00     0.033 C 
HETATM   17  C           1     -22.868 -11.248  -0.713  0.00  0.00     0.047 C 
ENDBRANCH   4  12
TORSDOF 4
ENDMDL
MODEL 8
REMARK VINA RESULT:      -5.0     25.478     26.361
REMARK  4 active torsions:
REMARK  status: ('A' for Active; 'I' for Inactive)
REMARK    1  A    between atoms: C_2  and  C_3 
REMARK    2  A    between atoms: C_3  and  C_15 
REMARK    3  A    between atoms: C_3  and  N_7 
REMARK       I    between atoms: N_7  and  C_13 
REMARK    4  A    between atoms: C_9  and  C_13 
ROOT
HETATM    1  O           1     -13.207   7.109 -19.524  0.00  0.00    -0.271 OA
HETATM    2  H           1     -11.209   6.125 -21.733  0.00  0.00     0.163 HD
HETATM    3  N           1     -11.878   6.056 -20.978  0.00  0.00    -0.344 N 
HETATM    4  C           1     -12.408   7.192 -20.426  0.00  0.00     0.251 C 
ENDROOT
BRANCH   3   5
HETATM    5  C           1     -12.277   4.754 -20.479  0.00  0.00     0.189 C 
BRANCH   5   6
HETATM    6  C           1     -12.867   3.932 -21.617  0.00  0.00     0.010 C 
HETATM    7  C           1     -12.094   4.208 -22.899  0.00  0.00     0.012 C 
HETATM    8  C           1     -14.328   4.315 -21.812  0.00  0.00     0.012 C 
ENDBRANCH   5   6
BRANCH   5   9
HETATM    9  C           1     -11.073   4.041 -19.916  0.00  0.00     0.197 C 
HETATM   10  O           1     -11.031   2.791 -19.915  0.00  0.00    -0.646 OA
HETATM   11  O           1     -10.117   4.698 -19.451  0.00  0.00    -0.646 OA
ENDBRANCH   5   9
ENDBRANCH   3   5
BRANCH   4  12
HETATM   12  C           1     -11.993   8.547 -20.946  0.00  0.00     0.311 C 
HETATM   13  N           1     -11.666   9.448 -19.845  0.00  0.00     0.097 N 
HETATM   14  C           1     -10.325   9.056 -19.422  0.00  0.00     0.271 C 
HETATM   15  H           1     -11.653  10.417 -20.162  0.00  0.00     0.317 HD
HETATM   16  C           1      -9.599   8.781 -20.727  0.00  0.00     0.033 C 
HETATM   17  C           1     -10.696   8.450 -21.731  0.00  0.00     0.047 C 
ENDBRANCH   4  12
TORSDOF 4
ENDMDL
MODEL 9
REMARK VINA RESULT:      -4.9     10.161     11.901
REMARK  4 active torsions:
REMARK  status: ('A' for Active; 'I' for Inactive)
REMARK    1  A    between atoms: C_2  and  C_3 
REMARK    2  A    between atoms: C_3  and  C_15 
REMARK    3  A    between atoms: C_3  and  N_7 
REMARK       I    between atoms: N_7  and  C_13 
REMARK    4  A    between atoms: C_9  and  C_13 
ROOT
HETATM    1  O           1     -28.471  -5.117 -19.462  0.00  0.00    -0.271 OA
HETATM    2  H           1     -26.430  -7.216 -18.335  0.00  0.00     0.163 HD
HETATM    3  N           1     -26.978  -6.720 -19.026  0.00  0.00    -0.344 N 
HETATM    4  C           1     -27.817  -5.709 -18.637  0.00  0.00     0.251 C 
ENDROOT
BRANCH   3   5
HETATM    5  C           1     -26.875  -7.078 -20.427  0.00  0.00     0.189 C 
BRANCH   5   6
HETATM    6  C           1     -25.416  -7.335 -20.781  0.00  0.00     0.010 C 
HETATM    7  C           1     -24.570  -7.292 -19.516  0.00  0.00     0.012 C 
HETATM    8  C           1     -24.935  -6.265 -21.751  0.00  0.00     0.012 C 
ENDBRANCH   5   6
BRANCH   5   9
HETATM    9  C           1     -27.683  -8.325 -20.688  0.00  0.00     0.197 C 
HETATM   10  O           1     -27.295  -9.153 -21.542  0.00  0.00    -0.646 OA
HETATM   11  O           1     -28.739  -8.531 -20.053  0.00  0.00    -0.646 OA
ENDBRANCH   5   9
ENDBRANCH   3   5
BRANCH   4  12
HETATM   12  C           1     -27.922  -5.337 -17.178  0.00  0.00     0.311 C 
HETATM   13  N           1     -29.317  -5.327 -16.745  0.00  0.00     0.097 N 
HETATM   14  C           1     -29.659  -6.732 -16.544  0.00  0.00     0.271 C 
HETATM   15  H           1     -29.418  -4.824 -15.864  0.00  0.00     0.317 HD
HETATM   16  C           1     -28.420  -7.318 -15.888  0.00  0.00     0.033 C 
HETATM   17  C           1     -27.278  -6.397 -16.302  0.00  0.00     0.047 C 
ENDBRANCH   4  12
TORSDOF 4
ENDMDL
