MODEL 1
REMARK VINA RESULT:      -7.1      0.000      0.000
REMARK  10 active torsions:
REMARK  status: ('A' for Active; 'I' for Inactive)
REMARK       I    between atoms: N_1  and  C_11 
REMARK    1  A    between atoms: C_2  and  C_3 
REMARK    2  A    between atoms: C_3  and  C_4 
REMARK    3  A    between atoms: C_3  and  N_7 
REMARK    4  A    between atoms: C_4  and  C_14 
REMARK    5  A    between atoms: C_5  and  C_6 
REMARK    6  A    between atoms: C_5  and  C_10 
REMARK    7  A    between atoms: C_5  and  N_22 
REMARK       I    between atoms: C_6  and  N_7 
REMARK    8  A    between atoms: C_8  and  C_9 
REMARK       I    between atoms: C_8  and  N_18 
REMARK    9  A    between atoms: C_9  and  C_10 
REMARK   10  A    between atoms: C_11  and  C_14 
ROOT
HETATM    1  C           1     -28.295  -6.229 -18.649  0.00  0.00     0.249 C 
HETATM    2  N           1     -27.441  -7.150 -19.192  0.00  0.00    -0.345 N 
HETATM    3  H           1     -27.349  -8.065 -18.770  0.00  0.00     0.163 HD
HETATM    4  O           1     -28.404  -5.135 -19.153  0.00  0.00    -0.271 OA
ENDROOT
BRANCH   1   5
HETATM    5  C           1     -29.100  -6.578 -17.421  0.00  0.00     0.275 C 
BRANCH   5   6
HETATM    6  C           1     -29.519  -5.299 -16.708  0.00  0.00     0.052 C 
BRANCH   6   7
HETATM    7  C           1     -30.981  -5.003 -17.012  0.00  0.00     0.105 C 
BRANCH   7   8
HETATM    8  C           1     -31.115  -3.588 -17.518  0.00  0.00     0.215 C 
HETATM    9  N           1     -29.993  -2.842 -17.766  0.00  0.00    -0.370 N 
HETATM   10  H           1     -30.083  -1.892 -18.105  0.00  0.00     0.159 HD
HETATM   11  H           1     -29.076  -3.238 -17.609  0.00  0.00     0.159 HD
HETATM   12  O           1     -32.209  -3.114 -17.705  0.00  0.00    -0.274 OA
ENDBRANCH   7   8
ENDBRANCH   6   7
ENDBRANCH   5   6
BRANCH   5  13
HETATM   13  N           1     -28.265  -7.414 -16.498  0.00  0.00    -0.066 N 
HETATM   14  H           1     -28.681  -7.396 -15.539  0.00  0.00     0.275 HD
HETATM   15  H           1     -28.239  -8.398 -16.847  0.00  0.00     0.275 HD
HETATM   16  H           1     -27.293  -7.030 -16.463  0.00  0.00     0.275 HD
ENDBRANCH   5  13
ENDBRANCH   1   5
BRANCH   2  17
HETATM   17  C           1     -26.667  -6.815 -20.372  0.00  0.00     0.186 C 
BRANCH  17  18
HETATM   18  C           1     -26.498  -8.045 -21.229  0.00  0.00     0.196 C 
HETATM   19  O           1     -27.446  -8.850 -21.360  0.00  0.00    -0.646 OA
HETATM   20  O           1     -25.411  -8.260 -21.806  0.00  0.00    -0.646 OA
ENDBRANCH  17  18
BRANCH  17  21
HETATM   21  C           1     -25.299  -6.296 -19.951  0.00  0.00     0.045 C 
BRANCH  21  22
HETATM   22  C           1     -24.539  -7.398 -19.223  0.00  0.00     0.105 C 
BRANCH  22  23
HETATM   23  C           1     -24.496  -7.089 -17.747  0.00  0.00     0.215 C 
HETATM   24  N           1     -23.591  -7.724 -16.941  0.00  0.00    -0.370 N 
HETATM   25  H           1     -22.949  -8.401 -17.335  0.00  0.00     0.159 HD
HETATM   26  H           1     -23.562  -7.517 -15.950  0.00  0.00     0.159 HD
HETATM   27  O           1     -25.261  -6.282 -17.276  0.00  0.00    -0.274 OA
ENDBRANCH  22  23
ENDBRANCH  21  22
ENDBRANCH  17  21
ENDBRANCH   2  17
TORSDOF 10
ENDMDL
MODEL 2
REMARK VINA RESULT:      -7.0      2.061      6.434
REMARK  10 active torsions:
REMARK  status: ('A' for Active; 'I' for Inactive)
REMARK       I    between atoms: N_1  and  C_11 
REMARK    1  A    between atoms: C_2  and  C_3 
REMARK    2  A    between atoms: C_3  and  C_4 
REMARK    3  A    between atoms: C_3  and  N_7 
REMARK    4  A    between atoms: C_4  and  C_14 
REMARK    5  A    between atoms: C_5  and  C_6 
REMARK    6  A    between atoms: C_5  and  C_10 
REMARK    7  A    between atoms: C_5  and  N_22 
REMARK       I    between atoms: C_6  and  N_7 
REMARK    8  A    between atoms: C_8  and  C_9 
REMARK       I    between atoms: C_8  and  N_18 
REMARK    9  A    between atoms: C_9  and  C_10 
REMARK   10  A    between atoms: C_11  and  C_14 
ROOT
HETATM    1  C           1     -26.366  -6.252 -17.279  0.00  0.00     0.249 C 
HETATM    2  N           1     -27.474  -6.439 -18.060  0.00  0.00    -0.345 N 
HETATM    3  H           1     -27.376  -6.798 -19.001  0.00  0.00     0.163 HD
HETATM    4  O           1     -26.484  -5.824 -16.155  0.00  0.00    -0.271 OA
ENDROOT
BRANCH   1   5
HETATM    5  C           1     -24.997  -6.581 -17.821  0.00  0.00     0.275 C 
BRANCH   5   6
HETATM    6  C           1     -25.112  -6.977 -19.287  0.00  0.00     0.052 C 
BRANCH   6   7
HETATM    7  C           1     -23.736  -7.348 -19.823  0.00  0.00     0.105 C 
BRANCH   7   8
HETATM    8  C           1     -23.889  -8.226 -21.040  0.00  0.00     0.215 C 
HETATM    9  N           1     -22.920  -9.144 -21.347  0.00  0.00    -0.370 N 
HETATM   10  H           1     -23.022  -9.733 -22.164  0.00  0.00     0.159 HD
HETATM   11  H           1     -22.102  -9.233 -20.760  0.00  0.00     0.159 HD
HETATM   12  O           1     -24.865  -8.121 -21.742  0.00  0.00    -0.274 OA
ENDBRANCH   7   8
ENDBRANCH   6   7
ENDBRANCH   5   6
BRANCH   5  13
HETATM   13  N           1     -24.410  -7.719 -17.040  0.00  0.00    -0.066 N 
HETATM   14  H           1     -25.174  -8.360 -16.731  0.00  0.00     0.275 HD
HETATM   15  H           1     -23.738  -8.244 -17.643  0.00  0.00     0.275 HD
HETATM   16  H           1     -23.909  -7.344 -16.203  0.00  0.00     0.275 HD
ENDBRANCH   5  13
ENDBRANCH   1   5
BRANCH   2  17
HETATM   17  C           1     -28.790  -6.124 -17.539  0.00  0.00     0.186 C 
BRANCH  17  18
HETATM   18  C           1     -29.677  -7.341 -17.641  0.00  0.00     0.196 C 
HETATM   19  O           1     -30.722  -7.298 -18.326  0.00  0.00    -0.646 OA
HETATM   20  O           1     -29.367  -8.391 -17.040  0.00  0.00    -0.646 OA
ENDBRANCH  17  18
BRANCH  17  21
HETATM   21  C           1     -29.397  -4.985 -18.347  0.00  0.00     0.045 C 
BRANCH  21  22
HETATM   22  C           1     -29.851  -3.878 -17.405  0.00  0.00     0.105 C 
BRANCH  22  23
HETATM   23  C           1     -31.357  -3.887 -17.305  0.00  0.00     0.215 C 
HETATM   24  N           1     -31.992  -4.896 -16.635  0.00  0.00    -0.370 N 
HETATM   25  H           1     -31.453  -5.637 -16.205  0.00  0.00     0.159 HD
HETATM   26  H           1     -33.003  -4.902 -16.568  0.00  0.00     0.159 HD
HETATM   27  O           1     -32.001  -3.003 -17.818  0.00  0.00    -0.274 OA
ENDBRANCH  22  23
ENDBRANCH  21  22
ENDBRANCH  17  21
ENDBRANCH   2  17
TORSDOF 10
ENDMDL
MODEL 3
REMARK VINA RESULT:      -6.4     12.702     14.842
REMARK  10 active torsions:
REMARK  status: ('A' for Active; 'I' for Inactive)
REMARK       I    between atoms: N_1  and  C_11 
REMARK    1  A    between atoms: C_2  and  C_3 
REMARK    2  A    between atoms: C_3  and  C_4 
REMARK    3  A    between atoms: C_3  and  N_7 
REMARK    4  A    between atoms: C_4  and  C_14 
REMARK    5  A    between atoms: C_5  and  C_6 
REMARK    6  A    between atoms: C_5  and  C_10 
REMARK    7  A    between atoms: C_5  and  N_22 
REMARK       I    between atoms: C_6  and  N_7 
REMARK    8  A    between atoms: C_8  and  C_9 
REMARK       I    between atoms: C_8  and  N_18 
REMARK    9  A    between atoms: C_9  and  C_10 
REMARK   10  A    between atoms: C_11  and  C_14 
ROOT
HETATM    1  C           1     -20.652  -4.749  -6.195  0.00  0.00     0.249 C 
HETATM    2  N           1     -21.429  -5.793  -5.774  0.00  0.00    -0.345 N 
HETATM    3  H           1     -22.249  -6.060  -6.303  0.00  0.00     0.163 HD
HETATM    4  O           1     -19.672  -4.430  -5.563  0.00  0.00    -0.271 OA
ENDROOT
BRANCH   1   5
HETATM    5  C           1     -21.019  -3.993  -7.449  0.00  0.00     0.275 C 
BRANCH   5   6
HETATM    6  C           1     -22.450  -4.332  -7.847  0.00  0.00     0.052 C 
BRANCH   6   7
HETATM    7  C           1     -22.524  -4.530  -9.355  0.00  0.00     0.105 C 
BRANCH   7   8
HETATM    8  C           1     -23.789  -3.901  -9.883  0.00  0.00     0.215 C 
HETATM    9  N           1     -24.630  -3.235  -9.032  0.00  0.00    -0.370 N 
HETATM   10  H           1     -25.479  -2.813  -9.387  0.00  0.00     0.159 HD
HETATM   11  H           1     -24.403  -3.165  -8.049  0.00  0.00     0.159 HD
HETATM   12  O           1     -24.060  -3.984 -11.057  0.00  0.00    -0.274 OA
ENDBRANCH   7   8
ENDBRANCH   6   7
ENDBRANCH   5   6
BRANCH   5  13
HETATM   13  N           1     -20.087  -4.382  -8.558  0.00  0.00    -0.066 N 
HETATM   14  H           1     -19.244  -3.765  -8.537  0.00  0.00     0.275 HD
HETATM   15  H           1     -19.794  -5.376  -8.433  0.00  0.00     0.275 HD
HETATM   16  H           1     -20.575  -4.274  -9.476  0.00  0.00     0.275 HD
ENDBRANCH   5  13
ENDBRANCH   1   5
BRANCH   2  17
HETATM   17  C           1     -21.077  -6.520  -4.570  0.00  0.00     0.186 C 
BRANCH  17  18
HETATM   18  C           1     -20.658  -7.924  -4.933  0.00  0.00     0.196 C 
HETATM   19  O           1     -21.091  -8.454  -5.978  0.00  0.00    -0.646 OA
HETATM   20  O           1     -19.879  -8.555  -4.187  0.00  0.00    -0.646 OA
ENDBRANCH  17  18
BRANCH  17  21
HETATM   21  C           1     -22.280  -6.573  -3.638  0.00  0.00     0.045 C 
BRANCH  21  22
HETATM   22  C           1     -21.881  -6.062  -2.261  0.00  0.00     0.105 C 
BRANCH  22  23
HETATM   23  C           1     -22.017  -7.175  -1.251  0.00  0.00     0.215 C 
HETATM   24  N           1     -21.142  -8.226  -1.268  0.00  0.00    -0.370 N 
HETATM   25  H           1     -20.402  -8.257  -1.958  0.00  0.00     0.159 HD
HETATM   26  H           1     -21.233  -8.972  -0.590  0.00  0.00     0.159 HD
HETATM   27  O           1     -22.900  -7.137  -0.427  0.00  0.00    -0.274 OA
ENDBRANCH  22  23
ENDBRANCH  21  22
ENDBRANCH  17  21
ENDBRANCH   2  17
TORSDOF 10
ENDMDL
MODEL 4
REMARK VINA RESULT:      -6.1     12.936     15.248
REMARK  10 active torsions:
REMARK  status: ('A' for Active; 'I' for Inactive)
REMARK       I    between atoms: N_1  and  C_11 
REMARK    1  A    between atoms: C_2  and  C_3 
REMARK    2  A    between atoms: C_3  and  C_4 
REMARK    3  A    between atoms: C_3  and  N_7 
REMARK    4  A    between atoms: C_4  and  C_14 
REMARK    5  A    between atoms: C_5  and  C_6 
REMARK    6  A    between atoms: C_5  and  C_10 
REMARK    7  A    between atoms: C_5  and  N_22 
REMARK       I    between atoms: C_6  and  N_7 
REMARK    8  A    between atoms: C_8  and  C_9 
REMARK       I    between atoms: C_8  and  N_18 
REMARK    9  A    between atoms: C_9  and  C_10 
REMARK   10  A    between atoms: C_11  and  C_14 
ROOT
HETATM    1  C           1     -21.361  -5.560  -5.745  0.00  0.00     0.249 C 
HETATM    2  N           1     -20.773  -6.466  -4.905  0.00  0.00    -0.345 N 
HETATM    3  H           1     -19.764  -6.518  -4.843  0.00  0.00     0.163 HD
HETATM    4  O           1     -22.565  -5.497  -5.819  0.00  0.00    -0.271 OA
ENDROOT
BRANCH   1   5
HETATM    5  C           1     -20.505  -4.641  -6.582  0.00  0.00     0.275 C 
BRANCH   5   6
HETATM    6  C           1     -21.386  -3.594  -7.250  0.00  0.00     0.052 C 
BRANCH   6   7
HETATM    7  C           1     -21.579  -3.953  -8.717  0.00  0.00     0.105 C 
BRANCH   7   8
HETATM    8  C           1     -23.034  -3.803  -9.085  0.00  0.00     0.215 C 
HETATM    9  N           1     -24.005  -4.038  -8.148  0.00  0.00    -0.370 N 
HETATM   10  H           1     -24.982  -3.937  -8.396  0.00  0.00     0.159 HD
HETATM   11  H           1     -23.747  -4.312  -7.210  0.00  0.00     0.159 HD
HETATM   12  O           1     -23.343  -3.475 -10.206  0.00  0.00    -0.274 OA
ENDBRANCH   7   8
ENDBRANCH   6   7
ENDBRANCH   5   6
BRANCH   5  13
HETATM   13  N           1     -19.794  -5.440  -7.634  0.00  0.00    -0.066 N 
HETATM   14  H           1     -20.035  -6.451  -7.527  0.00  0.00     0.275 HD
HETATM   15  H           1     -20.088  -5.110  -8.579  0.00  0.00     0.275 HD
HETATM   16  H           1     -18.761  -5.315  -7.526  0.00  0.00     0.275 HD
ENDBRANCH   5  13
ENDBRANCH   1   5
BRANCH   2  17
HETATM   17  C           1     -21.595  -7.349  -4.100  0.00  0.00     0.186 C 
BRANCH  17  18
HETATM   18  C           1     -21.628  -6.848  -2.677  0.00  0.00     0.196 C 
HETATM   19  O           1     -22.394  -5.911  -2.362  0.00  0.00    -0.646 OA
HETATM   20  O           1     -20.891  -7.369  -1.814  0.00  0.00    -0.646 OA
ENDBRANCH  17  18
BRANCH  17  21
HETATM   21  C           1     -21.010  -8.754  -4.131  0.00  0.00     0.045 C 
BRANCH  21  22
HETATM   22  C           1     -19.692  -8.741  -4.894  0.00  0.00     0.105 C 
BRANCH  22  23
HETATM   23  C           1     -18.589  -9.260  -4.004  0.00  0.00     0.215 C 
HETATM   24  N           1     -18.749  -9.262  -2.645  0.00  0.00    -0.370 N 
HETATM   25  H           1     -19.607  -8.914  -2.236  0.00  0.00     0.159 HD
HETATM   26  H           1     -18.009  -9.610  -2.048  0.00  0.00     0.159 HD
HETATM   27  O           1     -17.565  -9.676  -4.492  0.00  0.00    -0.274 OA
ENDBRANCH  22  23
ENDBRANCH  21  22
ENDBRANCH  17  21
ENDBRANCH   2  17
TORSDOF 10
ENDMDL
MODEL 5
REMARK VINA RESULT:      -6.0     12.630     14.980
REMARK  10 active torsions:
REMARK  status: ('A' for Active; 'I' for Inactive)
REMARK       I    between atoms: N_1  and  C_11 
REMARK    1  A    between atoms: C_2  and  C_3 
REMARK    2  A    between atoms: C_3  and  C_4 
REMARK    3  A    between atoms: C_3  and  N_7 
REMARK    4  A    between atoms: C_4  and  C_14 
REMARK    5  A    between atoms: C_5  and  C_6 
REMARK    6  A    between atoms: C_5  and  C_10 
REMARK    7  A    between atoms: C_5  and  N_22 
REMARK       I    between atoms: C_6  and  N_7 
REMARK    8  A    between atoms: C_8  and  C_9 
REMARK       I    between atoms: C_8  and  N_18 
REMARK    9  A    between atoms: C_9  and  C_10 
REMARK   10  A    between atoms: C_11  and  C_14 
ROOT
HETATM    1  C           1     -21.490  -6.900  -5.629  0.00  0.00     0.249 C 
HETATM    2  N           1     -21.713  -5.615  -6.043  0.00  0.00    -0.345 N 
HETATM    3  H           1     -22.211  -4.970  -5.445  0.00  0.00     0.163 HD
HETATM    4  O           1     -20.895  -7.672  -6.344  0.00  0.00    -0.271 OA
ENDROOT
BRANCH   1   5
HETATM    5  C           1     -21.990  -7.355  -4.280  0.00  0.00     0.275 C 
BRANCH   5   6
HETATM    6  C           1     -21.224  -6.629  -3.182  0.00  0.00     0.052 C 
BRANCH   6   7
HETATM    7  C           1     -22.193  -6.182  -2.096  0.00  0.00     0.105 C 
BRANCH   7   8
HETATM    8  C           1     -22.158  -7.166  -0.953  0.00  0.00     0.215 C 
HETATM    9  N           1     -21.055  -7.956  -0.764  0.00  0.00    -0.370 N 
HETATM   10  H           1     -21.033  -8.617   0.003  0.00  0.00     0.159 HD
HETATM   11  H           1     -20.265  -7.881  -1.390  0.00  0.00     0.159 HD
HETATM   12  O           1     -23.102  -7.257  -0.206  0.00  0.00    -0.274 OA
ENDBRANCH   7   8
ENDBRANCH   6   7
ENDBRANCH   5   6
BRANCH   5  13
HETATM   13  N           1     -21.780  -8.834  -4.141  0.00  0.00    -0.066 N 
HETATM   14  H           1     -21.488  -9.054  -3.163  0.00  0.00     0.275 HD
HETATM   15  H           1     -22.670  -9.334  -4.360  0.00  0.00     0.275 HD
HETATM   16  H           1     -21.033  -9.143  -4.806  0.00  0.00     0.275 HD
ENDBRANCH   5  13
ENDBRANCH   1   5
BRANCH   2  17
HETATM   17  C           1     -21.232  -5.178  -7.340  0.00  0.00     0.186 C 
BRANCH  17  18
HETATM   18  C           1     -19.886  -4.514  -7.180  0.00  0.00     0.196 C 
HETATM   19  O           1     -19.302  -4.544  -6.075  0.00  0.00    -0.646 OA
HETATM   20  O           1     -19.357  -3.934  -8.152  0.00  0.00    -0.646 OA
ENDBRANCH  17  18
BRANCH  17  21
HETATM   21  C           1     -22.220  -4.187  -7.939  0.00  0.00     0.045 C 
BRANCH  21  22
HETATM   22  C           1     -22.720  -4.712  -9.278  0.00  0.00     0.105 C 
BRANCH  22  23
HETATM   23  C           1     -22.066  -3.941 -10.398  0.00  0.00     0.215 C 
HETATM   24  N           1     -20.775  -4.216 -10.756  0.00  0.00    -0.370 N 
HETATM   25  H           1     -20.258  -4.937 -10.270  0.00  0.00     0.159 HD
HETATM   26  H           1     -20.336  -3.698 -11.508  0.00  0.00     0.159 HD
HETATM   27  O           1     -22.684  -3.080 -10.979  0.00  0.00    -0.274 OA
ENDBRANCH  22  23
ENDBRANCH  21  22
ENDBRANCH  17  21
ENDBRANCH   2  17
TORSDOF 10
ENDMDL
MODEL 6
REMARK VINA RESULT:      -5.9     13.539     15.897
REMARK  10 active torsions:
REMARK  status: ('A' for Active; 'I' for Inactive)
REMARK       I    between atoms: N_1  and  C_11 
REMARK    1  A    between atoms: C_2  and  C_3 
REMARK    2  A    between atoms: C_3  and  C_4 
REMARK    3  A    between atoms: C_3  and  N_7 
REMARK    4  A    between atoms: C_4  and  C_14 
REMARK    5  A    between atoms: C_5  and  C_6 
REMARK    6  A    between atoms: C_5  and  C_10 
REMARK    7  A    between atoms: C_5  and  N_22 
REMARK       I    between atoms: C_6  and  N_7 
REMARK    8  A    between atoms: C_8  and  C_9 
REMARK       I    between atoms: C_8  and  N_18 
REMARK    9  A    between atoms: C_9  and  C_10 
REMARK   10  A    between atoms: C_11  and  C_14 
ROOT
HETATM    1  C           1     -21.527  -6.451  -4.304  0.00  0.00     0.249 C 
HETATM    2  N           1     -21.072  -5.468  -5.140  0.00  0.00    -0.345 N 
HETATM    3  H           1     -20.538  -4.694  -4.768  0.00  0.00     0.163 HD
HETATM    4  O           1     -22.166  -7.376  -4.749  0.00  0.00    -0.271 OA
ENDROOT
BRANCH   1   5
HETATM    5  C           1     -21.233  -6.380  -2.826  0.00  0.00     0.275 C 
BRANCH   5   6
HETATM    6  C           1     -20.904  -7.773  -2.305  0.00  0.00     0.052 C 
BRANCH   6   7
HETATM    7  C           1     -21.907  -8.162  -1.228  0.00  0.00     0.105 C 
BRANCH   7   8
HETATM    8  C           1     -21.212  -8.971  -0.160  0.00  0.00     0.215 C 
HETATM    9  N           1     -21.198  -8.526   1.135  0.00  0.00    -0.370 N 
HETATM   10  H           1     -20.731  -9.068   1.850  0.00  0.00     0.159 HD
HETATM   11  H           1     -21.653  -7.656   1.376  0.00  0.00     0.159 HD
HETATM   12  O           1     -20.668 -10.010  -0.448  0.00  0.00    -0.274 OA
ENDBRANCH   7   8
ENDBRANCH   6   7
ENDBRANCH   5   6
BRANCH   5  13
HETATM   13  N           1     -22.434  -5.847  -2.102  0.00  0.00    -0.066 N 
HETATM   14  H           1     -23.045  -5.330  -2.774  0.00  0.00     0.275 HD
HETATM   15  H           1     -22.968  -6.640  -1.684  0.00  0.00     0.275 HD
HETATM   16  H           1     -22.123  -5.197  -1.344  0.00  0.00     0.275 HD
ENDBRANCH   5  13
ENDBRANCH   1   5
BRANCH   2  17
HETATM   17  C           1     -21.355  -5.536  -6.561  0.00  0.00     0.186 C 
BRANCH  17  18
HETATM   18  C           1     -20.081  -5.835  -7.313  0.00  0.00     0.196 C 
HETATM   19  O           1     -19.399  -6.839  -7.014  0.00  0.00    -0.646 OA
HETATM   20  O           1     -19.708  -5.078  -8.235  0.00  0.00    -0.646 OA
ENDBRANCH  17  18
BRANCH  17  21
HETATM   21  C           1     -21.922  -4.203  -7.030  0.00  0.00     0.045 C 
BRANCH  21  22
HETATM   22  C           1     -23.336  -4.409  -7.557  0.00  0.00     0.105 C 
BRANCH  22  23
HETATM   23  C           1     -23.485  -3.711  -8.887  0.00  0.00     0.215 C 
HETATM   24  N           1     -24.704  -3.223  -9.271  0.00  0.00    -0.370 N 
HETATM   25  H           1     -25.506  -3.330  -8.663  0.00  0.00     0.159 HD
HETATM   26  H           1     -24.804  -2.754 -10.163  0.00  0.00     0.159 HD
HETATM   27  O           1     -22.527  -3.583  -9.612  0.00  0.00    -0.274 OA
ENDBRANCH  22  23
ENDBRANCH  21  22
ENDBRANCH  17  21
ENDBRANCH   2  17
TORSDOF 10
ENDMDL
MODEL 7
REMARK VINA RESULT:      -5.7     13.348     15.536
REMARK  10 active torsions:
REMARK  status: ('A' for Active; 'I' for Inactive)
REMARK       I    between atoms: N_1  and  C_11 
REMARK    1  A    between atoms: C_2  and  C_3 
REMARK    2  A    between atoms: C_3  and  C_4 
REMARK    3  A    between atoms: C_3  and  N_7 
REMARK    4  A    between atoms: C_4  and  C_14 
REMARK    5  A    between atoms: C_5  and  C_6 
REMARK    6  A    between atoms: C_5  and  C_10 
REMARK    7  A    between atoms: C_5  and  N_22 
REMARK       I    between atoms: C_6  and  N_7 
REMARK    8  A    between atoms: C_8  and  C_9 
REMARK       I    between atoms: C_8  and  N_18 
REMARK    9  A    between atoms: C_9  and  C_10 
REMARK   10  A    between atoms: C_11  and  C_14 
ROOT
HETATM    1  C           1     -20.516  -6.816  -5.517  0.00  0.00     0.249 C 
HETATM    2  N           1     -20.923  -7.463  -4.382  0.00  0.00    -0.345 N 
HETATM    3  H           1     -21.609  -7.035  -3.774  0.00  0.00     0.163 HD
HETATM    4  O           1     -19.698  -7.328  -6.244  0.00  0.00    -0.271 OA
ENDROOT
BRANCH   1   5
HETATM    5  C           1     -21.089  -5.464  -5.861  0.00  0.00     0.275 C 
BRANCH   5   6
HETATM    6  C           1     -21.381  -5.399  -7.355  0.00  0.00     0.052 C 
BRANCH   6   7
HETATM    7  C           1     -21.921  -4.020  -7.708  0.00  0.00     0.105 C 
BRANCH   7   8
HETATM    8  C           1     -22.929  -4.144  -8.824  0.00  0.00     0.215 C 
HETATM    9  N           1     -24.204  -3.676  -8.650  0.00  0.00    -0.370 N 
HETATM   10  H           1     -24.879  -3.760  -9.399  0.00  0.00     0.159 HD
HETATM   11  H           1     -24.471  -3.247  -7.774  0.00  0.00     0.159 HD
HETATM   12  O           1     -22.611  -4.656  -9.871  0.00  0.00    -0.274 OA
ENDBRANCH   7   8
ENDBRANCH   6   7
ENDBRANCH   5   6
BRANCH   5  13
HETATM   13  N           1     -20.100  -4.395  -5.500  0.00  0.00    -0.066 N 
HETATM   14  H           1     -19.133  -4.792  -5.527  0.00  0.00     0.275 HD
HETATM   15  H           1     -20.173  -3.609  -6.182  0.00  0.00     0.275 HD
HETATM   16  H           1     -20.305  -4.043  -4.537  0.00  0.00     0.275 HD
ENDBRANCH   5  13
ENDBRANCH   1   5
BRANCH   2  17
HETATM   17  C           1     -20.373  -8.764  -4.052  0.00  0.00     0.186 C 
BRANCH  17  18
HETATM   18  C           1     -21.282  -9.845  -4.585  0.00  0.00     0.196 C 
HETATM   19  O           1     -22.203 -10.296  -3.870  0.00  0.00    -0.646 OA
HETATM   20  O           1     -21.113 -10.289  -5.740  0.00  0.00    -0.646 OA
ENDBRANCH  17  18
BRANCH  17  21
HETATM   21  C           1     -20.258  -8.897  -2.539  0.00  0.00     0.045 C 
BRANCH  21  22
HETATM   22  C           1     -20.737  -7.611  -1.878  0.00  0.00     0.105 C 
BRANCH  22  23
HETATM   23  C           1     -22.021  -7.877  -1.130  0.00  0.00     0.215 C 
HETATM   24  N           1     -22.413  -9.163  -0.879  0.00  0.00    -0.370 N 
HETATM   25  H           1     -21.842  -9.937  -1.195  0.00  0.00     0.159 HD
HETATM   26  H           1     -23.274  -9.341  -0.378  0.00  0.00     0.159 HD
HETATM   27  O           1     -22.702  -6.953  -0.753  0.00  0.00    -0.274 OA
ENDBRANCH  22  23
ENDBRANCH  21  22
ENDBRANCH  17  21
ENDBRANCH   2  17
TORSDOF 10
ENDMDL
MODEL 8
REMARK VINA RESULT:      -5.5      1.861      3.189
REMARK  10 active torsions:
REMARK  status: ('A' for Active; 'I' for Inactive)
REMARK       I    between atoms: N_1  and  C_11 
REMARK    1  A    between atoms: C_2  and  C_3 
REMARK    2  A    between atoms: C_3  and  C_4 
REMARK    3  A    between atoms: C_3  and  N_7 
REMARK    4  A    between atoms: C_4  and  C_14 
REMARK    5  A    between atoms: C_5  and  C_6 
REMARK    6  A    between atoms: C_5  and  C_10 
REMARK    7  A    between atoms: C_5  and  N_22 
REMARK       I    between atoms: C_6  and  N_7 
REMARK    8  A    between atoms: C_8  and  C_9 
REMARK       I    between atoms: C_8  and  N_18 
REMARK    9  A    between atoms: C_9  and  C_10 
REMARK   10  A    between atoms: C_11  and  C_14 
ROOT
HETATM    1  C           1     -28.410  -5.414 -18.589  0.00  0.00     0.249 C 
HETATM    2  N           1     -27.757  -6.583 -18.871  0.00  0.00    -0.345 N 
HETATM    3  H           1     -27.270  -7.081 -18.138  0.00  0.00     0.163 HD
HETATM    4  O           1     -28.992  -4.820 -19.465  0.00  0.00    -0.271 OA
ENDROOT
BRANCH   1   5
HETATM    5  C           1     -28.401  -4.866 -17.183  0.00  0.00     0.275 C 
BRANCH   5   6
HETATM    6  C           1     -29.527  -5.506 -16.381  0.00  0.00     0.052 C 
BRANCH   6   7
HETATM    7  C           1     -28.947  -6.201 -15.156  0.00  0.00     0.105 C 
BRANCH   7   8
HETATM    8  C           1     -28.170  -7.419 -15.590  0.00  0.00     0.215 C 
HETATM    9  N           1     -28.780  -8.390 -16.339  0.00  0.00    -0.370 N 
HETATM   10  H           1     -28.259  -9.207 -16.629  0.00  0.00     0.159 HD
HETATM   11  H           1     -29.752  -8.291 -16.601  0.00  0.00     0.159 HD
HETATM   12  O           1     -27.010  -7.538 -15.277  0.00  0.00    -0.274 OA
ENDBRANCH   7   8
ENDBRANCH   6   7
ENDBRANCH   5   6
BRANCH   5  13
HETATM   13  N           1     -28.600  -3.380 -17.225  0.00  0.00    -0.066 N 
HETATM   14  H           1     -28.682  -3.067 -18.218  0.00  0.00     0.275 HD
HETATM   15  H           1     -29.473  -3.132 -16.708  0.00  0.00     0.275 HD
HETATM   16  H           1     -27.782  -2.907 -16.776  0.00  0.00     0.275 HD
ENDBRANCH   5  13
ENDBRANCH   1   5
BRANCH   2  17
HETATM   17  C           1     -27.765  -7.110 -20.222  0.00  0.00     0.186 C 
BRANCH  17  18
HETATM   18  C           1     -28.558  -8.394 -20.257  0.00  0.00     0.196 C 
HETATM   19  O           1     -29.471  -8.588 -19.424  0.00  0.00    -0.646 OA
HETATM   20  O           1     -28.303  -9.263 -21.118  0.00  0.00    -0.646 OA
ENDBRANCH  17  18
BRANCH  17  21
HETATM   21  C           1     -26.336  -7.384 -20.669  0.00  0.00     0.045 C 
BRANCH  21  22
HETATM   22  C           1     -25.387  -6.431 -19.953  0.00  0.00     0.105 C 
BRANCH  22  23
HETATM   23  C           1     -24.167  -7.188 -19.489  0.00  0.00     0.215 C 
HETATM   24  N           1     -23.666  -8.210 -20.248  0.00  0.00    -0.370 N 
HETATM   25  H           1     -24.114  -8.459 -21.121  0.00  0.00     0.159 HD
HETATM   26  H           1     -22.847  -8.718 -19.937  0.00  0.00     0.159 HD
HETATM   27  O           1     -23.632  -6.891 -18.448  0.00  0.00    -0.274 OA
ENDBRANCH  22  23
ENDBRANCH  21  22
ENDBRANCH  17  21
ENDBRANCH   2  17
TORSDOF 10
ENDMDL
MODEL 9
REMARK VINA RESULT:      -5.5     14.612     16.965
REMARK  10 active torsions:
REMARK  status: ('A' for Active; 'I' for Inactive)
REMARK       I    between atoms: N_1  and  C_11 
REMARK    1  A    between atoms: C_2  and  C_3 
REMARK    2  A    between atoms: C_3  and  C_4 
REMARK    3  A    between atoms: C_3  and  N_7 
REMARK    4  A    between atoms: C_4  and  C_14 
REMARK    5  A    between atoms: C_5  and  C_6 
REMARK    6  A    between atoms: C_5  and  C_10 
REMARK    7  A    between atoms: C_5  and  N_22 
REMARK       I    between atoms: C_6  and  N_7 
REMARK    8  A    between atoms: C_8  and  C_9 
REMARK       I    between atoms: C_8  and  N_18 
REMARK    9  A    between atoms: C_9  and  C_10 
REMARK   10  A    between atoms: C_11  and  C_14 
ROOT
HETATM    1  C           1     -21.154  -7.081  -4.565  0.00  0.00     0.249 C 
HETATM    2  N           1     -20.751  -6.988  -3.261  0.00  0.00    -0.345 N 
HETATM    3  H           1     -19.958  -6.409  -3.016  0.00  0.00     0.163 HD
HETATM    4  O           1     -22.101  -7.773  -4.858  0.00  0.00    -0.271 OA
ENDROOT
BRANCH   1   5
HETATM    5  C           1     -20.417  -6.320  -5.639  0.00  0.00     0.275 C 
BRANCH   5   6
HETATM    6  C           1     -21.420  -5.653  -6.571  0.00  0.00     0.052 C 
BRANCH   6   7
HETATM    7  C           1     -20.724  -5.251  -7.864  0.00  0.00     0.105 C 
BRANCH   7   8
HETATM    8  C           1     -21.588  -4.270  -8.618  0.00  0.00     0.215 C 
HETATM    9  N           1     -22.515  -3.519  -7.946  0.00  0.00    -0.370 N 
HETATM   10  H           1     -23.095  -2.861  -8.452  0.00  0.00     0.159 HD
HETATM   11  H           1     -22.622  -3.621  -6.946  0.00  0.00     0.159 HD
HETATM   12  O           1     -21.461  -4.147  -9.812  0.00  0.00    -0.274 OA
ENDBRANCH   7   8
ENDBRANCH   6   7
ENDBRANCH   5   6
BRANCH   5  13
HETATM   13  N           1     -19.559  -7.267  -6.424  0.00  0.00    -0.066 N 
HETATM   14  H           1     -20.157  -7.810  -7.088  0.00  0.00     0.275 HD
HETATM   15  H           1     -18.845  -6.727  -6.962  0.00  0.00     0.275 HD
HETATM   16  H           1     -19.078  -7.926  -5.769  0.00  0.00     0.275 HD
ENDBRANCH   5  13
ENDBRANCH   1   5
BRANCH   2  17
HETATM   17  C           1     -21.459  -7.720  -2.229  0.00  0.00     0.186 C 
BRANCH  17  18
HETATM   18  C           1     -22.296  -6.761  -1.417  0.00  0.00     0.196 C 
HETATM   19  O           1     -22.891  -7.163  -0.394  0.00  0.00    -0.646 OA
HETATM   20  O           1     -22.395  -5.566  -1.769  0.00  0.00    -0.646 OA
ENDBRANCH  17  18
BRANCH  17  21
HETATM   21  C           1     -20.456  -8.414  -1.319  0.00  0.00     0.045 C 
BRANCH  21  22
HETATM   22  C           1     -20.860  -9.870  -1.132  0.00  0.00     0.105 C 
BRANCH  22  23
HETATM   23  C           1     -21.189 -10.120   0.319  0.00  0.00     0.215 C 
HETATM   24  N           1     -21.089  -9.103   1.229  0.00  0.00    -0.370 N 
HETATM   25  H           1     -20.795  -8.183   0.928  0.00  0.00     0.159 HD
HETATM   26  H           1     -21.310  -9.271   2.203  0.00  0.00     0.159 HD
HETATM   27  O           1     -21.541 -11.219   0.678  0.00  0.00    -0.274 OA
ENDBRANCH  22  23
ENDBRANCH  21  22
ENDBRANCH  17  21
ENDBRANCH   2  17
TORSDOF 10
ENDMDL
