MODEL 1
REMARK VINA RESULT:      -6.4      0.000      0.000
REMARK  10 active torsions:
REMARK  status: ('A' for Active; 'I' for Inactive)
REMARK    1  A    between atoms: C_2  and  C_3 
REMARK    2  A    between atoms: C_3  and  C_20 
REMARK    3  A    between atoms: C_3  and  N_14 
REMARK    4  A    between atoms: C_4  and  C_12 
REMARK    5  A    between atoms: C_4  and  C_7 
REMARK    6  A    between atoms: C_4  and  N_13 
REMARK    7  A    between atoms: C_5  and  C_7 
REMARK    8  A    between atoms: C_5  and  S_18 
REMARK    9  A    between atoms: C_10  and  C_11 
REMARK   10  A    between atoms: C_10  and  C_20 
REMARK       I    between atoms: C_11  and  N_15 
REMARK       I    between atoms: C_12  and  N_14 
ROOT
HETATM    1  O           1     -33.969  -1.759 -11.258  0.00  0.00    -0.271 OA
HETATM    2  C           1     -34.432  -2.273 -12.248  0.00  0.00     0.249 C 
HETATM    3  N           1     -35.238  -1.545 -13.082  0.00  0.00    -0.345 N 
HETATM    4  H           1     -35.627  -1.975 -13.912  0.00  0.00     0.163 HD
ENDROOT
BRANCH   3   5
HETATM    5  C           1     -35.536  -0.159 -12.776  0.00  0.00     0.186 C 
BRANCH   5   6
HETATM    6  C           1     -36.913  -0.065 -12.164  0.00  0.00     0.196 C 
HETATM    7  O           1     -37.918  -0.382 -12.835  0.00  0.00    -0.646 OA
HETATM    8  O           1     -37.047   0.330 -10.985  0.00  0.00    -0.646 OA
ENDBRANCH   5   6
BRANCH   5   9
HETATM    9  C           1     -35.491   0.663 -14.056  0.00  0.00     0.045 C 
BRANCH   9  10
HETATM   10  C           1     -35.489  -0.270 -15.260  0.00  0.00     0.105 C 
BRANCH  10  11
HETATM   11  C           1     -36.747  -0.054 -16.066  0.00  0.00     0.215 C 
HETATM   12  O           1     -36.977  -0.752 -17.025  0.00  0.00    -0.274 OA
HETATM   13  N           1     -37.628   0.932 -15.710  0.00  0.00    -0.370 N 
HETATM   14  H           1     -37.436   1.516 -14.906  0.00  0.00     0.159 HD
HETATM   15  H           1     -38.471   1.076 -16.250  0.00  0.00     0.159 HD
ENDBRANCH  10  11
ENDBRANCH   9  10
ENDBRANCH   5   9
ENDBRANCH   3   5
BRANCH   2  16
HETATM   16  C           1     -34.122  -3.714 -12.567  0.00  0.00     0.275 C 
BRANCH  16  17
HETATM   17  C           1     -32.881  -4.149 -11.799  0.00  0.00     0.053 C 
BRANCH  17  18
HETATM   18  C           1     -33.085  -5.560 -11.261  0.00  0.00     0.076 C 
BRANCH  18  19
HETATM   19  S           1     -34.737  -5.692 -10.522  0.00  0.00    -0.173 SA
HETATM   20  C           1     -34.657  -7.473 -10.175  0.00  0.00     0.089 C 
ENDBRANCH  18  19
ENDBRANCH  17  18
ENDBRANCH  16  17
BRANCH  16  21
HETATM   21  N           1     -33.874  -3.858 -14.040  0.00  0.00    -0.066 N 
HETATM   22  H           1     -33.394  -3.001 -14.397  0.00  0.00     0.275 HD
HETATM   23  H           1     -33.268  -4.692 -14.209  0.00  0.00     0.275 HD
HETATM   24  H           1     -34.784  -3.981 -14.536  0.00  0.00     0.275 HD
ENDBRANCH  16  21
ENDBRANCH   2  16
TORSDOF 10
ENDMDL
MODEL 2
REMARK VINA RESULT:      -6.0      3.340      6.900
REMARK  10 active torsions:
REMARK  status: ('A' for Active; 'I' for Inactive)
REMARK    1  A    between atoms: C_2  and  C_3 
REMARK    2  A    between atoms: C_3  and  C_20 
REMARK    3  A    between atoms: C_3  and  N_14 
REMARK    4  A    between atoms: C_4  and  C_12 
REMARK    5  A    between atoms: C_4  and  C_7 
REMARK    6  A    between atoms: C_4  and  N_13 
REMARK    7  A    between atoms: C_5  and  C_7 
REMARK    8  A    between atoms: C_5  and  S_18 
REMARK    9  A    between atoms: C_10  and  C_11 
REMARK   10  A    between atoms: C_10  and  C_20 
REMARK       I    between atoms: C_11  and  N_15 
REMARK       I    between atoms: C_12  and  N_14 
ROOT
HETATM    1  O           1     -34.147  -1.504 -10.774  0.00  0.00    -0.271 OA
HETATM    2  C           1     -35.300  -1.866 -10.772  0.00  0.00     0.249 C 
HETATM    3  N           1     -35.601  -3.188 -10.963  0.00  0.00    -0.345 N 
HETATM    4  H           1     -36.566  -3.492 -10.962  0.00  0.00     0.163 HD
ENDROOT
BRANCH   3   5
HETATM    5  C           1     -34.537  -4.152 -11.167  0.00  0.00     0.186 C 
BRANCH   5   6
HETATM    6  C           1     -34.386  -4.428 -12.643  0.00  0.00     0.196 C 
HETATM    7  O           1     -33.477  -3.869 -13.293  0.00  0.00    -0.646 OA
HETATM    8  O           1     -35.170  -5.215 -13.215  0.00  0.00    -0.646 OA
ENDBRANCH   5   6
BRANCH   5   9
HETATM    9  C           1     -34.881  -5.446 -10.441  0.00  0.00     0.045 C 
BRANCH   9  10
HETATM   10  C           1     -33.788  -6.476 -10.695  0.00  0.00     0.105 C 
BRANCH  10  11
HETATM   11  C           1     -34.247  -7.828 -10.203  0.00  0.00     0.215 C 
HETATM   12  O           1     -35.347  -7.953  -9.719  0.00  0.00    -0.274 OA
HETATM   13  N           1     -33.415  -8.911 -10.305  0.00  0.00    -0.370 N 
HETATM   14  H           1     -32.494  -8.806 -10.710  0.00  0.00     0.159 HD
HETATM   15  H           1     -33.723  -9.817  -9.975  0.00  0.00     0.159 HD
ENDBRANCH  10  11
ENDBRANCH   9  10
ENDBRANCH   5   9
ENDBRANCH   3   5
BRANCH   2  16
HETATM   16  C           1     -36.406  -0.863 -10.561  0.00  0.00     0.275 C 
BRANCH  16  17
HETATM   17  C           1     -36.300   0.239 -11.607  0.00  0.00     0.053 C 
BRANCH  17  18
HETATM   18  C           1     -36.965  -0.220 -12.898  0.00  0.00     0.076 C 
BRANCH  18  19
HETATM   19  S           1     -35.707  -0.413 -14.191  0.00  0.00    -0.173 SA
HETATM   20  C           1     -34.708   1.025 -13.712  0.00  0.00     0.089 C 
ENDBRANCH  18  19
ENDBRANCH  17  18
ENDBRANCH  16  17
BRANCH  16  21
HETATM   21  N           1     -36.282  -0.264  -9.190  0.00  0.00    -0.066 N 
HETATM   22  H           1     -36.525  -0.983  -8.472  0.00  0.00     0.275 HD
HETATM   23  H           1     -35.299   0.059  -9.041  0.00  0.00     0.275 HD
HETATM   24  H           1     -36.933   0.548  -9.105  0.00  0.00     0.275 HD
ENDBRANCH  16  21
ENDBRANCH   2  16
TORSDOF 10
ENDMDL
MODEL 3
REMARK VINA RESULT:      -5.7      2.218      3.683
REMARK  10 active torsions:
REMARK  status: ('A' for Active; 'I' for Inactive)
REMARK    1  A    between atoms: C_2  and  C_3 
REMARK    2  A    between atoms: C_3  and  C_20 
REMARK    3  A    between atoms: C_3  and  N_14 
REMARK    4  A    between atoms: C_4  and  C_12 
REMARK    5  A    between atoms: C_4  and  C_7 
REMARK    6  A    between atoms: C_4  and  N_13 
REMARK    7  A    between atoms: C_5  and  C_7 
REMARK    8  A    between atoms: C_5  and  S_18 
REMARK    9  A    between atoms: C_10  and  C_11 
REMARK   10  A    between atoms: C_10  and  C_20 
REMARK       I    between atoms: C_11  and  N_15 
REMARK       I    between atoms: C_12  and  N_14 
ROOT
HETATM    1  O           1     -34.673  -3.117 -14.092  0.00  0.00    -0.271 OA
HETATM    2  C           1     -34.551  -2.929 -12.905  0.00  0.00     0.249 C 
HETATM    3  N           1     -35.150  -1.846 -12.320  0.00  0.00    -0.345 N 
HETATM    4  H           1     -35.048  -1.688 -11.326  0.00  0.00     0.163 HD
ENDROOT
BRANCH   3   5
HETATM    5  C           1     -35.929  -0.924 -13.125  0.00  0.00     0.186 C 
BRANCH   5   6
HETATM    6  C           1     -35.021   0.139 -13.691  0.00  0.00     0.196 C 
HETATM    7  O           1     -34.611   1.065 -12.960  0.00  0.00    -0.646 OA
HETATM    8  O           1     -34.678   0.093 -14.892  0.00  0.00    -0.646 OA
ENDBRANCH   5   6
BRANCH   5   9
HETATM    9  C           1     -36.997  -0.272 -12.257  0.00  0.00     0.045 C 
BRANCH   9  10
HETATM   10  C           1     -36.887  -0.801 -10.833  0.00  0.00     0.105 C 
BRANCH  10  11
HETATM   11  C           1     -37.085   0.334  -9.858  0.00  0.00     0.215 C 
HETATM   12  O           1     -37.962   1.144 -10.043  0.00  0.00    -0.274 OA
HETATM   13  N           1     -36.271   0.444  -8.762  0.00  0.00    -0.370 N 
HETATM   14  H           1     -35.537  -0.235  -8.606  0.00  0.00     0.159 HD
HETATM   15  H           1     -36.404   1.205  -8.108  0.00  0.00     0.159 HD
ENDBRANCH  10  11
ENDBRANCH   9  10
ENDBRANCH   5   9
ENDBRANCH   3   5
BRANCH   2  16
HETATM   16  C           1     -33.741  -3.887 -12.068  0.00  0.00     0.275 C 
BRANCH  16  17
HETATM   17  C           1     -34.549  -5.154 -11.820  0.00  0.00     0.053 C 
BRANCH  17  18
HETATM   18  C           1     -33.766  -6.084 -10.901  0.00  0.00     0.076 C 
BRANCH  18  19
HETATM   19  S           1     -34.923  -7.118  -9.959  0.00  0.00    -0.173 SA
HETATM   20  C           1     -33.900  -8.618  -9.969  0.00  0.00     0.089 C 
ENDBRANCH  18  19
ENDBRANCH  17  18
ENDBRANCH  16  17
BRANCH  16  21
HETATM   21  N           1     -33.407  -3.243 -10.755  0.00  0.00    -0.066 N 
HETATM   22  H           1     -32.639  -3.778 -10.290  0.00  0.00     0.275 HD
HETATM   23  H           1     -33.095  -2.260 -10.920  0.00  0.00     0.275 HD
HETATM   24  H           1     -34.252  -3.243 -10.142  0.00  0.00     0.275 HD
ENDBRANCH  16  21
ENDBRANCH   2  16
TORSDOF 10
ENDMDL
MODEL 4
REMARK VINA RESULT:      -5.3     13.949     16.389
REMARK  10 active torsions:
REMARK  status: ('A' for Active; 'I' for Inactive)
REMARK    1  A    between atoms: C_2  and  C_3 
REMARK    2  A    between atoms: C_3  and  C_20 
REMARK    3  A    between atoms: C_3  and  N_14 
REMARK    4  A    between atoms: C_4  and  C_12 
REMARK    5  A    between atoms: C_4  and  C_7 
REMARK    6  A    between atoms: C_4  and  N_13 
REMARK    7  A    between atoms: C_5  and  C_7 
REMARK    8  A    between atoms: C_5  and  S_18 
REMARK    9  A    between atoms: C_10  and  C_11 
REMARK   10  A    between atoms: C_10  and  C_20 
REMARK       I    between atoms: C_11  and  N_15 
REMARK       I    between atoms: C_12  and  N_14 
ROOT
HETATM    1  O           1     -22.334  -7.212  -4.767  0.00  0.00    -0.271 OA
HETATM    2  C           1     -21.580  -6.365  -4.349  0.00  0.00     0.249 C 
HETATM    3  N           1     -21.026  -5.458  -5.212  0.00  0.00    -0.345 N 
HETATM    4  H           1     -20.395  -4.749  -4.864  0.00  0.00     0.163 HD
ENDROOT
BRANCH   3   5
HETATM    5  C           1     -21.345  -5.514  -6.626  0.00  0.00     0.186 C 
BRANCH   5   6
HETATM    6  C           1     -20.090  -5.808  -7.412  0.00  0.00     0.196 C 
HETATM    7  O           1     -19.786  -5.098  -8.393  0.00  0.00    -0.646 OA
HETATM    8  O           1     -19.355  -6.763  -7.080  0.00  0.00    -0.646 OA
ENDBRANCH   5   6
BRANCH   5   9
HETATM    9  C           1     -21.920  -4.176  -7.069  0.00  0.00     0.045 C 
BRANCH   9  10
HETATM   10  C           1     -23.350  -4.373  -7.555  0.00  0.00     0.105 C 
BRANCH  10  11
HETATM   11  C           1     -23.517  -3.722  -8.907  0.00  0.00     0.215 C 
HETATM   12  O           1     -22.582  -3.664  -9.669  0.00  0.00    -0.274 OA
HETATM   13  N           1     -24.729  -3.196  -9.268  0.00  0.00    -0.370 N 
HETATM   14  H           1     -25.512  -3.245  -8.629  0.00  0.00     0.159 HD
HETATM   15  H           1     -24.841  -2.760 -10.174  0.00  0.00     0.159 HD
ENDBRANCH  10  11
ENDBRANCH   9  10
ENDBRANCH   5   9
ENDBRANCH   3   5
BRANCH   2  16
HETATM   16  C           1     -21.249  -6.307  -2.879  0.00  0.00     0.275 C 
BRANCH  16  17
HETATM   17  C           1     -20.802  -7.684  -2.404  0.00  0.00     0.053 C 
BRANCH  17  18
HETATM   18  C           1     -21.306  -7.921  -0.986  0.00  0.00     0.076 C 
BRANCH  18  19
HETATM   19  S           1     -22.254  -9.468  -0.932  0.00  0.00    -0.173 SA
HETATM   20  C           1     -21.715 -10.087  -2.551  0.00  0.00     0.089 C 
ENDBRANCH  18  19
ENDBRANCH  17  18
ENDBRANCH  16  17
BRANCH  16  21
HETATM   21  N           1     -22.466  -5.885  -2.109  0.00  0.00    -0.066 N 
HETATM   22  H           1     -22.173  -5.369  -1.250  0.00  0.00     0.275 HD
HETATM   23  H           1     -23.055  -5.262  -2.706  0.00  0.00     0.275 HD
HETATM   24  H           1     -23.016  -6.730  -1.837  0.00  0.00     0.275 HD
ENDBRANCH  16  21
ENDBRANCH   2  16
TORSDOF 10
ENDMDL
MODEL 5
REMARK VINA RESULT:      -5.3     15.342     17.521
REMARK  10 active torsions:
REMARK  status: ('A' for Active; 'I' for Inactive)
REMARK    1  A    between atoms: C_2  and  C_3 
REMARK    2  A    between atoms: C_3  and  C_20 
REMARK    3  A    between atoms: C_3  and  N_14 
REMARK    4  A    between atoms: C_4  and  C_12 
REMARK    5  A    between atoms: C_4  and  C_7 
REMARK    6  A    between atoms: C_4  and  N_13 
REMARK    7  A    between atoms: C_5  and  C_7 
REMARK    8  A    between atoms: C_5  and  S_18 
REMARK    9  A    between atoms: C_10  and  C_11 
REMARK   10  A    between atoms: C_10  and  C_20 
REMARK       I    between atoms: C_11  and  N_15 
REMARK       I    between atoms: C_12  and  N_14 
ROOT
HETATM    1  O           1     -19.725  -4.437  -5.406  0.00  0.00    -0.271 OA
HETATM    2  C           1     -20.651  -4.771  -6.106  0.00  0.00     0.249 C 
HETATM    3  N           1     -21.411  -5.857  -5.762  0.00  0.00    -0.345 N 
HETATM    4  H           1     -22.186  -6.138  -6.348  0.00  0.00     0.163 HD
ENDROOT
BRANCH   3   5
HETATM    5  C           1     -21.104  -6.605  -4.557  0.00  0.00     0.186 C 
BRANCH   5   6
HETATM    6  C           1     -20.792  -8.036  -4.921  0.00  0.00     0.196 C 
HETATM    7  O           1     -19.951  -8.286  -5.809  0.00  0.00    -0.646 OA
HETATM    8  O           1     -21.377  -8.971  -4.331  0.00  0.00    -0.646 OA
ENDBRANCH   5   6
BRANCH   5   9
HETATM    9  C           1     -22.303  -6.567  -3.619  0.00  0.00     0.045 C 
BRANCH   9  10
HETATM   10  C           1     -21.861  -6.066  -2.250  0.00  0.00     0.105 C 
BRANCH  10  11
HETATM   11  C           1     -22.013  -7.174  -1.236  0.00  0.00     0.215 C 
HETATM   12  O           1     -22.920  -7.142  -0.438  0.00  0.00    -0.274 OA
HETATM   13  N           1     -21.123  -8.215  -1.221  0.00  0.00    -0.370 N 
HETATM   14  H           1     -20.364  -8.241  -1.889  0.00  0.00     0.159 HD
HETATM   15  H           1     -21.225  -8.957  -0.541  0.00  0.00     0.159 HD
ENDBRANCH  10  11
ENDBRANCH   9  10
ENDBRANCH   5   9
ENDBRANCH   3   5
BRANCH   2  16
HETATM   16  C           1     -20.969  -3.995  -7.359  0.00  0.00     0.275 C 
BRANCH  16  17
HETATM   17  C           1     -22.178  -4.615  -8.049  0.00  0.00     0.053 C 
BRANCH  17  18
HETATM   18  C           1     -22.718  -3.647  -9.094  0.00  0.00     0.076 C 
BRANCH  18  19
HETATM   19  S           1     -23.237  -4.575 -10.566  0.00  0.00    -0.173 SA
HETATM   20  C           1     -21.698  -4.341 -11.500  0.00  0.00     0.089 C 
ENDBRANCH  18  19
ENDBRANCH  17  18
ENDBRANCH  16  17
BRANCH  16  21
HETATM   21  N           1     -19.790  -4.036  -8.287  0.00  0.00    -0.066 N 
HETATM   22  H           1     -19.191  -4.860  -8.051  0.00  0.00     0.275 HD
HETATM   23  H           1     -20.127  -4.121  -9.272  0.00  0.00     0.275 HD
HETATM   24  H           1     -19.233  -3.159  -8.182  0.00  0.00     0.275 HD
ENDBRANCH  16  21
ENDBRANCH   2  16
TORSDOF 10
ENDMDL
MODEL 6
REMARK VINA RESULT:      -5.2     13.723     16.093
REMARK  10 active torsions:
REMARK  status: ('A' for Active; 'I' for Inactive)
REMARK    1  A    between atoms: C_2  and  C_3 
REMARK    2  A    between atoms: C_3  and  C_20 
REMARK    3  A    between atoms: C_3  and  N_14 
REMARK    4  A    between atoms: C_4  and  C_12 
REMARK    5  A    between atoms: C_4  and  C_7 
REMARK    6  A    between atoms: C_4  and  N_13 
REMARK    7  A    between atoms: C_5  and  C_7 
REMARK    8  A    between atoms: C_5  and  S_18 
REMARK    9  A    between atoms: C_10  and  C_11 
REMARK   10  A    between atoms: C_10  and  C_20 
REMARK       I    between atoms: C_11  and  N_15 
REMARK       I    between atoms: C_12  and  N_14 
ROOT
HETATM    1  O           1     -21.024  -7.846  -6.245  0.00  0.00    -0.271 OA
HETATM    2  C           1     -21.539  -7.068  -5.477  0.00  0.00     0.249 C 
HETATM    3  N           1     -21.728  -5.764  -5.851  0.00  0.00    -0.345 N 
HETATM    4  H           1     -22.159  -5.112  -5.208  0.00  0.00     0.163 HD
ENDROOT
BRANCH   3   5
HETATM    5  C           1     -21.311  -5.318  -7.166  0.00  0.00     0.186 C 
BRANCH   5   6
HETATM    6  C           1     -19.981  -4.614  -7.059  0.00  0.00     0.196 C 
HETATM    7  O           1     -19.445  -4.131  -8.079  0.00  0.00    -0.646 OA
HETATM    8  O           1     -19.415  -4.513  -5.949  0.00  0.00    -0.646 OA
ENDBRANCH   5   6
BRANCH   5   9
HETATM    9  C           1     -22.351  -4.358  -7.729  0.00  0.00     0.045 C 
BRANCH   9  10
HETATM   10  C           1     -22.560  -4.646  -9.210  0.00  0.00     0.105 C 
BRANCH  10  11
HETATM   11  C           1     -23.546  -3.657  -9.781  0.00  0.00     0.215 C 
HETATM   12  O           1     -23.367  -3.192 -10.882  0.00  0.00    -0.274 OA
HETATM   13  N           1     -24.644  -3.286  -9.051  0.00  0.00    -0.370 N 
HETATM   14  H           1     -24.794  -3.675  -8.129  0.00  0.00     0.159 HD
HETATM   15  H           1     -25.305  -2.622  -9.434  0.00  0.00     0.159 HD
ENDBRANCH  10  11
ENDBRANCH   9  10
ENDBRANCH   5   9
ENDBRANCH   3   5
BRANCH   2  16
HETATM   16  C           1     -21.972  -7.531  -4.109  0.00  0.00     0.275 C 
BRANCH  16  17
HETATM   17  C           1     -21.268  -6.700  -3.044  0.00  0.00     0.053 C 
BRANCH  17  18
HETATM   18  C           1     -22.119  -6.666  -1.781  0.00  0.00     0.076 C 
BRANCH  18  19
HETATM   19  S           1     -21.535  -7.936  -0.623  0.00  0.00    -0.173 SA
HETATM   20  C           1     -23.047  -7.999   0.380  0.00  0.00     0.089 C 
ENDBRANCH  18  19
ENDBRANCH  17  18
ENDBRANCH  16  17
BRANCH  16  21
HETATM   21  N           1     -21.611  -8.977  -3.934  0.00  0.00    -0.066 N 
HETATM   22  H           1     -20.867  -9.064  -3.206  0.00  0.00     0.275 HD
HETATM   23  H           1     -22.457  -9.511  -3.633  0.00  0.00     0.275 HD
HETATM   24  H           1     -21.259  -9.360  -4.840  0.00  0.00     0.275 HD
ENDBRANCH  16  21
ENDBRANCH   2  16
TORSDOF 10
ENDMDL
MODEL 7
REMARK VINA RESULT:      -5.2     13.760     16.120
REMARK  10 active torsions:
REMARK  status: ('A' for Active; 'I' for Inactive)
REMARK    1  A    between atoms: C_2  and  C_3 
REMARK    2  A    between atoms: C_3  and  C_20 
REMARK    3  A    between atoms: C_3  and  N_14 
REMARK    4  A    between atoms: C_4  and  C_12 
REMARK    5  A    between atoms: C_4  and  C_7 
REMARK    6  A    between atoms: C_4  and  N_13 
REMARK    7  A    between atoms: C_5  and  C_7 
REMARK    8  A    between atoms: C_5  and  S_18 
REMARK    9  A    between atoms: C_10  and  C_11 
REMARK   10  A    between atoms: C_10  and  C_20 
REMARK       I    between atoms: C_11  and  N_15 
REMARK       I    between atoms: C_12  and  N_14 
ROOT
HETATM    1  O           1     -21.160  -7.404  -6.431  0.00  0.00    -0.271 OA
HETATM    2  C           1     -21.108  -6.418  -5.735  0.00  0.00     0.249 C 
HETATM    3  N           1     -21.208  -5.175  -6.302  0.00  0.00    -0.345 N 
HETATM    4  H           1     -21.163  -4.349  -5.720  0.00  0.00     0.163 HD
ENDROOT
BRANCH   3   5
HETATM    5  C           1     -21.377  -5.044  -7.736  0.00  0.00     0.186 C 
BRANCH   5   6
HETATM    6  C           1     -20.047  -4.720  -8.371  0.00  0.00     0.196 C 
HETATM    7  O           1     -19.081  -4.376  -7.657  0.00  0.00    -0.646 OA
HETATM    8  O           1     -19.911  -4.796  -9.611  0.00  0.00    -0.646 OA
ENDBRANCH   5   6
BRANCH   5   9
HETATM    9  C           1     -22.366  -3.924  -8.029  0.00  0.00     0.045 C 
BRANCH   9  10
HETATM   10  C           1     -23.400  -4.410  -9.036  0.00  0.00     0.105 C 
BRANCH  10  11
HETATM   11  C           1     -23.382  -3.513 -10.250  0.00  0.00     0.215 C 
HETATM   12  O           1     -24.411  -3.030 -10.659  0.00  0.00    -0.274 OA
HETATM   13  N           1     -22.199  -3.247 -10.886  0.00  0.00    -0.370 N 
HETATM   14  H           1     -21.337  -3.652 -10.543  0.00  0.00     0.159 HD
HETATM   15  H           1     -22.187  -2.646 -11.700  0.00  0.00     0.159 HD
ENDBRANCH  10  11
ENDBRANCH   9  10
ENDBRANCH   5   9
ENDBRANCH   3   5
BRANCH   2  16
HETATM   16  C           1     -20.932  -6.554  -4.243  0.00  0.00     0.275 C 
BRANCH  16  17
HETATM   17  C           1     -20.528  -7.984  -3.908  0.00  0.00     0.053 C 
BRANCH  17  18
HETATM   18  C           1     -21.543  -8.586  -2.944  0.00  0.00     0.076 C 
BRANCH  18  19
HETATM   19  S           1     -20.723  -8.987  -1.375  0.00  0.00    -0.173 SA
HETATM   20  C           1     -19.501 -10.131  -2.076  0.00  0.00     0.089 C 
ENDBRANCH  18  19
ENDBRANCH  17  18
ENDBRANCH  16  17
BRANCH  16  21
HETATM   21  N           1     -22.225  -6.227  -3.556  0.00  0.00    -0.066 N 
HETATM   22  H           1     -22.744  -7.110  -3.352  0.00  0.00     0.275 HD
HETATM   23  H           1     -22.024  -5.727  -2.661  0.00  0.00     0.275 HD
HETATM   24  H           1     -22.803  -5.617  -4.175  0.00  0.00     0.275 HD
ENDBRANCH  16  21
ENDBRANCH   2  16
TORSDOF 10
ENDMDL
MODEL 8
REMARK VINA RESULT:      -5.1      2.967      6.269
REMARK  10 active torsions:
REMARK  status: ('A' for Active; 'I' for Inactive)
REMARK    1  A    between atoms: C_2  and  C_3 
REMARK    2  A    between atoms: C_3  and  C_20 
REMARK    3  A    between atoms: C_3  and  N_14 
REMARK    4  A    between atoms: C_4  and  C_12 
REMARK    5  A    between atoms: C_4  and  C_7 
REMARK    6  A    between atoms: C_4  and  N_13 
REMARK    7  A    between atoms: C_5  and  C_7 
REMARK    8  A    between atoms: C_5  and  S_18 
REMARK    9  A    between atoms: C_10  and  C_11 
REMARK   10  A    between atoms: C_10  and  C_20 
REMARK       I    between atoms: C_11  and  N_15 
REMARK       I    between atoms: C_12  and  N_14 
ROOT
HETATM    1  O           1     -35.851   0.037 -11.125  0.00  0.00    -0.271 OA
HETATM    2  C           1     -35.504  -0.279 -12.238  0.00  0.00     0.249 C 
HETATM    3  N           1     -35.023  -1.539 -12.472  0.00  0.00    -0.345 N 
HETATM    4  H           1     -34.733  -1.805 -13.404  0.00  0.00     0.163 HD
ENDROOT
BRANCH   3   5
HETATM    5  C           1     -34.929  -2.494 -11.384  0.00  0.00     0.186 C 
BRANCH   5   6
HETATM    6  C           1     -33.591  -2.348 -10.703  0.00  0.00     0.196 C 
HETATM    7  O           1     -32.585  -2.919 -11.173  0.00  0.00    -0.646 OA
HETATM    8  O           1     -33.489  -1.656  -9.667  0.00  0.00    -0.646 OA
ENDBRANCH   5   6
BRANCH   5   9
HETATM    9  C           1     -35.069  -3.906 -11.935  0.00  0.00     0.045 C 
BRANCH   9  10
HETATM   10  C           1     -35.338  -4.874 -10.791  0.00  0.00     0.105 C 
BRANCH  10  11
HETATM   11  C           1     -34.391  -6.046 -10.889  0.00  0.00     0.215 C 
HETATM   12  O           1     -34.719  -7.126 -10.459  0.00  0.00    -0.274 OA
HETATM   13  N           1     -33.159  -5.883 -11.465  0.00  0.00    -0.370 N 
HETATM   14  H           1     -32.884  -4.979 -11.826  0.00  0.00     0.159 HD
HETATM   15  H           1     -32.524  -6.668 -11.531  0.00  0.00     0.159 HD
ENDBRANCH  10  11
ENDBRANCH   9  10
ENDBRANCH   5   9
ENDBRANCH   3   5
BRANCH   2  16
HETATM   16  C           1     -35.602   0.713 -13.369  0.00  0.00     0.275 C 
BRANCH  16  17
HETATM   17  C           1     -36.034  -0.006 -14.641  0.00  0.00     0.053 C 
BRANCH  17  18
HETATM   18  C           1     -37.548   0.085 -14.786  0.00  0.00     0.076 C 
BRANCH  18  19
HETATM   19  S           1     -38.075  -0.873 -16.235  0.00  0.00    -0.173 SA
HETATM   20  C           1     -36.411  -1.145 -16.909  0.00  0.00     0.089 C 
ENDBRANCH  18  19
ENDBRANCH  17  18
ENDBRANCH  16  17
BRANCH  16  21
HETATM   21  N           1     -34.262   1.353 -13.589  0.00  0.00    -0.066 N 
HETATM   22  H           1     -34.130   2.129 -12.902  0.00  0.00     0.275 HD
HETATM   23  H           1     -33.511   0.639 -13.457  0.00  0.00     0.275 HD
HETATM   24  H           1     -34.214   1.735 -14.560  0.00  0.00     0.275 HD
ENDBRANCH  16  21
ENDBRANCH   2  16
TORSDOF 10
ENDMDL
MODEL 9
REMARK VINA RESULT:      -5.0     14.772     18.030
REMARK  10 active torsions:
REMARK  status: ('A' for Active; 'I' for Inactive)
REMARK    1  A    between atoms: C_2  and  C_3 
REMARK    2  A    between atoms: C_3  and  C_20 
REMARK    3  A    between atoms: C_3  and  N_14 
REMARK    4  A    between atoms: C_4  and  C_12 
REMARK    5  A    between atoms: C_4  and  C_7 
REMARK    6  A    between atoms: C_4  and  N_13 
REMARK    7  A    between atoms: C_5  and  C_7 
REMARK    8  A    between atoms: C_5  and  S_18 
REMARK    9  A    between atoms: C_10  and  C_11 
REMARK   10  A    between atoms: C_10  and  C_20 
REMARK       I    between atoms: C_11  and  N_15 
REMARK       I    between atoms: C_12  and  N_14 
ROOT
HETATM    1  O           1     -22.789  -5.754  -5.585  0.00  0.00    -0.271 OA
HETATM    2  C           1     -21.583  -5.814  -5.623  0.00  0.00     0.249 C 
HETATM    3  N           1     -20.914  -6.658  -4.778  0.00  0.00    -0.345 N 
HETATM    4  H           1     -19.904  -6.709  -4.809  0.00  0.00     0.163 HD
ENDROOT
BRANCH   3   5
HETATM    5  C           1     -21.653  -7.481  -3.839  0.00  0.00     0.186 C 
BRANCH   5   6
HETATM    6  C           1     -21.533  -6.893  -2.454  0.00  0.00     0.196 C 
HETATM    7  O           1     -20.860  -7.480  -1.582  0.00  0.00    -0.646 OA
HETATM    8  O           1     -22.107  -5.816  -2.181  0.00  0.00    -0.646 OA
ENDBRANCH   5   6
BRANCH   5   9
HETATM    9  C           1     -21.082  -8.892  -3.843  0.00  0.00     0.045 C 
BRANCH   9  10
HETATM   10  C           1     -19.755  -8.901  -4.589  0.00  0.00     0.105 C 
BRANCH  10  11
HETATM   11  C           1     -18.666  -9.409  -3.675  0.00  0.00     0.215 C 
HETATM   12  O           1     -17.531  -9.495  -4.077  0.00  0.00    -0.274 OA
HETATM   13  N           1     -18.967  -9.771  -2.389  0.00  0.00    -0.370 N 
HETATM   14  H           1     -19.918  -9.699  -2.052  0.00  0.00     0.159 HD
HETATM   15  H           1     -18.237 -10.111  -1.776  0.00  0.00     0.159 HD
ENDBRANCH  10  11
ENDBRANCH   9  10
ENDBRANCH   5   9
ENDBRANCH   3   5
BRANCH   2  16
HETATM   16  C           1     -20.814  -4.959  -6.599  0.00  0.00     0.275 C 
BRANCH  16  17
HETATM   17  C           1     -21.769  -3.997  -7.293  0.00  0.00     0.053 C 
BRANCH  17  18
HETATM   18  C           1     -22.016  -4.467  -8.721  0.00  0.00     0.076 C 
BRANCH  18  19
HETATM   19  S           1     -23.658  -3.917  -9.264  0.00  0.00    -0.173 SA
HETATM   20  C           1     -23.680  -4.860 -10.815  0.00  0.00     0.089 C 
ENDBRANCH  18  19
ENDBRANCH  17  18
ENDBRANCH  16  17
BRANCH  16  21
HETATM   21  N           1     -20.159  -5.837  -7.624  0.00  0.00    -0.066 N 
HETATM   22  H           1     -20.684  -6.738  -7.698  0.00  0.00     0.275 HD
HETATM   23  H           1     -20.166  -5.354  -8.550  0.00  0.00     0.275 HD
HETATM   24  H           1     -19.174  -6.031  -7.338  0.00  0.00     0.275 HD
ENDBRANCH  16  21
ENDBRANCH   2  16
TORSDOF 10
ENDMDL
