MODEL 1
REMARK VINA RESULT:      -5.5      0.000      0.000
REMARK  9 active torsions:
REMARK  status: ('A' for Active; 'I' for Inactive)
REMARK       I    between atoms: C_1  and  N_6 
REMARK    1  A    between atoms: C_1  and  C_3 
REMARK    2  A    between atoms: C_3  and  C_4 
REMARK    3  A    between atoms: C_3  and  N_13 
REMARK    4  A    between atoms: C_4  and  C_9 
REMARK    5  A    between atoms: N_6  and  C_15 
REMARK    6  A    between atoms: C_8  and  C_21 
REMARK    7  A    between atoms: C_8  and  C_15 
REMARK    8  A    between atoms: C_11  and  C_15 
REMARK    9  A    between atoms: Se_20  and  C_21 
ROOT
HETATM    1  C           1     -21.451  -4.653  -6.806  0.00  0.00     0.280 C 
ENDROOT
BRANCH   1   2
HETATM    2  C           1     -22.017  -5.650  -5.824  0.00  0.00     0.249 C 
HETATM    3  N           1     -21.175  -6.444  -5.092  0.00  0.00    -0.345 N 
HETATM    4  H           1     -20.174  -6.362  -5.209  0.00  0.00     0.163 HD
HETATM    5  O           1     -23.212  -5.747  -5.684  0.00  0.00    -0.271 OA
BRANCH   3   6
HETATM    6  C           1     -21.718  -7.402  -4.149  0.00  0.00     0.185 C 
BRANCH   6   7
HETATM    7  C           1     -20.925  -8.700  -4.228  0.00  0.00     0.036 C 
BRANCH   7   8
HETATM    8  C           1     -21.849  -9.877  -3.949  0.00  0.00     0.003 C 
BRANCH   8   9
HETATM    9 Se           1     -21.201 -10.859  -2.394  0.00  0.00     0.000 Se
HETATM   10  C           1     -22.583 -10.194  -1.193  0.00  0.00     0.000 C 
ENDBRANCH   8   9
ENDBRANCH   7   8
ENDBRANCH   6   7
BRANCH   6  11
HETATM   11  C           1     -21.624  -6.840  -2.752  0.00  0.00     0.196 C 
HETATM   12  O           1     -20.739  -7.251  -1.972  0.00  0.00    -0.646 OA
HETATM   13  O           1     -22.432  -5.963  -2.375  0.00  0.00    -0.646 OA
ENDBRANCH   6  11
ENDBRANCH   3   6
ENDBRANCH   1   2
BRANCH   1  14
HETATM   14  C           1     -21.551  -5.217  -8.217  0.00  0.00     0.101 C 
BRANCH  14  15
HETATM   15  C           1     -22.682  -4.554  -8.941  0.00  0.00     0.028 A 
HETATM   16  C           1     -22.824  -4.525 -10.308  0.00  0.00     0.114 A 
HETATM   17  N           1     -23.978  -3.826 -10.529  0.00  0.00    -0.360 N 
HETATM   18  C           1     -24.479  -3.466  -9.311  0.00  0.00     0.180 A 
HETATM   19  H           1     -24.401  -3.606 -11.465  0.00  0.00     0.166 HD
HETATM   20  N           1     -23.716  -3.892  -8.331  0.00  0.00    -0.355 N 
ATOM     21  HN          1     -23.861  -3.759  -7.330  1.00  0.00     0.166 HD
ENDBRANCH  14  15
ENDBRANCH   1  14
BRANCH   1  22
HETATM   22  N           1     -20.013  -4.389  -6.475  0.00  0.00    -0.066 N 
HETATM   23  H           1     -19.826  -4.664  -5.484  0.00  0.00     0.275 HD
HETATM   24  H           1     -19.400  -4.947  -7.112  0.00  0.00     0.275 HD
HETATM   25  H           1     -19.809  -3.370  -6.598  0.00  0.00     0.275 HD
ENDBRANCH   1  22
TORSDOF 9
ENDMDL
MODEL 2
REMARK VINA RESULT:      -5.5      2.264      2.838
REMARK  9 active torsions:
REMARK  status: ('A' for Active; 'I' for Inactive)
REMARK       I    between atoms: C_1  and  N_6 
REMARK    1  A    between atoms: C_1  and  C_3 
REMARK    2  A    between atoms: C_3  and  C_4 
REMARK    3  A    between atoms: C_3  and  N_13 
REMARK    4  A    between atoms: C_4  and  C_9 
REMARK    5  A    between atoms: N_6  and  C_15 
REMARK    6  A    between atoms: C_8  and  C_21 
REMARK    7  A    between atoms: C_8  and  C_15 
REMARK    8  A    between atoms: C_11  and  C_15 
REMARK    9  A    between atoms: Se_20  and  C_21 
ROOT
HETATM    1  C           1     -21.850  -4.960  -7.603  0.00  0.00     0.280 C 
ENDROOT
BRANCH   1   2
HETATM    2  C           1     -21.120  -5.428  -6.368  0.00  0.00     0.249 C 
HETATM    3  N           1     -21.271  -6.716  -5.930  0.00  0.00    -0.345 N 
HETATM    4  H           1     -21.872  -7.354  -6.434  0.00  0.00     0.163 HD
HETATM    5  O           1     -20.401  -4.666  -5.767  0.00  0.00    -0.271 OA
BRANCH   3   6
HETATM    6  C           1     -20.569  -7.166  -4.744  0.00  0.00     0.185 C 
BRANCH   6   7
HETATM    7  C           1     -21.579  -7.518  -3.658  0.00  0.00     0.036 C 
BRANCH   7   8
HETATM    8  C           1     -21.756  -6.328  -2.725  0.00  0.00     0.003 C 
BRANCH   8   9
HETATM    9 Se           1     -22.249  -6.962  -0.949  0.00  0.00     0.000 Se
HETATM   10  C           1     -21.841  -8.829  -1.322  0.00  0.00     0.000 C 
ENDBRANCH   8   9
ENDBRANCH   7   8
ENDBRANCH   6   7
BRANCH   6  11
HETATM   11  C           1     -19.747  -8.386  -5.079  0.00  0.00     0.196 C 
HETATM   12  O           1     -19.756  -9.375  -4.315  0.00  0.00    -0.646 OA
HETATM   13  O           1     -19.055  -8.406  -6.120  0.00  0.00    -0.646 OA
ENDBRANCH   6  11
ENDBRANCH   3   6
ENDBRANCH   1   2
BRANCH   1  14
HETATM   14  C           1     -20.965  -3.997  -8.383  0.00  0.00     0.101 C 
BRANCH  14  15
HETATM   15  C           1     -21.300  -4.078  -9.840  0.00  0.00     0.028 A 
HETATM   16  C           1     -20.479  -3.646 -10.855  0.00  0.00     0.114 A 
HETATM   17  N           1     -21.172  -3.908 -12.005  0.00  0.00    -0.360 N 
HETATM   18  C           1     -22.361  -4.475 -11.647  0.00  0.00     0.180 A 
HETATM   19  H           1     -20.848  -3.708 -12.984  0.00  0.00     0.166 HD
HETATM   20  N           1     -22.467  -4.591 -10.344  0.00  0.00    -0.355 N 
ATOM     21  HN          1     -23.251  -4.978  -9.817  1.00  0.00     0.166 HD
ENDBRANCH  14  15
ENDBRANCH   1  14
BRANCH   1  22
HETATM   22  N           1     -23.115  -4.262  -7.201  0.00  0.00    -0.066 N 
HETATM   23  H           1     -23.797  -4.292  -7.991  0.00  0.00     0.275 HD
HETATM   24  H           1     -23.526  -4.740  -6.367  0.00  0.00     0.275 HD
HETATM   25  H           1     -22.902  -3.266  -6.963  0.00  0.00     0.275 HD
ENDBRANCH   1  22
TORSDOF 9
ENDMDL
MODEL 3
REMARK VINA RESULT:      -5.3     13.909     16.077
REMARK  9 active torsions:
REMARK  status: ('A' for Active; 'I' for Inactive)
REMARK       I    between atoms: C_1  and  N_6 
REMARK    1  A    between atoms: C_1  and  C_3 
REMARK    2  A    between atoms: C_3  and  C_4 
REMARK    3  A    between atoms: C_3  and  N_13 
REMARK    4  A    between atoms: C_4  and  C_9 
REMARK    5  A    between atoms: N_6  and  C_15 
REMARK    6  A    between atoms: C_8  and  C_21 
REMARK    7  A    between atoms: C_8  and  C_15 
REMARK    8  A    between atoms: C_11  and  C_15 
REMARK    9  A    between atoms: Se_20  and  C_21 
ROOT
HETATM    1  C           1     -33.381  -2.812 -11.454  0.00  0.00     0.280 C 
ENDROOT
BRANCH   1   2
HETATM    2  C           1     -34.451  -2.257 -12.363  0.00  0.00     0.249 C 
HETATM    3  N           1     -35.229  -1.210 -11.946  0.00  0.00    -0.345 N 
HETATM    4  H           1     -35.087  -0.809 -11.028  0.00  0.00     0.163 HD
HETATM    5  O           1     -34.620  -2.735 -13.459  0.00  0.00    -0.271 OA
BRANCH   3   6
HETATM    6  C           1     -36.256  -0.676 -12.819  0.00  0.00     0.185 C 
BRANCH   6   7
HETATM    7  C           1     -37.384  -0.092 -11.978  0.00  0.00     0.036 C 
BRANCH   7   8
HETATM    8  C           1     -37.176  -0.468 -10.518  0.00  0.00     0.003 C 
BRANCH   8   9
HETATM    9 Se           1     -37.661   1.040  -9.382  0.00  0.00     0.000 Se
HETATM   10  C           1     -36.533   0.492  -7.891  0.00  0.00     0.000 C 
ENDBRANCH   8   9
ENDBRANCH   7   8
ENDBRANCH   6   7
BRANCH   6  11
HETATM   11  C           1     -35.664   0.405 -13.688  0.00  0.00     0.196 C 
HETATM   12  O           1     -34.709   1.093 -13.266  0.00  0.00    -0.646 OA
HETATM   13  O           1     -36.130   0.615 -14.829  0.00  0.00    -0.646 OA
ENDBRANCH   6  11
ENDBRANCH   3   6
ENDBRANCH   1   2
BRANCH   1  14
HETATM   14  C           1     -32.786  -4.067 -12.078  0.00  0.00     0.101 C 
BRANCH  14  15
HETATM   15  C           1     -33.680  -5.236 -11.800  0.00  0.00     0.028 A 
HETATM   16  C           1     -33.480  -6.151 -10.794  0.00  0.00     0.114 A 
HETATM   17  N           1     -34.520  -7.032 -10.906  0.00  0.00    -0.360 N 
HETATM   18  C           1     -35.293  -6.624 -11.955  0.00  0.00     0.180 A 
HETATM   19  H           1     -34.692  -7.869 -10.296  0.00  0.00     0.166 HD
HETATM   20  N           1     -34.809  -5.540 -12.516  0.00  0.00    -0.355 N 
ATOM     21  HN          1     -35.192  -5.032 -13.314  1.00  0.00     0.166 HD
ENDBRANCH  14  15
ENDBRANCH   1  14
BRANCH   1  22
HETATM   22  N           1     -33.984  -3.152 -10.124  0.00  0.00    -0.066 N 
HETATM   23  H           1     -33.286  -3.673  -9.547  0.00  0.00     0.275 HD
HETATM   24  H           1     -34.256  -2.272  -9.630  0.00  0.00     0.275 HD
HETATM   25  H           1     -34.831  -3.748 -10.268  0.00  0.00     0.275 HD
ENDBRANCH   1  22
TORSDOF 9
ENDMDL
MODEL 4
REMARK VINA RESULT:      -5.2      2.412      2.929
REMARK  9 active torsions:
REMARK  status: ('A' for Active; 'I' for Inactive)
REMARK       I    between atoms: C_1  and  N_6 
REMARK    1  A    between atoms: C_1  and  C_3 
REMARK    2  A    between atoms: C_3  and  C_4 
REMARK    3  A    between atoms: C_3  and  N_13 
REMARK    4  A    between atoms: C_4  and  C_9 
REMARK    5  A    between atoms: N_6  and  C_15 
REMARK    6  A    between atoms: C_8  and  C_21 
REMARK    7  A    between atoms: C_8  and  C_15 
REMARK    8  A    between atoms: C_11  and  C_15 
REMARK    9  A    between atoms: Se_20  and  C_21 
ROOT
HETATM    1  C           1     -21.878  -6.245  -6.046  0.00  0.00     0.280 C 
ENDROOT
BRANCH   1   2
HETATM    2  C           1     -20.688  -7.112  -5.717  0.00  0.00     0.249 C 
HETATM    3  N           1     -20.739  -7.971  -4.652  0.00  0.00    -0.345 N 
HETATM    4  H           1     -21.575  -8.024  -4.085  0.00  0.00     0.163 HD
HETATM    5  O           1     -19.690  -7.050  -6.394  0.00  0.00    -0.271 OA
BRANCH   3   6
HETATM    6  C           1     -19.596  -8.805  -4.336  0.00  0.00     0.185 C 
BRANCH   6   7
HETATM    7  C           1     -19.436  -8.897  -2.824  0.00  0.00     0.036 C 
BRANCH   7   8
HETATM    8  C           1     -20.497  -8.038  -2.148  0.00  0.00     0.003 C 
BRANCH   8   9
HETATM    9 Se           1     -21.812  -9.189  -1.284  0.00  0.00     0.000 Se
HETATM   10  C           1     -22.542  -7.781  -0.152  0.00  0.00     0.000 C 
ENDBRANCH   8   9
ENDBRANCH   7   8
ENDBRANCH   6   7
BRANCH   6  11
HETATM   11  C           1     -19.809 -10.186  -4.904  0.00  0.00     0.196 C 
HETATM   12  O           1     -19.547 -10.415  -6.105  0.00  0.00    -0.646 OA
HETATM   13  O           1     -20.249 -11.100  -4.175  0.00  0.00    -0.646 OA
ENDBRANCH   6  11
ENDBRANCH   3   6
ENDBRANCH   1   2
BRANCH   1  14
HETATM   14  C           1     -21.399  -4.859  -6.457  0.00  0.00     0.101 C 
BRANCH  14  15
HETATM   15  C           1     -22.149  -4.411  -7.673  0.00  0.00     0.028 A 
HETATM   16  C           1     -21.576  -4.171  -8.900  0.00  0.00     0.114 A 
HETATM   17  N           1     -22.613  -3.787  -9.705  0.00  0.00    -0.360 N 
HETATM   18  C           1     -23.750  -3.809  -8.949  0.00  0.00     0.180 A 
HETATM   19  H           1     -22.546  -3.524 -10.719  0.00  0.00     0.166 HD
HETATM   20  N           1     -23.500  -4.182  -7.714  0.00  0.00    -0.355 N 
ATOM     21  HN          1     -24.168  -4.280  -6.950  1.00  0.00     0.166 HD
ENDBRANCH  14  15
ENDBRANCH   1  14
BRANCH   1  22
HETATM   22  N           1     -22.761  -6.130  -4.839  0.00  0.00    -0.066 N 
HETATM   23  H           1     -23.392  -6.961  -4.788  0.00  0.00     0.275 HD
HETATM   24  H           1     -22.169  -6.090  -3.978  0.00  0.00     0.275 HD
HETATM   25  H           1     -23.335  -5.260  -4.909  0.00  0.00     0.275 HD
ENDBRANCH   1  22
TORSDOF 9
ENDMDL
MODEL 5
REMARK VINA RESULT:      -5.1     12.394     14.643
REMARK  9 active torsions:
REMARK  status: ('A' for Active; 'I' for Inactive)
REMARK       I    between atoms: C_1  and  N_6 
REMARK    1  A    between atoms: C_1  and  C_3 
REMARK    2  A    between atoms: C_3  and  C_4 
REMARK    3  A    between atoms: C_3  and  N_13 
REMARK    4  A    between atoms: C_4  and  C_9 
REMARK    5  A    between atoms: N_6  and  C_15 
REMARK    6  A    between atoms: C_8  and  C_21 
REMARK    7  A    between atoms: C_8  and  C_15 
REMARK    8  A    between atoms: C_11  and  C_15 
REMARK    9  A    between atoms: Se_20  and  C_21 
ROOT
HETATM    1  C           1     -30.794  -4.477 -17.009  0.00  0.00     0.280 C 
ENDROOT
BRANCH   1   2
HETATM    2  C           1     -29.760  -5.519 -17.359  0.00  0.00     0.249 C 
HETATM    3  N           1     -28.457  -5.346 -16.978  0.00  0.00    -0.345 N 
HETATM    4  H           1     -28.187  -4.519 -16.462  0.00  0.00     0.163 HD
HETATM    5  O           1     -30.083  -6.507 -17.974  0.00  0.00    -0.271 OA
BRANCH   3   6
HETATM    6  C           1     -27.463  -6.347 -17.314  0.00  0.00     0.185 C 
BRANCH   6   7
HETATM    7  C           1     -26.689  -5.901 -18.548  0.00  0.00     0.036 C 
BRANCH   7   8
HETATM    8  C           1     -27.056  -6.793 -19.727  0.00  0.00     0.003 C 
BRANCH   8   9
HETATM    9 Se           1     -25.440  -7.277 -20.704  0.00  0.00     0.000 Se
HETATM   10  C           1     -24.263  -7.123 -19.159  0.00  0.00     0.000 C 
ENDBRANCH   8   9
ENDBRANCH   7   8
ENDBRANCH   6   7
BRANCH   6  11
HETATM   11  C           1     -26.510  -6.516 -16.157  0.00  0.00     0.196 C 
HETATM   12  O           1     -26.683  -7.443 -15.336  0.00  0.00    -0.646 OA
HETATM   13  O           1     -25.549  -5.729 -16.020  0.00  0.00    -0.646 OA
ENDBRANCH   6  11
ENDBRANCH   3   6
ENDBRANCH   1   2
BRANCH   1  14
HETATM   14  C           1     -32.188  -5.077 -17.147  0.00  0.00     0.101 C 
BRANCH  14  15
HETATM   15  C           1     -33.211  -4.067 -16.729  0.00  0.00     0.028 A 
HETATM   16  C           1     -33.861  -4.069 -15.519  0.00  0.00     0.114 A 
HETATM   17  N           1     -34.694  -2.986 -15.562  0.00  0.00    -0.360 N 
HETATM   18  C           1     -34.519  -2.382 -16.775  0.00  0.00     0.180 A 
HETATM   19  H           1     -35.349  -2.675 -14.802  0.00  0.00     0.166 HD
HETATM   20  N           1     -33.627  -3.014 -17.503  0.00  0.00    -0.355 N 
ATOM     21  HN          1     -33.312  -2.774 -18.443  1.00  0.00     0.166 HD
ENDBRANCH  14  15
ENDBRANCH   1  14
BRANCH   1  22
HETATM   22  N           1     -30.659  -3.308 -17.938  0.00  0.00    -0.066 N 
HETATM   23  H           1     -30.242  -3.626 -18.841  0.00  0.00     0.275 HD
HETATM   24  H           1     -31.602  -2.895 -18.117  0.00  0.00     0.275 HD
HETATM   25  H           1     -30.039  -2.587 -17.502  0.00  0.00     0.275 HD
ENDBRANCH   1  22
TORSDOF 9
ENDMDL
MODEL 6
REMARK VINA RESULT:      -5.0     14.414     16.194
REMARK  9 active torsions:
REMARK  status: ('A' for Active; 'I' for Inactive)
REMARK       I    between atoms: C_1  and  N_6 
REMARK    1  A    between atoms: C_1  and  C_3 
REMARK    2  A    between atoms: C_3  and  C_4 
REMARK    3  A    between atoms: C_3  and  N_13 
REMARK    4  A    between atoms: C_4  and  C_9 
REMARK    5  A    between atoms: N_6  and  C_15 
REMARK    6  A    between atoms: C_8  and  C_21 
REMARK    7  A    between atoms: C_8  and  C_15 
REMARK    8  A    between atoms: C_11  and  C_15 
REMARK    9  A    between atoms: Se_20  and  C_21 
ROOT
HETATM    1  C           1     -33.580  -4.024 -12.922  0.00  0.00     0.280 C 
ENDROOT
BRANCH   1   2
HETATM    2  C           1     -33.940  -2.766 -12.169  0.00  0.00     0.249 C 
HETATM    3  N           1     -35.043  -2.041 -12.535  0.00  0.00    -0.345 N 
HETATM    4  H           1     -35.616  -2.349 -13.309  0.00  0.00     0.163 HD
HETATM    5  O           1     -33.256  -2.399 -11.244  0.00  0.00    -0.271 OA
BRANCH   3   6
HETATM    6  C           1     -35.389  -0.833 -11.812  0.00  0.00     0.185 C 
BRANCH   6   7
HETATM    7  C           1     -36.161   0.106 -12.731  0.00  0.00     0.036 C 
BRANCH   7   8
HETATM    8  C           1     -35.227   0.644 -13.806  0.00  0.00     0.003 C 
BRANCH   8   9
HETATM    9 Se           1     -35.955   0.232 -15.567  0.00  0.00     0.000 Se
HETATM   10  C           1     -37.794   0.059 -14.947  0.00  0.00     0.000 C 
ENDBRANCH   8   9
ENDBRANCH   7   8
ENDBRANCH   6   7
BRANCH   6  11
HETATM   11  C           1     -36.246  -1.188 -10.622  0.00  0.00     0.196 C 
HETATM   12  O           1     -35.903  -0.828  -9.476  0.00  0.00    -0.646 OA
HETATM   13  O           1     -37.298  -1.843 -10.783  0.00  0.00    -0.646 OA
ENDBRANCH   6  11
ENDBRANCH   3   6
ENDBRANCH   1   2
BRANCH   1  14
HETATM   14  C           1     -34.570  -4.236 -14.060  0.00  0.00     0.101 C 
BRANCH  14  15
HETATM   15  C           1     -33.892  -3.970 -15.368  0.00  0.00     0.028 A 
HETATM   16  C           1     -34.405  -3.176 -16.367  0.00  0.00     0.114 A 
HETATM   17  N           1     -33.471  -3.213 -17.364  0.00  0.00    -0.360 N 
HETATM   18  C           1     -32.449  -4.013 -16.939  0.00  0.00     0.180 A 
HETATM   19  H           1     -33.529  -2.718 -18.288  0.00  0.00     0.166 HD
HETATM   20  N           1     -32.676  -4.486 -15.734  0.00  0.00    -0.355 N 
ATOM     21  HN          1     -32.076  -5.104 -15.188  1.00  0.00     0.166 HD
ENDBRANCH  14  15
ENDBRANCH   1  14
BRANCH   1  22
HETATM   22  N           1     -33.633  -5.196 -11.989  0.00  0.00    -0.066 N 
HETATM   23  H           1     -34.203  -4.948 -11.148  0.00  0.00     0.275 HD
HETATM   24  H           1     -34.071  -6.010 -12.477  0.00  0.00     0.275 HD
HETATM   25  H           1     -32.663  -5.448 -11.691  0.00  0.00     0.275 HD
ENDBRANCH   1  22
TORSDOF 9
ENDMDL
MODEL 7
REMARK VINA RESULT:      -4.9      2.960      3.534
REMARK  9 active torsions:
REMARK  status: ('A' for Active; 'I' for Inactive)
REMARK       I    between atoms: C_1  and  N_6 
REMARK    1  A    between atoms: C_1  and  C_3 
REMARK    2  A    between atoms: C_3  and  C_4 
REMARK    3  A    between atoms: C_3  and  N_13 
REMARK    4  A    between atoms: C_4  and  C_9 
REMARK    5  A    between atoms: N_6  and  C_15 
REMARK    6  A    between atoms: C_8  and  C_21 
REMARK    7  A    between atoms: C_8  and  C_15 
REMARK    8  A    between atoms: C_11  and  C_15 
REMARK    9  A    between atoms: Se_20  and  C_21 
ROOT
HETATM    1  C           1     -21.573  -6.178  -5.554  0.00  0.00     0.280 C 
ENDROOT
BRANCH   1   2
HETATM    2  C           1     -20.452  -7.175  -5.711  0.00  0.00     0.249 C 
HETATM    3  N           1     -20.300  -8.186  -4.800  0.00  0.00    -0.345 N 
HETATM    4  H           1     -20.940  -8.263  -4.020  0.00  0.00     0.163 HD
HETATM    5  O           1     -19.688  -7.083  -6.642  0.00  0.00    -0.271 OA
BRANCH   3   6
HETATM    6  C           1     -19.223  -9.144  -4.951  0.00  0.00     0.185 C 
BRANCH   6   7
HETATM    7  C           1     -18.477  -9.282  -3.630  0.00  0.00     0.036 C 
BRANCH   7   8
HETATM    8  C           1     -17.044  -9.723  -3.900  0.00  0.00     0.003 C 
BRANCH   8   9
HETATM    9 Se           1     -16.351 -10.671  -2.344  0.00  0.00     0.000 Se
HETATM   10  C           1     -18.054 -11.496  -1.882  0.00  0.00     0.000 C 
ENDBRANCH   8   9
ENDBRANCH   7   8
ENDBRANCH   6   7
BRANCH   6  11
HETATM   11  C           1     -19.794 -10.482  -5.348  0.00  0.00     0.196 C 
HETATM   12  O           1     -19.506 -10.979  -6.459  0.00  0.00    -0.646 OA
HETATM   13  O           1     -20.555 -11.093  -4.568  0.00  0.00    -0.646 OA
ENDBRANCH   6  11
ENDBRANCH   3   6
ENDBRANCH   1   2
BRANCH   1  14
HETATM   14  C           1     -21.153  -4.842  -6.151  0.00  0.00     0.101 C 
BRANCH  14  15
HETATM   15  C           1     -21.960  -4.568  -7.382  0.00  0.00     0.028 A 
HETATM   16  C           1     -21.454  -4.551  -8.660  0.00  0.00     0.114 A 
HETATM   17  N           1     -22.524  -4.265  -9.461  0.00  0.00    -0.360 N 
HETATM   18  C           1     -23.615  -4.122  -8.652  0.00  0.00     0.180 A 
HETATM   19  H           1     -22.510  -4.171 -10.507  0.00  0.00     0.166 HD
HETATM   20  N           1     -23.304  -4.300  -7.389  0.00  0.00    -0.355 N 
ATOM     21  HN          1     -23.929  -4.249  -6.584  1.00  0.00     0.166 HD
ENDBRANCH  14  15
ENDBRANCH   1  14
BRANCH   1  22
HETATM   22  N           1     -21.881  -5.999  -4.097  0.00  0.00    -0.066 N 
HETATM   23  H           1     -21.036  -6.236  -3.530  0.00  0.00     0.275 HD
HETATM   24  H           1     -22.152  -5.005  -3.918  0.00  0.00     0.275 HD
HETATM   25  H           1     -22.670  -6.630  -3.828  0.00  0.00     0.275 HD
ENDBRANCH   1  22
TORSDOF 9
ENDMDL
MODEL 8
REMARK VINA RESULT:      -4.9      3.080      4.361
REMARK  9 active torsions:
REMARK  status: ('A' for Active; 'I' for Inactive)
REMARK       I    between atoms: C_1  and  N_6 
REMARK    1  A    between atoms: C_1  and  C_3 
REMARK    2  A    between atoms: C_3  and  C_4 
REMARK    3  A    between atoms: C_3  and  N_13 
REMARK    4  A    between atoms: C_4  and  C_9 
REMARK    5  A    between atoms: N_6  and  C_15 
REMARK    6  A    between atoms: C_8  and  C_21 
REMARK    7  A    between atoms: C_8  and  C_15 
REMARK    8  A    between atoms: C_11  and  C_15 
REMARK    9  A    between atoms: Se_20  and  C_21 
ROOT
HETATM    1  C           1     -20.034  -8.288  -4.054  0.00  0.00     0.280 C 
ENDROOT
BRANCH   1   2
HETATM    2  C           1     -21.073  -8.799  -3.087  0.00  0.00     0.249 C 
HETATM    3  N           1     -20.975  -8.499  -1.754  0.00  0.00    -0.345 N 
HETATM    4  H           1     -20.206  -7.934  -1.419  0.00  0.00     0.163 HD
HETATM    5  O           1     -21.992  -9.473  -3.487  0.00  0.00    -0.271 OA
BRANCH   3   6
HETATM    6  C           1     -21.973  -8.990  -0.824  0.00  0.00     0.185 C 
BRANCH   6   7
HETATM    7  C           1     -21.291  -9.794   0.276  0.00  0.00     0.036 C 
BRANCH   7   8
HETATM    8  C           1     -21.820 -11.221   0.264  0.00  0.00     0.003 C 
BRANCH   8   9
HETATM    9 Se           1     -23.490 -11.288  -0.740  0.00  0.00     0.000 Se
HETATM   10  C           1     -22.832 -12.552  -2.069  0.00  0.00     0.000 C 
ENDBRANCH   8   9
ENDBRANCH   7   8
ENDBRANCH   6   7
BRANCH   6  11
HETATM   11  C           1     -22.707  -7.823  -0.213  0.00  0.00     0.196 C 
HETATM   12  O           1     -22.726  -6.720  -0.800  0.00  0.00    -0.646 OA
HETATM   13  O           1     -23.295  -7.959   0.882  0.00  0.00    -0.646 OA
ENDBRANCH   6  11
ENDBRANCH   3   6
ENDBRANCH   1   2
BRANCH   1  14
HETATM   14  C           1     -20.675  -8.069  -5.419  0.00  0.00     0.101 C 
BRANCH  14  15
HETATM   15  C           1     -20.400  -6.672  -5.882  0.00  0.00     0.028 A 
HETATM   16  C           1     -20.731  -5.537  -5.181  0.00  0.00     0.114 A 
HETATM   17  N           1     -20.303  -4.500  -5.962  0.00  0.00    -0.360 N 
HETATM   18  C           1     -19.741  -5.038  -7.085  0.00  0.00     0.180 A 
HETATM   19  H           1     -20.391  -3.478  -5.740  0.00  0.00     0.166 HD
HETATM   20  N           1     -19.786  -6.350  -7.065  0.00  0.00    -0.355 N 
ATOM     21  HN          1     -19.439  -6.993  -7.777  1.00  0.00     0.166 HD
ENDBRANCH  14  15
ENDBRANCH   1  14
BRANCH   1  22
HETATM   22  N           1     -18.929  -9.293  -4.177  0.00  0.00    -0.066 N 
HETATM   23  H           1     -18.931  -9.919  -3.341  0.00  0.00     0.275 HD
HETATM   24  H           1     -19.072  -9.865  -5.040  0.00  0.00     0.275 HD
HETATM   25  H           1     -18.011  -8.795  -4.237  0.00  0.00     0.275 HD
ENDBRANCH   1  22
TORSDOF 9
ENDMDL
MODEL 9
REMARK VINA RESULT:      -4.7      3.628      7.070
REMARK  9 active torsions:
REMARK  status: ('A' for Active; 'I' for Inactive)
REMARK       I    between atoms: C_1  and  N_6 
REMARK    1  A    between atoms: C_1  and  C_3 
REMARK    2  A    between atoms: C_3  and  C_4 
REMARK    3  A    between atoms: C_3  and  N_13 
REMARK    4  A    between atoms: C_4  and  C_9 
REMARK    5  A    between atoms: N_6  and  C_15 
REMARK    6  A    between atoms: C_8  and  C_21 
REMARK    7  A    between atoms: C_8  and  C_15 
REMARK    8  A    between atoms: C_11  and  C_15 
REMARK    9  A    between atoms: Se_20  and  C_21 
ROOT
HETATM    1  C           1     -21.268  -8.452  -4.566  0.00  0.00     0.280 C 
ENDROOT
BRANCH   1   2
HETATM    2  C           1     -20.612  -7.645  -5.660  0.00  0.00     0.249 C 
HETATM    3  N           1     -21.265  -6.571  -6.203  0.00  0.00    -0.345 N 
HETATM    4  H           1     -22.187  -6.319  -5.871  0.00  0.00     0.163 HD
HETATM    5  O           1     -19.512  -7.946  -6.055  0.00  0.00    -0.271 OA
BRANCH   3   6
HETATM    6  C           1     -20.636  -5.795  -7.254  0.00  0.00     0.185 C 
BRANCH   6   7
HETATM    7  C           1     -21.703  -5.046  -8.042  0.00  0.00     0.036 C 
BRANCH   7   8
HETATM    8  C           1     -21.151  -4.666  -9.409  0.00  0.00     0.003 C 
BRANCH   8   9
HETATM    9 Se           1     -22.480  -3.620 -10.379  0.00  0.00     0.000 Se
HETATM   10  C           1     -23.902  -3.916  -9.080  0.00  0.00     0.000 C 
ENDBRANCH   8   9
ENDBRANCH   7   8
ENDBRANCH   6   7
BRANCH   6  11
HETATM   11  C           1     -19.676  -4.806  -6.641  0.00  0.00     0.196 C 
HETATM   12  O           1     -19.903  -4.336  -5.505  0.00  0.00    -0.646 OA
HETATM   13  O           1     -18.654  -4.454  -7.270  0.00  0.00    -0.646 OA
ENDBRANCH   6  11
ENDBRANCH   3   6
ENDBRANCH   1   2
BRANCH   1  14
HETATM   14  C           1     -20.429  -8.365  -3.298  0.00  0.00     0.101 C 
BRANCH  14  15
HETATM   15  C           1     -21.306  -7.996  -2.142  0.00  0.00     0.028 A 
HETATM   16  C           1     -21.863  -6.754  -1.950  0.00  0.00     0.114 A 
HETATM   17  N           1     -22.577  -6.862  -0.789  0.00  0.00    -0.360 N 
HETATM   18  C           1     -22.426  -8.140  -0.332  0.00  0.00     0.180 A 
HETATM   19  H           1     -23.137  -6.101  -0.332  0.00  0.00     0.166 HD
HETATM   20  N           1     -21.662  -8.850  -1.130  0.00  0.00    -0.355 N 
ATOM     21  HN          1     -21.390  -9.827  -1.021  1.00  0.00     0.166 HD
ENDBRANCH  14  15
ENDBRANCH   1  14
BRANCH   1  22
HETATM   22  N           1     -21.374  -9.884  -4.997  0.00  0.00    -0.066 N 
HETATM   23  H           1     -22.365 -10.202  -4.912  0.00  0.00     0.275 HD
HETATM   24  H           1     -21.065  -9.972  -5.992  0.00  0.00     0.275 HD
HETATM   25  H           1     -20.763 -10.477  -4.389  0.00  0.00     0.275 HD
ENDBRANCH   1  22
TORSDOF 9
ENDMDL
