MODEL 1
REMARK VINA RESULT:      -6.1      0.000      0.000
REMARK  6 active torsions:
REMARK  status: ('A' for Active; 'I' for Inactive)
REMARK    1  A    between atoms: N_2  and  C_8 
REMARK       I    between atoms: N_2  and  C_3 
REMARK    2  A    between atoms: C_3  and  C_4 
REMARK    3  A    between atoms: C_4  and  N_6 
REMARK    4  A    between atoms: C_8  and  C_12 
REMARK    5  A    between atoms: C_8  and  C_9 
REMARK    6  A    between atoms: C_11  and  C_12 
ROOT
HETATM    1  N           1     -26.933  -6.623 -18.187  0.00  0.00    -0.344 N 
HETATM    2  C           1     -25.720  -6.779 -18.802  0.00  0.00     0.248 C 
HETATM    3  O           1     -24.713  -6.394 -18.257  0.00  0.00    -0.271 OA
HETATM    4  H           1     -27.777  -6.945 -18.644  0.00  0.00     0.163 HD
ENDROOT
BRANCH   1   5
HETATM    5  C           1     -27.009  -5.995 -16.883  0.00  0.00     0.189 C 
BRANCH   5   6
HETATM    6  C           1     -28.365  -5.319 -16.724  0.00  0.00     0.014 C 
HETATM    7  C           1     -28.190  -3.809 -16.804  0.00  0.00     0.012 C 
BRANCH   6   8
HETATM    8  C           1     -29.295  -5.783 -17.836  0.00  0.00     0.002 C 
HETATM    9  C           1     -30.576  -6.341 -17.230  0.00  0.00     0.005 C 
ENDBRANCH   6   8
ENDBRANCH   5   6
BRANCH   5  10
HETATM   10  C           1     -26.841  -7.044 -15.810  0.00  0.00     0.197 C 
HETATM   11  O           1     -27.845  -7.511 -15.230  0.00  0.00    -0.646 OA
HETATM   12  O           1     -25.698  -7.444 -15.503  0.00  0.00    -0.646 OA
ENDBRANCH   5  10
ENDBRANCH   1   5
BRANCH   2  13
HETATM   13  C           1     -25.641  -7.432 -20.160  0.00  0.00     0.270 C 
HETATM   14  C           1     -25.121  -6.426 -21.178  0.00  0.00     0.050 C 
BRANCH  13  15
HETATM   15  N           1     -27.006  -7.899 -20.570  0.00  0.00    -0.067 N 
HETATM   16  H           1     -27.570  -7.082 -20.899  0.00  0.00     0.275 HD
HETATM   17  H           1     -26.918  -8.596 -21.343  0.00  0.00     0.275 HD
HETATM   18  H           1     -27.483  -8.342 -19.751  0.00  0.00     0.275 HD
ENDBRANCH  13  15
ENDBRANCH   2  13
TORSDOF 6
ENDMDL
MODEL 2
REMARK VINA RESULT:      -5.6      2.230      2.762
REMARK  6 active torsions:
REMARK  status: ('A' for Active; 'I' for Inactive)
REMARK    1  A    between atoms: N_2  and  C_8 
REMARK       I    between atoms: N_2  and  C_3 
REMARK    2  A    between atoms: C_3  and  C_4 
REMARK    3  A    between atoms: C_4  and  N_6 
REMARK    4  A    between atoms: C_8  and  C_12 
REMARK    5  A    between atoms: C_8  and  C_9 
REMARK    6  A    between atoms: C_11  and  C_12 
ROOT
HETATM    1  N           1     -26.798  -6.272 -17.997  0.00  0.00    -0.344 N 
HETATM    2  C           1     -26.236  -6.546 -19.215  0.00  0.00     0.248 C 
HETATM    3  O           1     -26.923  -6.554 -20.208  0.00  0.00    -0.271 OA
HETATM    4  H           1     -26.223  -6.265 -17.164  0.00  0.00     0.163 HD
ENDROOT
BRANCH   1   5
HETATM    5  C           1     -28.218  -5.993 -17.899  0.00  0.00     0.189 C 
BRANCH   5   6
HETATM    6  C           1     -28.843  -6.905 -16.852  0.00  0.00     0.014 C 
HETATM    7  C           1     -28.866  -6.190 -15.507  0.00  0.00     0.012 C 
BRANCH   6   8
HETATM    8  C           1     -30.266  -7.252 -17.267  0.00  0.00     0.002 C 
HETATM    9  C           1     -30.267  -7.773 -18.698  0.00  0.00     0.005 C 
ENDBRANCH   6   8
ENDBRANCH   5   6
BRANCH   5  10
HETATM   10  C           1     -28.420  -4.553 -17.498  0.00  0.00     0.197 C 
HETATM   11  O           1     -27.600  -3.995 -16.737  0.00  0.00    -0.646 OA
HETATM   12  O           1     -29.407  -3.918 -17.926  0.00  0.00    -0.646 OA
ENDBRANCH   5  10
ENDBRANCH   1   5
BRANCH   2  13
HETATM   13  C           1     -24.759  -6.836 -19.316  0.00  0.00     0.270 C 
HETATM   14  C           1     -24.503  -7.764 -20.496  0.00  0.00     0.050 C 
BRANCH  13  15
HETATM   15  N           1     -24.292  -7.495 -18.051  0.00  0.00    -0.067 N 
HETATM   16  H           1     -24.761  -7.047 -17.231  0.00  0.00     0.275 HD
HETATM   17  H           1     -24.533  -8.511 -18.078  0.00  0.00     0.275 HD
HETATM   18  H           1     -23.256  -7.383 -17.963  0.00  0.00     0.275 HD
ENDBRANCH  13  15
ENDBRANCH   2  13
TORSDOF 6
ENDMDL
MODEL 3
REMARK VINA RESULT:      -5.3      1.785      4.267
REMARK  6 active torsions:
REMARK  status: ('A' for Active; 'I' for Inactive)
REMARK    1  A    between atoms: N_2  and  C_8 
REMARK       I    between atoms: N_2  and  C_3 
REMARK    2  A    between atoms: C_3  and  C_4 
REMARK    3  A    between atoms: C_4  and  N_6 
REMARK    4  A    between atoms: C_8  and  C_12 
REMARK    5  A    between atoms: C_8  and  C_9 
REMARK    6  A    between atoms: C_11  and  C_12 
ROOT
HETATM    1  N           1     -27.592  -5.678 -17.530  0.00  0.00    -0.344 N 
HETATM    2  C           1     -28.901  -6.067 -17.625  0.00  0.00     0.248 C 
HETATM    3  O           1     -29.176  -7.237 -17.746  0.00  0.00    -0.271 OA
HETATM    4  H           1     -27.361  -4.697 -17.429  0.00  0.00     0.163 HD
ENDROOT
BRANCH   1   5
HETATM    5  C           1     -26.535  -6.669 -17.576  0.00  0.00     0.189 C 
BRANCH   5   6
HETATM    6  C           1     -25.613  -6.374 -18.752  0.00  0.00     0.014 C 
HETATM    7  C           1     -24.355  -7.224 -18.634  0.00  0.00     0.012 C 
BRANCH   6   8
HETATM    8  C           1     -26.331  -6.706 -20.053  0.00  0.00     0.002 C 
HETATM    9  C           1     -25.448  -7.608 -20.906  0.00  0.00     0.005 C 
ENDBRANCH   6   8
ENDBRANCH   5   6
BRANCH   5  10
HETATM   10  C           1     -25.744  -6.619 -16.291  0.00  0.00     0.197 C 
HETATM   11  O           1     -25.661  -7.636 -15.569  0.00  0.00    -0.646 OA
HETATM   12  O           1     -25.174  -5.561 -15.950  0.00  0.00    -0.646 OA
ENDBRANCH   5  10
ENDBRANCH   1   5
BRANCH   2  13
HETATM   13  C           1     -30.000  -5.034 -17.578  0.00  0.00     0.270 C 
HETATM   14  C           1     -29.388  -3.640 -17.571  0.00  0.00     0.050 C 
BRANCH  13  15
HETATM   15  N           1     -30.815  -5.229 -16.333  0.00  0.00    -0.067 N 
HETATM   16  H           1     -31.790  -5.503 -16.594  0.00  0.00     0.275 HD
HETATM   17  H           1     -30.386  -5.982 -15.750  0.00  0.00     0.275 HD
HETATM   18  H           1     -30.839  -4.336 -15.790  0.00  0.00     0.275 HD
ENDBRANCH  13  15
ENDBRANCH   2  13
TORSDOF 6
ENDMDL
MODEL 4
REMARK VINA RESULT:      -5.1      9.287     11.096
REMARK  6 active torsions:
REMARK  status: ('A' for Active; 'I' for Inactive)
REMARK    1  A    between atoms: N_2  and  C_8 
REMARK       I    between atoms: N_2  and  C_3 
REMARK    2  A    between atoms: C_3  and  C_4 
REMARK    3  A    between atoms: C_4  and  N_6 
REMARK    4  A    between atoms: C_8  and  C_12 
REMARK    5  A    between atoms: C_8  and  C_9 
REMARK    6  A    between atoms: C_11  and  C_12 
ROOT
HETATM    1  N           1     -21.974  -4.293  -8.682  0.00  0.00    -0.344 N 
HETATM    2  C           1     -21.353  -5.080  -7.749  0.00  0.00     0.248 C 
HETATM    3  O           1     -20.784  -6.088  -8.092  0.00  0.00    -0.271 OA
HETATM    4  H           1     -22.451  -3.448  -8.395  0.00  0.00     0.163 HD
ENDROOT
BRANCH   1   5
HETATM    5  C           1     -21.951  -4.672 -10.081  0.00  0.00     0.189 C 
BRANCH   5   6
HETATM    6  C           1     -23.261  -4.262 -10.740  0.00  0.00     0.014 C 
HETATM    7  C           1     -23.526  -5.159 -11.942  0.00  0.00     0.012 C 
BRANCH   6   8
HETATM    8  C           1     -24.398  -4.406  -9.737  0.00  0.00     0.002 C 
HETATM    9  C           1     -25.159  -3.091  -9.637  0.00  0.00     0.005 C 
ENDBRANCH   6   8
ENDBRANCH   5   6
BRANCH   5  10
HETATM   10  C           1     -20.802  -3.976 -10.770  0.00  0.00     0.197 C 
HETATM   11  O           1     -19.683  -4.530 -10.834  0.00  0.00    -0.646 OA
HETATM   12  O           1     -20.970  -2.846 -11.275  0.00  0.00    -0.646 OA
ENDBRANCH   5  10
ENDBRANCH   1   5
BRANCH   2  13
HETATM   13  C           1     -21.378  -4.686  -6.293  0.00  0.00     0.270 C 
HETATM   14  C           1     -19.961  -4.710  -5.735  0.00  0.00     0.050 C 
BRANCH  13  15
HETATM   15  N           1     -22.233  -5.653  -5.528  0.00  0.00    -0.067 N 
HETATM   16  H           1     -21.656  -6.123  -4.794  0.00  0.00     0.275 HD
HETATM   17  H           1     -23.021  -5.138  -5.076  0.00  0.00     0.275 HD
HETATM   18  H           1     -22.615  -6.373  -6.184  0.00  0.00     0.275 HD
ENDBRANCH  13  15
ENDBRANCH   2  13
TORSDOF 6
ENDMDL
MODEL 5
REMARK VINA RESULT:      -5.1     12.618     14.442
REMARK  6 active torsions:
REMARK  status: ('A' for Active; 'I' for Inactive)
REMARK    1  A    between atoms: N_2  and  C_8 
REMARK       I    between atoms: N_2  and  C_3 
REMARK    2  A    between atoms: C_3  and  C_4 
REMARK    3  A    between atoms: C_4  and  N_6 
REMARK    4  A    between atoms: C_8  and  C_12 
REMARK    5  A    between atoms: C_8  and  C_9 
REMARK    6  A    between atoms: C_11  and  C_12 
ROOT
HETATM    1  N           1     -21.524  -6.617  -5.555  0.00  0.00    -0.344 N 
HETATM    2  C           1     -21.079  -5.559  -6.301  0.00  0.00     0.248 C 
HETATM    3  O           1     -19.922  -5.218  -6.233  0.00  0.00    -0.271 OA
HETATM    4  H           1     -22.494  -6.903  -5.611  0.00  0.00     0.163 HD
ENDROOT
BRANCH   1   5
HETATM    5  C           1     -20.609  -7.326  -4.682  0.00  0.00     0.189 C 
BRANCH   5   6
HETATM    6  C           1     -21.299  -7.621  -3.356  0.00  0.00     0.014 C 
HETATM    7  C           1     -20.322  -8.326  -2.424  0.00  0.00     0.012 C 
BRANCH   6   8
HETATM    8  C           1     -21.755  -6.315  -2.721  0.00  0.00     0.002 C 
HETATM    9  C           1     -22.297  -6.590  -1.325  0.00  0.00     0.005 C 
ENDBRANCH   6   8
ENDBRANCH   5   6
BRANCH   5  10
HETATM   10  C           1     -20.197  -8.623  -5.335  0.00  0.00     0.197 C 
HETATM   11  O           1     -21.061  -9.478  -5.626  0.00  0.00    -0.646 OA
HETATM   12  O           1     -18.992  -8.842  -5.583  0.00  0.00    -0.646 OA
ENDBRANCH   5  10
ENDBRANCH   1   5
BRANCH   2  13
HETATM   13  C           1     -22.031  -4.821  -7.209  0.00  0.00     0.270 C 
HETATM   14  C           1     -21.524  -3.403  -7.433  0.00  0.00     0.050 C 
BRANCH  13  15
HETATM   15  N           1     -23.389  -4.772  -6.573  0.00  0.00    -0.067 N 
HETATM   16  H           1     -23.928  -3.966  -6.963  0.00  0.00     0.275 HD
HETATM   17  H           1     -23.900  -5.662  -6.772  0.00  0.00     0.275 HD
HETATM   18  H           1     -23.285  -4.652  -5.539  0.00  0.00     0.275 HD
ENDBRANCH  13  15
ENDBRANCH   2  13
TORSDOF 6
ENDMDL
MODEL 6
REMARK VINA RESULT:      -5.0      1.578      2.047
REMARK  6 active torsions:
REMARK  status: ('A' for Active; 'I' for Inactive)
REMARK    1  A    between atoms: N_2  and  C_8 
REMARK       I    between atoms: N_2  and  C_3 
REMARK    2  A    between atoms: C_3  and  C_4 
REMARK    3  A    between atoms: C_4  and  N_6 
REMARK    4  A    between atoms: C_8  and  C_12 
REMARK    5  A    between atoms: C_8  and  C_9 
REMARK    6  A    between atoms: C_11  and  C_12 
ROOT
HETATM    1  N           1     -26.490  -6.564 -18.011  0.00  0.00    -0.344 N 
HETATM    2  C           1     -26.360  -6.435 -19.367  0.00  0.00     0.248 C 
HETATM    3  O           1     -27.224  -5.884 -20.007  0.00  0.00    -0.271 OA
HETATM    4  H           1     -25.767  -7.026 -17.474  0.00  0.00     0.163 HD
ENDROOT
BRANCH   1   5
HETATM    5  C           1     -27.665  -6.039 -17.341  0.00  0.00     0.189 C 
BRANCH   5   6
HETATM    6  C           1     -28.918  -6.570 -18.025  0.00  0.00     0.014 C 
HETATM    7  C           1     -29.366  -7.852 -17.336  0.00  0.00     0.012 C 
BRANCH   6   8
HETATM    8  C           1     -30.026  -5.530 -17.932  0.00  0.00     0.002 C 
HETATM    9  C           1     -29.421  -4.134 -18.012  0.00  0.00     0.005 C 
ENDBRANCH   6   8
ENDBRANCH   5   6
BRANCH   5  10
HETATM   10  C           1     -27.656  -6.476 -15.897  0.00  0.00     0.197 C 
HETATM   11  O           1     -28.461  -5.969 -15.086  0.00  0.00    -0.646 OA
HETATM   12  O           1     -26.844  -7.344 -15.512  0.00  0.00    -0.646 OA
ENDBRANCH   5  10
ENDBRANCH   1   5
BRANCH   2  13
HETATM   13  C           1     -25.138  -6.982 -20.063  0.00  0.00     0.270 C 
HETATM   14  C           1     -25.563  -8.012 -21.102  0.00  0.00     0.050 C 
BRANCH  13  15
HETATM   15  N           1     -24.238  -7.631 -19.054  0.00  0.00    -0.067 N 
HETATM   16  H           1     -23.850  -8.517 -19.451  0.00  0.00     0.275 HD
HETATM   17  H           1     -23.453  -6.982 -18.819  0.00  0.00     0.275 HD
HETATM   18  H           1     -24.784  -7.848 -18.189  0.00  0.00     0.275 HD
ENDBRANCH  13  15
ENDBRANCH   2  13
TORSDOF 6
ENDMDL
MODEL 7
REMARK VINA RESULT:      -4.8     15.656     17.699
REMARK  6 active torsions:
REMARK  status: ('A' for Active; 'I' for Inactive)
REMARK    1  A    between atoms: N_2  and  C_8 
REMARK       I    between atoms: N_2  and  C_3 
REMARK    2  A    between atoms: C_3  and  C_4 
REMARK    3  A    between atoms: C_4  and  N_6 
REMARK    4  A    between atoms: C_8  and  C_12 
REMARK    5  A    between atoms: C_8  and  C_9 
REMARK    6  A    between atoms: C_11  and  C_12 
ROOT
HETATM    1  N           1     -21.988  -9.302  -1.544  0.00  0.00    -0.344 N 
HETATM    2  C           1     -21.730 -10.177  -0.523  0.00  0.00     0.248 C 
HETATM    3  O           1     -20.848  -9.937   0.268  0.00  0.00    -0.271 OA
HETATM    4  H           1     -22.726  -9.502  -2.207  0.00  0.00     0.163 HD
ENDROOT
BRANCH   1   5
HETATM    5  C           1     -21.203  -8.091  -1.678  0.00  0.00     0.189 C 
BRANCH   5   6
HETATM    6  C           1     -20.576  -8.043  -3.066  0.00  0.00     0.014 C 
HETATM    7  C           1     -19.296  -8.869  -3.072  0.00  0.00     0.012 C 
BRANCH   6   8
HETATM    8  C           1     -21.554  -8.615  -4.083  0.00  0.00     0.002 C 
HETATM    9  C           1     -21.479  -7.807  -5.372  0.00  0.00     0.005 C 
ENDBRANCH   6   8
ENDBRANCH   5   6
BRANCH   5  10
HETATM   10  C           1     -22.097  -6.890  -1.489  0.00  0.00     0.197 C 
HETATM   11  O           1     -21.993  -5.906  -2.253  0.00  0.00    -0.646 OA
HETATM   12  O           1     -22.941  -6.879  -0.567  0.00  0.00    -0.646 OA
ENDBRANCH   5  10
ENDBRANCH   1   5
BRANCH   2  13
HETATM   13  C           1     -22.547 -11.437  -0.384  0.00  0.00     0.270 C 
HETATM   14  C           1     -24.007 -11.074  -0.148  0.00  0.00     0.050 C 
BRANCH  13  15
HETATM   15  N           1     -22.036 -12.238   0.778  0.00  0.00    -0.067 N 
HETATM   16  H           1     -22.127 -11.677   1.655  0.00  0.00     0.275 HD
HETATM   17  H           1     -22.594 -13.117   0.867  0.00  0.00     0.275 HD
HETATM   18  H           1     -21.030 -12.476   0.621  0.00  0.00     0.275 HD
ENDBRANCH  13  15
ENDBRANCH   2  13
TORSDOF 6
ENDMDL
MODEL 8
REMARK VINA RESULT:      -4.8     13.218     15.108
REMARK  6 active torsions:
REMARK  status: ('A' for Active; 'I' for Inactive)
REMARK    1  A    between atoms: N_2  and  C_8 
REMARK       I    between atoms: N_2  and  C_3 
REMARK    2  A    between atoms: C_3  and  C_4 
REMARK    3  A    between atoms: C_4  and  N_6 
REMARK    4  A    between atoms: C_8  and  C_12 
REMARK    5  A    between atoms: C_8  and  C_9 
REMARK    6  A    between atoms: C_11  and  C_12 
ROOT
HETATM    1  N           1     -20.806  -6.750  -4.618  0.00  0.00    -0.344 N 
HETATM    2  C           1     -21.451  -5.920  -5.496  0.00  0.00     0.248 C 
HETATM    3  O           1     -22.658  -5.871  -5.503  0.00  0.00    -0.271 OA
HETATM    4  H           1     -19.795  -6.792  -4.613  0.00  0.00     0.163 HD
ENDROOT
BRANCH   1   5
HETATM    5  C           1     -21.571  -7.568  -3.698  0.00  0.00     0.189 C 
BRANCH   5   6
HETATM    6  C           1     -20.910  -8.935  -3.566  0.00  0.00     0.014 C 
HETATM    7  C           1     -21.842 -10.003  -4.121  0.00  0.00     0.012 C 
BRANCH   6   8
HETATM    8  C           1     -19.604  -8.944  -4.347  0.00  0.00     0.002 C 
HETATM    9  C           1     -18.459  -9.334  -3.421  0.00  0.00     0.005 C 
ENDBRANCH   6   8
ENDBRANCH   5   6
BRANCH   5  10
HETATM   10  C           1     -21.614  -6.897  -2.347  0.00  0.00     0.197 C 
HETATM   11  O           1     -22.312  -5.874  -2.179  0.00  0.00    -0.646 OA
HETATM   12  O           1     -20.951  -7.365  -1.396  0.00  0.00    -0.646 OA
ENDBRANCH   5  10
ENDBRANCH   1   5
BRANCH   2  13
HETATM   13  C           1     -20.655  -5.069  -6.454  0.00  0.00     0.270 C 
HETATM   14  C           1     -21.579  -4.065  -7.130  0.00  0.00     0.050 C 
BRANCH  13  15
HETATM   15  N           1     -20.023  -5.946  -7.494  0.00  0.00    -0.067 N 
HETATM   16  H           1     -19.625  -6.798  -7.038  0.00  0.00     0.275 HD
HETATM   17  H           1     -20.744  -6.231  -8.195  0.00  0.00     0.275 HD
HETATM   18  H           1     -19.257  -5.420  -7.974  0.00  0.00     0.275 HD
ENDBRANCH  13  15
ENDBRANCH   2  13
TORSDOF 6
ENDMDL
MODEL 9
REMARK VINA RESULT:      -4.8     15.532     17.336
REMARK  6 active torsions:
REMARK  status: ('A' for Active; 'I' for Inactive)
REMARK    1  A    between atoms: N_2  and  C_8 
REMARK       I    between atoms: N_2  and  C_3 
REMARK    2  A    between atoms: C_3  and  C_4 
REMARK    3  A    between atoms: C_4  and  N_6 
REMARK    4  A    between atoms: C_8  and  C_12 
REMARK    5  A    between atoms: C_8  and  C_9 
REMARK    6  A    between atoms: C_11  and  C_12 
ROOT
HETATM    1  N           1     -21.591  -9.107  -2.205  0.00  0.00    -0.344 N 
HETATM    2  C           1     -21.361  -7.908  -2.824  0.00  0.00     0.248 C 
HETATM    3  O           1     -20.826  -7.010  -2.218  0.00  0.00    -0.271 OA
HETATM    4  H           1     -22.040  -9.860  -2.712  0.00  0.00     0.163 HD
ENDROOT
BRANCH   1   5
HETATM    5  C           1     -21.195  -9.299  -0.824  0.00  0.00     0.189 C 
BRANCH   5   6
HETATM    6  C           1     -22.430  -9.565   0.026  0.00  0.00     0.014 C 
HETATM    7  C           1     -23.088  -8.241   0.392  0.00  0.00     0.012 C 
BRANCH   6   8
HETATM    8  C           1     -23.413 -10.420  -0.762  0.00  0.00     0.002 C 
HETATM    9  C           1     -23.771 -11.660   0.046  0.00  0.00     0.005 C 
ENDBRANCH   6   8
ENDBRANCH   5   6
BRANCH   5  10
HETATM   10  C           1     -20.257 -10.478  -0.731  0.00  0.00     0.197 C 
HETATM   11  O           1     -19.634 -10.863  -1.744  0.00  0.00    -0.646 OA
HETATM   12  O           1     -20.104 -11.070   0.359  0.00  0.00    -0.646 OA
ENDBRANCH   5  10
ENDBRANCH   1   5
BRANCH   2  13
HETATM   13  C           1     -21.775  -7.708  -4.261  0.00  0.00     0.270 C 
HETATM   14  C           1     -20.566  -7.894  -5.168  0.00  0.00     0.050 C 
BRANCH  13  15
HETATM   15  N           1     -22.322  -6.322  -4.435  0.00  0.00    -0.067 N 
HETATM   16  H           1     -21.774  -5.654  -3.846  0.00  0.00     0.275 HD
HETATM   17  H           1     -22.250  -6.043  -5.439  0.00  0.00     0.275 HD
HETATM   18  H           1     -23.325  -6.305  -4.138  0.00  0.00     0.275 HD
ENDBRANCH  13  15
ENDBRANCH   2  13
TORSDOF 6
ENDMDL
