MODEL 1
REMARK VINA RESULT:      -5.3      0.000      0.000
REMARK  7 active torsions:
REMARK  status: ('A' for Active; 'I' for Inactive)
REMARK    1  A    between atoms: S_2  and  C_8 
REMARK    2  A    between atoms: N_6  and  C_16 
REMARK    3  A    between atoms: C_8  and  C_14 
REMARK    4  A    between atoms: N_9  and  C_13 
REMARK       I    between atoms: N_9  and  C_15 
REMARK    5  A    between atoms: C_12  and  C_13 
REMARK    6  A    between atoms: C_13  and  C_14 
REMARK    7  A    between atoms: C_15  and  C_16 
ROOT
HETATM    1  O           1     -35.778  -1.172 -13.991  0.00  0.00    -0.272 OA
HETATM    2  N           1     -34.713  -0.440 -12.169  0.00  0.00    -0.345 N 
HETATM    3  C           1     -35.114  -0.307 -13.471  0.00  0.00     0.243 C 
HETATM    4  H           1     -34.157   0.284 -11.734  0.00  0.00     0.163 HD
ENDROOT
BRANCH   2   5
HETATM    5  C           1     -35.088  -1.620 -11.414  0.00  0.00     0.186 C 
BRANCH   5   6
HETATM    6  C           1     -36.216  -1.278 -10.472  0.00  0.00     0.196 C 
HETATM    7  O           1     -35.975  -0.686  -9.397  0.00  0.00    -0.646 OA
HETATM    8  O           1     -37.391  -1.584 -10.767  0.00  0.00    -0.646 OA
ENDBRANCH   5   6
BRANCH   5   9
HETATM    9  C           1     -33.889  -2.111 -10.614  0.00  0.00     0.046 C 
BRANCH   9  10
HETATM   10  C           1     -33.202  -3.241 -11.368  0.00  0.00     0.076 C 
BRANCH  10  11
HETATM   11  S           1     -34.455  -4.353 -12.067  0.00  0.00    -0.173 SA
HETATM   12  C           1     -34.067  -5.778 -11.012  0.00  0.00     0.089 C 
ENDBRANCH  10  11
ENDBRANCH   9  10
ENDBRANCH   5   9
ENDBRANCH   2   5
BRANCH   3  13
HETATM   13  C           1     -34.725   0.921 -14.258  0.00  0.00     0.332 C 
BRANCH  13  14
HETATM   14  N           1     -35.885   1.367 -15.096  0.00  0.00    -0.071 N 
HETATM   15  H           1     -35.656   2.280 -15.550  0.00  0.00     0.274 HD
HETATM   16  H           1     -36.729   1.482 -14.490  0.00  0.00     0.274 HD
HETATM   17  H           1     -36.078   0.652 -15.832  0.00  0.00     0.274 HD
ENDBRANCH  13  14
ENDBRANCH   3  13
TORSDOF 7
ENDMDL
MODEL 2
REMARK VINA RESULT:      -5.2      2.803      4.579
REMARK  7 active torsions:
REMARK  status: ('A' for Active; 'I' for Inactive)
REMARK    1  A    between atoms: S_2  and  C_8 
REMARK    2  A    between atoms: N_6  and  C_16 
REMARK    3  A    between atoms: C_8  and  C_14 
REMARK    4  A    between atoms: N_9  and  C_13 
REMARK       I    between atoms: N_9  and  C_15 
REMARK    5  A    between atoms: C_12  and  C_13 
REMARK    6  A    between atoms: C_13  and  C_14 
REMARK    7  A    between atoms: C_15  and  C_16 
ROOT
HETATM    1  O           1     -38.007  -0.756 -11.404  0.00  0.00    -0.272 OA
HETATM    2  N           1     -36.034   0.285 -11.315  0.00  0.00    -0.345 N 
HETATM    3  C           1     -37.262  -0.024 -10.797  0.00  0.00     0.243 C 
HETATM    4  H           1     -35.410   0.898 -10.807  0.00  0.00     0.163 HD
ENDROOT
BRANCH   2   5
HETATM    5  C           1     -35.626  -0.267 -12.593  0.00  0.00     0.186 C 
BRANCH   5   6
HETATM    6  C           1     -34.760  -1.481 -12.362  0.00  0.00     0.196 C 
HETATM    7  O           1     -34.097  -1.585 -11.308  0.00  0.00    -0.646 OA
HETATM    8  O           1     -34.706  -2.383 -13.226  0.00  0.00    -0.646 OA
ENDBRANCH   5   6
BRANCH   5   9
HETATM    9  C           1     -34.838   0.779 -13.369  0.00  0.00     0.046 C 
BRANCH   9  10
HETATM   10  C           1     -35.234   0.727 -14.838  0.00  0.00     0.076 C 
BRANCH  10  11
HETATM   11  S           1     -36.914   0.059 -14.990  0.00  0.00    -0.173 SA
HETATM   12  C           1     -36.619  -0.877 -16.517  0.00  0.00     0.089 C 
ENDBRANCH  10  11
ENDBRANCH   9  10
ENDBRANCH   5   9
ENDBRANCH   2   5
BRANCH   3  13
HETATM   13  C           1     -37.687   0.551  -9.468  0.00  0.00     0.332 C 
BRANCH  13  14
HETATM   14  N           1     -36.548   1.322  -8.869  0.00  0.00    -0.071 N 
HETATM   15  H           1     -35.855   0.657  -8.459  0.00  0.00     0.274 HD
HETATM   16  H           1     -36.912   1.952  -8.119  0.00  0.00     0.274 HD
HETATM   17  H           1     -36.086   1.893  -9.612  0.00  0.00     0.274 HD
ENDBRANCH  13  14
ENDBRANCH   3  13
TORSDOF 7
ENDMDL
MODEL 3
REMARK VINA RESULT:      -4.8      2.602      4.404
REMARK  7 active torsions:
REMARK  status: ('A' for Active; 'I' for Inactive)
REMARK    1  A    between atoms: S_2  and  C_8 
REMARK    2  A    between atoms: N_6  and  C_16 
REMARK    3  A    between atoms: C_8  and  C_14 
REMARK    4  A    between atoms: N_9  and  C_13 
REMARK       I    between atoms: N_9  and  C_15 
REMARK    5  A    between atoms: C_12  and  C_13 
REMARK    6  A    between atoms: C_13  and  C_14 
REMARK    7  A    between atoms: C_15  and  C_16 
ROOT
HETATM    1  O           1     -33.234  -1.666 -10.538  0.00  0.00    -0.272 OA
HETATM    2  N           1     -34.884  -2.118 -11.975  0.00  0.00    -0.345 N 
HETATM    3  C           1     -33.742  -2.455 -11.300  0.00  0.00     0.243 C 
HETATM    4  H           1     -35.309  -2.779 -12.612  0.00  0.00     0.163 HD
ENDROOT
BRANCH   2   5
HETATM    5  C           1     -35.484  -0.813 -11.775  0.00  0.00     0.186 C 
BRANCH   5   6
HETATM    6  C           1     -36.508  -0.895 -10.670  0.00  0.00     0.196 C 
HETATM    7  O           1     -37.665  -1.300 -10.917  0.00  0.00    -0.646 OA
HETATM    8  O           1     -36.200  -0.558  -9.506  0.00  0.00    -0.646 OA
ENDBRANCH   5   6
BRANCH   5   9
HETATM    9  C           1     -36.162  -0.365 -13.063  0.00  0.00     0.046 C 
BRANCH   9  10
HETATM   10  C           1     -35.148   0.345 -13.950  0.00  0.00     0.076 C 
BRANCH  10  11
HETATM   11  S           1     -35.928   0.784 -15.529  0.00  0.00    -0.173 SA
HETATM   12  C           1     -35.772  -0.856 -16.291  0.00  0.00     0.089 C 
ENDBRANCH  10  11
ENDBRANCH   9  10
ENDBRANCH   5   9
ENDBRANCH   2   5
BRANCH   3  13
HETATM   13  C           1     -33.116  -3.813 -11.507  0.00  0.00     0.332 C 
BRANCH  13  14
HETATM   14  N           1     -33.398  -4.287 -12.902  0.00  0.00    -0.071 N 
HETATM   15  H           1     -33.133  -5.294 -12.988  0.00  0.00     0.274 HD
HETATM   16  H           1     -32.841  -3.720 -13.581  0.00  0.00     0.274 HD
HETATM   17  H           1     -34.416  -4.176 -13.107  0.00  0.00     0.274 HD
ENDBRANCH  13  14
ENDBRANCH   3  13
TORSDOF 7
ENDMDL
MODEL 4
REMARK VINA RESULT:      -4.4     14.739     15.972
REMARK  7 active torsions:
REMARK  status: ('A' for Active; 'I' for Inactive)
REMARK    1  A    between atoms: S_2  and  C_8 
REMARK    2  A    between atoms: N_6  and  C_16 
REMARK    3  A    between atoms: C_8  and  C_14 
REMARK    4  A    between atoms: N_9  and  C_13 
REMARK       I    between atoms: N_9  and  C_15 
REMARK    5  A    between atoms: C_12  and  C_13 
REMARK    6  A    between atoms: C_13  and  C_14 
REMARK    7  A    between atoms: C_15  and  C_16 
ROOT
HETATM    1  O           1     -20.645  -3.773  -6.953  0.00  0.00    -0.272 OA
HETATM    2  N           1     -22.080  -5.443  -6.576  0.00  0.00    -0.345 N 
HETATM    3  C           1     -21.679  -4.323  -7.253  0.00  0.00     0.243 C 
HETATM    4  H           1     -22.945  -5.904  -6.827  0.00  0.00     0.163 HD
ENDROOT
BRANCH   2   5
HETATM    5  C           1     -21.263  -5.970  -5.500  0.00  0.00     0.186 C 
BRANCH   5   6
HETATM    6  C           1     -20.439  -7.125  -6.012  0.00  0.00     0.196 C 
HETATM    7  O           1     -19.469  -6.913  -6.773  0.00  0.00    -0.646 OA
HETATM    8  O           1     -20.725  -8.295  -5.676  0.00  0.00    -0.646 OA
ENDBRANCH   5   6
BRANCH   5   9
HETATM    9  C           1     -22.163  -6.450  -4.369  0.00  0.00     0.046 C 
BRANCH   9  10
HETATM   10  C           1     -21.513  -6.132  -3.030  0.00  0.00     0.076 C 
BRANCH  10  11
HETATM   11  S           1     -21.306  -7.663  -2.077  0.00  0.00    -0.173 SA
HETATM   12  C           1     -22.348  -7.167  -0.676  0.00  0.00     0.089 C 
ENDBRANCH  10  11
ENDBRANCH   9  10
ENDBRANCH   5   9
ENDBRANCH   2   5
BRANCH   3  13
HETATM   13  C           1     -22.528  -3.774  -8.373  0.00  0.00     0.332 C 
BRANCH  13  14
HETATM   14  N           1     -23.975  -4.042  -8.082  0.00  0.00    -0.071 N 
HETATM   15  H           1     -24.052  -4.800  -7.367  0.00  0.00     0.274 HD
HETATM   16  H           1     -24.456  -4.342  -8.961  0.00  0.00     0.274 HD
HETATM   17  H           1     -24.423  -3.172  -7.718  0.00  0.00     0.274 HD
ENDBRANCH  13  14
ENDBRANCH   3  13
TORSDOF 7
ENDMDL
MODEL 5
REMARK VINA RESULT:      -4.4     12.690     13.913
REMARK  7 active torsions:
REMARK  status: ('A' for Active; 'I' for Inactive)
REMARK    1  A    between atoms: S_2  and  C_8 
REMARK    2  A    between atoms: N_6  and  C_16 
REMARK    3  A    between atoms: C_8  and  C_14 
REMARK    4  A    between atoms: N_9  and  C_13 
REMARK       I    between atoms: N_9  and  C_15 
REMARK    5  A    between atoms: C_12  and  C_13 
REMARK    6  A    between atoms: C_13  and  C_14 
REMARK    7  A    between atoms: C_15  and  C_16 
ROOT
HETATM    1  O           1     -23.707  -5.077  -9.614  0.00  0.00    -0.272 OA
HETATM    2  N           1     -22.607  -3.722  -8.222  0.00  0.00    -0.345 N 
HETATM    3  C           1     -23.633  -3.993  -9.086  0.00  0.00     0.243 C 
HETATM    4  H           1     -22.545  -2.814  -7.779  0.00  0.00     0.163 HD
ENDROOT
BRANCH   2   5
HETATM    5  C           1     -21.610  -4.736  -7.939  0.00  0.00     0.186 C 
BRANCH   5   6
HETATM    6  C           1     -21.502  -4.934  -6.448  0.00  0.00     0.196 C 
HETATM    7  O           1     -20.502  -4.506  -5.831  0.00  0.00    -0.646 OA
HETATM    8  O           1     -22.413  -5.525  -5.828  0.00  0.00    -0.646 OA
ENDBRANCH   5   6
BRANCH   5   9
HETATM    9  C           1     -20.263  -4.290  -8.492  0.00  0.00     0.046 C 
BRANCH   9  10
HETATM   10  C           1     -20.124  -4.758  -9.934  0.00  0.00     0.076 C 
BRANCH  10  11
HETATM   11  S           1     -20.431  -3.365 -11.055  0.00  0.00    -0.173 SA
HETATM   12  C           1     -21.673  -4.204 -12.080  0.00  0.00     0.089 C 
ENDBRANCH  10  11
ENDBRANCH   9  10
ENDBRANCH   5   9
ENDBRANCH   2   5
BRANCH   3  13
HETATM   13  C           1     -24.671  -2.938  -9.380  0.00  0.00     0.332 C 
BRANCH  13  14
HETATM   14  N           1     -25.991  -3.596  -9.651  0.00  0.00    -0.071 N 
HETATM   15  H           1     -26.715  -3.201  -9.009  0.00  0.00     0.274 HD
HETATM   16  H           1     -25.906  -4.625  -9.490  0.00  0.00     0.274 HD
HETATM   17  H           1     -26.271  -3.419 -10.642  0.00  0.00     0.274 HD
ENDBRANCH  13  14
ENDBRANCH   3  13
TORSDOF 7
ENDMDL
MODEL 6
REMARK VINA RESULT:      -4.3      2.863      4.926
REMARK  7 active torsions:
REMARK  status: ('A' for Active; 'I' for Inactive)
REMARK    1  A    between atoms: S_2  and  C_8 
REMARK    2  A    between atoms: N_6  and  C_16 
REMARK    3  A    between atoms: C_8  and  C_14 
REMARK    4  A    between atoms: N_9  and  C_13 
REMARK       I    between atoms: N_9  and  C_15 
REMARK    5  A    between atoms: C_12  and  C_13 
REMARK    6  A    between atoms: C_13  and  C_14 
REMARK    7  A    between atoms: C_15  and  C_16 
ROOT
HETATM    1  O           1     -32.587  -3.728 -11.463  0.00  0.00    -0.272 OA
HETATM    2  N           1     -34.809  -3.604 -11.266  0.00  0.00    -0.345 N 
HETATM    3  C           1     -33.634  -4.307 -11.293  0.00  0.00     0.243 C 
HETATM    4  H           1     -35.685  -4.088 -11.123  0.00  0.00     0.163 HD
ENDROOT
BRANCH   2   5
HETATM    5  C           1     -34.795  -2.164 -11.442  0.00  0.00     0.186 C 
BRANCH   5   6
HETATM    6  C           1     -35.879  -1.544 -10.595  0.00  0.00     0.196 C 
HETATM    7  O           1     -35.577  -0.766  -9.664  0.00  0.00    -0.646 OA
HETATM    8  O           1     -37.079  -1.807 -10.824  0.00  0.00    -0.646 OA
ENDBRANCH   5   6
BRANCH   5   9
HETATM    9  C           1     -35.042  -1.831 -12.907  0.00  0.00     0.046 C 
BRANCH   9  10
HETATM   10  C           1     -35.131  -0.320 -13.076  0.00  0.00     0.076 C 
BRANCH  10  11
HETATM   11  S           1     -36.573   0.090 -14.100  0.00  0.00    -0.173 SA
HETATM   12  C           1     -35.661   1.019 -15.365  0.00  0.00     0.089 C 
ENDBRANCH  10  11
ENDBRANCH   9  10
ENDBRANCH   5   9
ENDBRANCH   2   5
BRANCH   3  13
HETATM   13  C           1     -33.648  -5.804 -11.110  0.00  0.00     0.332 C 
BRANCH  13  14
HETATM   14  N           1     -34.686  -6.176 -10.093  0.00  0.00    -0.071 N 
HETATM   15  H           1     -34.263  -6.151  -9.138  0.00  0.00     0.274 HD
HETATM   16  H           1     -35.039  -7.139 -10.293  0.00  0.00     0.274 HD
HETATM   17  H           1     -35.478  -5.497 -10.141  0.00  0.00     0.274 HD
ENDBRANCH  13  14
ENDBRANCH   3  13
TORSDOF 7
ENDMDL
MODEL 7
REMARK VINA RESULT:      -4.2     13.141     14.289
REMARK  7 active torsions:
REMARK  status: ('A' for Active; 'I' for Inactive)
REMARK    1  A    between atoms: S_2  and  C_8 
REMARK    2  A    between atoms: N_6  and  C_16 
REMARK    3  A    between atoms: C_8  and  C_14 
REMARK    4  A    between atoms: N_9  and  C_13 
REMARK       I    between atoms: N_9  and  C_15 
REMARK    5  A    between atoms: C_12  and  C_13 
REMARK    6  A    between atoms: C_13  and  C_14 
REMARK    7  A    between atoms: C_15  and  C_16 
ROOT
HETATM    1  O           1     -22.581  -2.764 -10.897  0.00  0.00    -0.272 OA
HETATM    2  N           1     -22.579  -4.241  -9.222  0.00  0.00    -0.345 N 
HETATM    3  C           1     -23.160  -3.647 -10.310  0.00  0.00     0.243 C 
HETATM    4  H           1     -23.064  -4.981  -8.731  0.00  0.00     0.163 HD
ENDROOT
BRANCH   2   5
HETATM    5  C           1     -21.268  -3.812  -8.776  0.00  0.00     0.186 C 
BRANCH   5   6
HETATM    6  C           1     -20.220  -4.760  -9.306  0.00  0.00     0.196 C 
HETATM    7  O           1     -19.925  -4.749 -10.521  0.00  0.00    -0.646 OA
HETATM    8  O           1     -19.647  -5.555  -8.530  0.00  0.00    -0.646 OA
ENDBRANCH   5   6
BRANCH   5   9
HETATM    9  C           1     -21.227  -3.809  -7.254  0.00  0.00     0.046 C 
BRANCH   9  10
HETATM   10  C           1     -22.368  -4.659  -6.713  0.00  0.00     0.076 C 
BRANCH  10  11
HETATM   11  S           1     -21.705  -5.911  -5.577  0.00  0.00    -0.173 SA
HETATM   12  C           1     -20.207  -4.993  -5.122  0.00  0.00     0.089 C 
ENDBRANCH  10  11
ENDBRANCH   9  10
ENDBRANCH   5   9
ENDBRANCH   2   5
BRANCH   3  13
HETATM   13  C           1     -24.524  -4.093 -10.775  0.00  0.00     0.332 C 
BRANCH  13  14
HETATM   14  N           1     -25.565  -3.612  -9.809  0.00  0.00    -0.071 N 
HETATM   15  H           1     -26.416  -4.215  -9.884  0.00  0.00     0.274 HD
HETATM   16  H           1     -25.819  -2.623 -10.035  0.00  0.00     0.274 HD
HETATM   17  H           1     -25.187  -3.662  -8.836  0.00  0.00     0.274 HD
ENDBRANCH  13  14
ENDBRANCH   3  13
TORSDOF 7
ENDMDL
MODEL 8
REMARK VINA RESULT:      -4.1     14.494     16.136
REMARK  7 active torsions:
REMARK  status: ('A' for Active; 'I' for Inactive)
REMARK    1  A    between atoms: S_2  and  C_8 
REMARK    2  A    between atoms: N_6  and  C_16 
REMARK    3  A    between atoms: C_8  and  C_14 
REMARK    4  A    between atoms: N_9  and  C_13 
REMARK       I    between atoms: N_9  and  C_15 
REMARK    5  A    between atoms: C_12  and  C_13 
REMARK    6  A    between atoms: C_13  and  C_14 
REMARK    7  A    between atoms: C_15  and  C_16 
ROOT
HETATM    1  O           1     -22.132  -7.435  -5.132  0.00  0.00    -0.272 OA
HETATM    2  N           1     -21.384  -5.332  -5.207  0.00  0.00    -0.345 N 
HETATM    3  C           1     -21.806  -6.441  -4.526  0.00  0.00     0.243 C 
HETATM    4  H           1     -21.110  -4.500  -4.700  0.00  0.00     0.163 HD
ENDROOT
BRANCH   2   5
HETATM    5  C           1     -21.326  -5.349  -6.656  0.00  0.00     0.186 C 
BRANCH   5   6
HETATM    6  C           1     -19.913  -5.637  -7.100  0.00  0.00     0.196 C 
HETATM    7  O           1     -19.483  -6.811  -7.095  0.00  0.00    -0.646 OA
HETATM    8  O           1     -19.173  -4.702  -7.475  0.00  0.00    -0.646 OA
ENDBRANCH   5   6
BRANCH   5   9
HETATM    9  C           1     -21.763  -3.994  -7.197  0.00  0.00     0.046 C 
BRANCH   9  10
HETATM   10  C           1     -22.901  -4.186  -8.190  0.00  0.00     0.076 C 
BRANCH  10  11
HETATM   11  S           1     -22.236  -4.192  -9.879  0.00  0.00    -0.173 SA
HETATM   12  C           1     -23.709  -4.901 -10.669  0.00  0.00     0.089 C 
ENDBRANCH  10  11
ENDBRANCH   9  10
ENDBRANCH   5   9
ENDBRANCH   2   5
BRANCH   3  13
HETATM   13  C           1     -21.866  -6.424  -3.019  0.00  0.00     0.332 C 
BRANCH  13  14
HETATM   14  N           1     -21.014  -7.530  -2.470  0.00  0.00    -0.071 N 
HETATM   15  H           1     -20.112  -7.568  -2.996  0.00  0.00     0.274 HD
HETATM   16  H           1     -21.517  -8.440  -2.575  0.00  0.00     0.274 HD
HETATM   17  H           1     -20.821  -7.352  -1.460  0.00  0.00     0.274 HD
ENDBRANCH  13  14
ENDBRANCH   3  13
TORSDOF 7
ENDMDL
MODEL 9
REMARK VINA RESULT:      -4.0     15.635     16.938
REMARK  7 active torsions:
REMARK  status: ('A' for Active; 'I' for Inactive)
REMARK    1  A    between atoms: S_2  and  C_8 
REMARK    2  A    between atoms: N_6  and  C_16 
REMARK    3  A    between atoms: C_8  and  C_14 
REMARK    4  A    between atoms: N_9  and  C_13 
REMARK       I    between atoms: N_9  and  C_15 
REMARK    5  A    between atoms: C_12  and  C_13 
REMARK    6  A    between atoms: C_13  and  C_14 
REMARK    7  A    between atoms: C_15  and  C_16 
ROOT
HETATM    1  O           1     -22.761  -5.425  -5.945  0.00  0.00    -0.272 OA
HETATM    2  N           1     -20.906  -6.244  -5.010  0.00  0.00    -0.345 N 
HETATM    3  C           1     -21.557  -5.386  -5.855  0.00  0.00     0.243 C 
HETATM    4  H           1     -19.897  -6.211  -4.934  0.00  0.00     0.163 HD
ENDROOT
BRANCH   2   5
HETATM    5  C           1     -21.662  -7.199  -4.223  0.00  0.00     0.186 C 
BRANCH   5   6
HETATM    6  C           1     -21.636  -6.787  -2.772  0.00  0.00     0.196 C 
HETATM    7  O           1     -22.428  -5.913  -2.355  0.00  0.00    -0.646 OA
HETATM    8  O           1     -20.823  -7.319  -1.985  0.00  0.00    -0.646 OA
ENDBRANCH   5   6
BRANCH   5   9
HETATM    9  C           1     -21.041  -8.581  -4.370  0.00  0.00     0.046 C 
BRANCH   9  10
HETATM   10  C           1     -19.697  -8.463  -5.075  0.00  0.00     0.076 C 
BRANCH  10  11
HETATM   11  S           1     -18.466  -9.476  -4.209  0.00  0.00    -0.173 SA
HETATM   12  C           1     -17.507  -9.927  -5.682  0.00  0.00     0.089 C 
ENDBRANCH  10  11
ENDBRANCH   9  10
ENDBRANCH   5   9
ENDBRANCH   2   5
BRANCH   3  13
HETATM   13  C           1     -20.771  -4.393  -6.674  0.00  0.00     0.332 C 
BRANCH  13  14
HETATM   14  N           1     -21.707  -3.391  -7.281  0.00  0.00    -0.071 N 
HETATM   15  H           1     -21.887  -3.642  -8.279  0.00  0.00     0.274 HD
HETATM   16  H           1     -21.277  -2.439  -7.234  0.00  0.00     0.274 HD
HETATM   17  H           1     -22.609  -3.393  -6.754  0.00  0.00     0.274 HD
ENDBRANCH  13  14
ENDBRANCH   3  13
TORSDOF 7
ENDMDL
