MODEL 1
REMARK VINA RESULT:      -5.8      0.000      0.000
REMARK  8 active torsions:
REMARK  status: ('A' for Active; 'I' for Inactive)
REMARK    1  A    between atoms: Se_1  and  C_20 
REMARK    2  A    between atoms: N_2  and  C_19 
REMARK    3  A    between atoms: C_5  and  O_6 
REMARK    4  A    between atoms: C_5  and  C_7 
REMARK    5  A    between atoms: C_7  and  C_8 
REMARK    6  A    between atoms: C_7  and  N_11 
REMARK       I    between atoms: N_11  and  C_18 
REMARK    7  A    between atoms: C_18  and  C_19 
REMARK    8  A    between atoms: C_19  and  C_20 
ROOT
HETATM    1  O           1     -21.662  -3.403  -7.357  0.00  0.00    -0.271 OA
HETATM    2  N           1     -22.139  -4.785  -9.045  0.00  0.00    -0.343 N 
HETATM    3  H           1     -22.156  -5.734  -9.398  0.00  0.00     0.163 HD
HETATM    4  C           1     -21.683  -4.534  -7.779  0.00  0.00     0.249 C 
ENDROOT
BRANCH   2   5
HETATM    5  C           1     -22.599  -3.692  -9.880  0.00  0.00     0.214 C 
BRANCH   5   6
HETATM    6  C           1     -21.802  -3.674 -11.177  0.00  0.00     0.147 C 
HETATM    7  C           1     -20.430  -4.291 -10.936  0.00  0.00     0.042 C 
BRANCH   6   8
HETATM    8  O           1     -22.483  -4.414 -12.154  0.00  0.00    -0.393 OA
HETATM    9  H           1     -23.249  -4.774 -11.740  0.00  0.00     0.210 HD
ENDBRANCH   6   8
ENDBRANCH   5   6
BRANCH   5  10
HETATM   10  C           1     -24.063  -3.881 -10.191  0.00  0.00     0.199 C 
HETATM   11  O           1     -24.714  -2.958 -10.725  0.00  0.00    -0.646 OA
HETATM   12  O           1     -24.626  -4.963  -9.914  0.00  0.00    -0.646 OA
ENDBRANCH   5  10
ENDBRANCH   2   5
BRANCH   4  13
HETATM   13  C           1     -21.205  -5.672  -6.910  0.00  0.00     0.274 C 
BRANCH  13  14
HETATM   14  N           1     -19.957  -6.261  -7.501  0.00  0.00    -0.067 N 
HETATM   15  H           1     -20.212  -6.906  -8.282  0.00  0.00     0.275 HD
HETATM   16  H           1     -19.350  -5.494  -7.868  0.00  0.00     0.275 HD
HETATM   17  H           1     -19.441  -6.793  -6.765  0.00  0.00     0.275 HD
ENDBRANCH  13  14
BRANCH  13  18
HETATM   18  C           1     -20.904  -5.151  -5.511  0.00  0.00     0.045 C 
BRANCH  18  19
HETATM   19 Se           1     -21.511  -6.448  -4.189  0.00  0.00     0.000 Se
HETATM   20  H           1     -22.939  -6.140  -4.371  0.00  0.00     0.000 HD
ENDBRANCH  18  19
ENDBRANCH  13  18
ENDBRANCH   4  13
TORSDOF 8
ENDMDL
MODEL 2
REMARK VINA RESULT:      -5.2     10.571     11.843
REMARK  8 active torsions:
REMARK  status: ('A' for Active; 'I' for Inactive)
REMARK    1  A    between atoms: Se_1  and  C_20 
REMARK    2  A    between atoms: N_2  and  C_19 
REMARK    3  A    between atoms: C_5  and  O_6 
REMARK    4  A    between atoms: C_5  and  C_7 
REMARK    5  A    between atoms: C_7  and  C_8 
REMARK    6  A    between atoms: C_7  and  N_11 
REMARK       I    between atoms: N_11  and  C_18 
REMARK    7  A    between atoms: C_18  and  C_19 
REMARK    8  A    between atoms: C_19  and  C_20 
ROOT
HETATM    1  O           1     -27.199  -5.948 -20.363  0.00  0.00    -0.271 OA
HETATM    2  N           1     -26.964  -6.296 -18.170  0.00  0.00    -0.343 N 
HETATM    3  H           1     -26.376  -6.616 -17.410  0.00  0.00     0.163 HD
HETATM    4  C           1     -26.498  -6.329 -19.457  0.00  0.00     0.249 C 
ENDROOT
BRANCH   2   5
HETATM    5  C           1     -28.298  -5.799 -17.894  0.00  0.00     0.214 C 
BRANCH   5   6
HETATM    6  C           1     -29.131  -6.907 -17.264  0.00  0.00     0.147 C 
HETATM    7  C           1     -29.816  -7.711 -18.361  0.00  0.00     0.042 C 
BRANCH   6   8
HETATM    8  O           1     -28.297  -7.750 -16.516  0.00  0.00    -0.393 OA
HETATM    9  H           1     -27.644  -8.084 -17.107  0.00  0.00     0.210 HD
ENDBRANCH   6   8
ENDBRANCH   5   6
BRANCH   5  10
HETATM   10  C           1     -28.211  -4.631 -16.943  0.00  0.00     0.199 C 
HETATM   11  O           1     -27.783  -4.800 -15.781  0.00  0.00    -0.646 OA
HETATM   12  O           1     -28.567  -3.492 -17.318  0.00  0.00    -0.646 OA
ENDBRANCH   5  10
ENDBRANCH   2   5
BRANCH   4  13
HETATM   13  C           1     -25.110  -6.846 -19.744  0.00  0.00     0.274 C 
BRANCH  13  14
HETATM   14  N           1     -24.535  -7.454 -18.498  0.00  0.00    -0.067 N 
HETATM   15  H           1     -24.474  -8.490 -18.612  0.00  0.00     0.275 HD
HETATM   16  H           1     -23.580  -7.065 -18.329  0.00  0.00     0.275 HD
HETATM   17  H           1     -25.152  -7.229 -17.685  0.00  0.00     0.275 HD
ENDBRANCH  13  14
BRANCH  13  18
HETATM   18  C           1     -25.177  -7.903 -20.838  0.00  0.00     0.045 C 
BRANCH  18  19
HETATM   19 Se           1     -23.375  -8.322 -21.450  0.00  0.00     0.000 Se
HETATM   20  H           1     -23.778  -8.553 -22.847  0.00  0.00     0.000 HD
ENDBRANCH  18  19
ENDBRANCH  13  18
ENDBRANCH   4  13
TORSDOF 8
ENDMDL
MODEL 3
REMARK VINA RESULT:      -5.1      9.848     11.524
REMARK  8 active torsions:
REMARK  status: ('A' for Active; 'I' for Inactive)
REMARK    1  A    between atoms: Se_1  and  C_20 
REMARK    2  A    between atoms: N_2  and  C_19 
REMARK    3  A    between atoms: C_5  and  O_6 
REMARK    4  A    between atoms: C_5  and  C_7 
REMARK    5  A    between atoms: C_7  and  C_8 
REMARK    6  A    between atoms: C_7  and  N_11 
REMARK       I    between atoms: N_11  and  C_18 
REMARK    7  A    between atoms: C_18  and  C_19 
REMARK    8  A    between atoms: C_19  and  C_20 
ROOT
HETATM    1  O           1     -24.304  -6.433 -18.646  0.00  0.00    -0.271 OA
HETATM    2  N           1     -26.491  -6.648 -18.250  0.00  0.00    -0.343 N 
HETATM    3  H           1     -27.389  -7.003 -18.557  0.00  0.00     0.163 HD
HETATM    4  C           1     -25.374  -6.857 -19.012  0.00  0.00     0.249 C 
ENDROOT
BRANCH   2   5
HETATM    5  C           1     -26.391  -5.917 -17.001  0.00  0.00     0.214 C 
BRANCH   5   6
HETATM    6  C           1     -27.582  -4.979 -16.864  0.00  0.00     0.147 C 
HETATM    7  C           1     -28.759  -5.537 -17.655  0.00  0.00     0.042 C 
BRANCH   6   8
HETATM    8  O           1     -27.938  -4.869 -15.512  0.00  0.00    -0.393 OA
HETATM    9  H           1     -28.497  -4.115 -15.437  0.00  0.00     0.210 HD
ENDBRANCH   6   8
ENDBRANCH   5   6
BRANCH   5  10
HETATM   10  C           1     -26.383  -6.892 -15.849  0.00  0.00     0.199 C 
HETATM   11  O           1     -25.327  -7.102 -15.215  0.00  0.00    -0.646 OA
HETATM   12  O           1     -27.434  -7.489 -15.528  0.00  0.00    -0.646 OA
ENDBRANCH   5  10
ENDBRANCH   2   5
BRANCH   4  13
HETATM   13  C           1     -25.479  -7.618 -20.311  0.00  0.00     0.274 C 
BRANCH  13  14
HETATM   14  N           1     -26.925  -7.862 -20.632  0.00  0.00    -0.067 N 
HETATM   15  H           1     -27.413  -8.231 -19.785  0.00  0.00     0.275 HD
HETATM   16  H           1     -27.372  -6.964 -20.927  0.00  0.00     0.275 HD
HETATM   17  H           1     -26.997  -8.559 -21.406  0.00  0.00     0.275 HD
ENDBRANCH  13  14
BRANCH  13  18
HETATM   18  C           1     -24.843  -6.803 -21.430  0.00  0.00     0.045 C 
BRANCH  18  19
HETATM   19 Se           1     -23.668  -7.947 -22.482  0.00  0.00     0.000 Se
HETATM   20  H           1     -22.887  -8.409 -21.322  0.00  0.00     0.000 HD
ENDBRANCH  18  19
ENDBRANCH  13  18
ENDBRANCH   4  13
TORSDOF 8
ENDMDL
MODEL 4
REMARK VINA RESULT:      -5.0     10.743     11.768
REMARK  8 active torsions:
REMARK  status: ('A' for Active; 'I' for Inactive)
REMARK    1  A    between atoms: Se_1  and  C_20 
REMARK    2  A    between atoms: N_2  and  C_19 
REMARK    3  A    between atoms: C_5  and  O_6 
REMARK    4  A    between atoms: C_5  and  C_7 
REMARK    5  A    between atoms: C_7  and  C_8 
REMARK    6  A    between atoms: C_7  and  N_11 
REMARK       I    between atoms: N_11  and  C_18 
REMARK    7  A    between atoms: C_18  and  C_19 
REMARK    8  A    between atoms: C_19  and  C_20 
ROOT
HETATM    1  O           1     -25.859  -6.348 -17.025  0.00  0.00    -0.271 OA
HETATM    2  N           1     -27.529  -6.386 -18.506  0.00  0.00    -0.343 N 
HETATM    3  H           1     -27.817  -6.465 -19.474  0.00  0.00     0.163 HD
HETATM    4  C           1     -26.201  -6.442 -18.179  0.00  0.00     0.249 C 
ENDROOT
BRANCH   2   5
HETATM    5  C           1     -28.526  -6.217 -17.466  0.00  0.00     0.214 C 
BRANCH   5   6
HETATM    6  C           1     -29.190  -4.855 -17.618  0.00  0.00     0.147 C 
HETATM    7  C           1     -28.374  -3.808 -16.871  0.00  0.00     0.042 C 
BRANCH   6   8
HETATM    8  O           1     -29.256  -4.516 -18.977  0.00  0.00    -0.393 OA
HETATM    9  H           1     -28.604  -5.032 -19.419  0.00  0.00     0.210 HD
ENDBRANCH   6   8
ENDBRANCH   5   6
BRANCH   5  10
HETATM   10  C           1     -29.568  -7.302 -17.588  0.00  0.00     0.199 C 
HETATM   11  O           1     -30.563  -7.134 -18.325  0.00  0.00    -0.646 OA
HETATM   12  O           1     -29.434  -8.370 -16.952  0.00  0.00    -0.646 OA
ENDBRANCH   5  10
ENDBRANCH   2   5
BRANCH   4  13
HETATM   13  C           1     -25.165  -6.619 -19.262  0.00  0.00     0.274 C 
BRANCH  13  14
HETATM   14  N           1     -24.119  -7.590 -18.797  0.00  0.00    -0.067 N 
HETATM   15  H           1     -24.281  -8.519 -19.245  0.00  0.00     0.275 HD
HETATM   16  H           1     -23.172  -7.235 -19.065  0.00  0.00     0.275 HD
HETATM   17  H           1     -24.173  -7.690 -17.759  0.00  0.00     0.275 HD
ENDBRANCH  13  14
BRANCH  13  18
HETATM   18  C           1     -25.832  -7.159 -20.520  0.00  0.00     0.045 C 
BRANCH  18  19
HETATM   19 Se           1     -24.473  -7.869 -21.724  0.00  0.00     0.000 Se
HETATM   20  H           1     -24.721  -9.274 -21.363  0.00  0.00     0.000 HD
ENDBRANCH  18  19
ENDBRANCH  13  18
ENDBRANCH   4  13
TORSDOF 8
ENDMDL
MODEL 5
REMARK VINA RESULT:      -4.2      3.816      6.155
REMARK  8 active torsions:
REMARK  status: ('A' for Active; 'I' for Inactive)
REMARK    1  A    between atoms: Se_1  and  C_20 
REMARK    2  A    between atoms: N_2  and  C_19 
REMARK    3  A    between atoms: C_5  and  O_6 
REMARK    4  A    between atoms: C_5  and  C_7 
REMARK    5  A    between atoms: C_7  and  C_8 
REMARK    6  A    between atoms: C_7  and  N_11 
REMARK       I    between atoms: N_11  and  C_18 
REMARK    7  A    between atoms: C_18  and  C_19 
REMARK    8  A    between atoms: C_19  and  C_20 
ROOT
HETATM    1  O           1     -20.337  -4.409  -6.196  0.00  0.00    -0.271 OA
HETATM    2  N           1     -21.101  -6.491  -6.458  0.00  0.00    -0.343 N 
HETATM    3  H           1     -21.572  -7.164  -7.050  0.00  0.00     0.163 HD
HETATM    4  C           1     -20.898  -5.212  -6.902  0.00  0.00     0.249 C 
ENDROOT
BRANCH   2   5
HETATM    5  C           1     -20.638  -6.884  -5.140  0.00  0.00     0.214 C 
BRANCH   5   6
HETATM    6  C           1     -21.815  -6.899  -4.174  0.00  0.00     0.147 C 
HETATM    7  C           1     -21.442  -6.133  -2.911  0.00  0.00     0.042 C 
BRANCH   6   8
HETATM    8  O           1     -22.925  -6.292  -4.779  0.00  0.00    -0.393 OA
HETATM    9  H           1     -22.663  -5.419  -5.017  0.00  0.00     0.210 HD
ENDBRANCH   6   8
ENDBRANCH   5   6
BRANCH   5  10
HETATM   10  C           1     -20.028  -8.262  -5.213  0.00  0.00     0.199 C 
HETATM   11  O           1     -19.088  -8.488  -6.004  0.00  0.00    -0.646 OA
HETATM   12  O           1     -20.464  -9.178  -4.481  0.00  0.00    -0.646 OA
ENDBRANCH   5  10
ENDBRANCH   2   5
BRANCH   4  13
HETATM   13  C           1     -21.379  -4.804  -8.272  0.00  0.00     0.274 C 
BRANCH  13  14
HETATM   14  N           1     -22.360  -3.675  -8.143  0.00  0.00    -0.067 N 
HETATM   15  H           1     -23.089  -3.926  -7.438  0.00  0.00     0.275 HD
HETATM   16  H           1     -21.858  -2.813  -7.832  0.00  0.00     0.275 HD
HETATM   17  H           1     -22.814  -3.501  -9.067  0.00  0.00     0.275 HD
ENDBRANCH  13  14
BRANCH  13  18
HETATM   18  C           1     -20.193  -4.349  -9.112  0.00  0.00     0.045 C 
BRANCH  18  19
HETATM   19 Se           1     -20.763  -4.085 -10.957  0.00  0.00     0.000 Se
HETATM   20  H           1     -21.060  -5.508 -11.191  0.00  0.00     0.000 HD
ENDBRANCH  18  19
ENDBRANCH  13  18
ENDBRANCH   4  13
TORSDOF 8
ENDMDL
MODEL 6
REMARK VINA RESULT:      -4.1      6.809      8.781
REMARK  8 active torsions:
REMARK  status: ('A' for Active; 'I' for Inactive)
REMARK    1  A    between atoms: Se_1  and  C_20 
REMARK    2  A    between atoms: N_2  and  C_19 
REMARK    3  A    between atoms: C_5  and  O_6 
REMARK    4  A    between atoms: C_5  and  C_7 
REMARK    5  A    between atoms: C_7  and  C_8 
REMARK    6  A    between atoms: C_7  and  N_11 
REMARK       I    between atoms: N_11  and  C_18 
REMARK    7  A    between atoms: C_18  and  C_19 
REMARK    8  A    between atoms: C_19  and  C_20 
ROOT
HETATM    1  O           1     -19.238  -8.974  -2.993  0.00  0.00    -0.271 OA
HETATM    2  N           1     -21.391  -8.457  -2.701  0.00  0.00    -0.343 N 
HETATM    3  H           1     -22.275  -8.196  -3.119  0.00  0.00     0.163 HD
HETATM    4  C           1     -20.293  -8.663  -3.492  0.00  0.00     0.249 C 
ENDROOT
BRANCH   2   5
HETATM    5  C           1     -21.288  -8.615  -1.262  0.00  0.00     0.214 C 
BRANCH   5   6
HETATM    6  C           1     -21.939  -7.423  -0.574  0.00  0.00     0.147 C 
HETATM    7  C           1     -22.292  -6.368  -1.615  0.00  0.00     0.042 C 
BRANCH   6   8
HETATM    8  O           1     -23.105  -7.842   0.082  0.00  0.00    -0.393 OA
HETATM    9  H           1     -22.912  -7.853   1.004  0.00  0.00     0.210 HD
ENDBRANCH   6   8
ENDBRANCH   5   6
BRANCH   5  10
HETATM   10  C           1     -21.991  -9.883  -0.845  0.00  0.00     0.199 C 
HETATM   11  O           1     -22.873 -10.380  -1.578  0.00  0.00    -0.646 OA
HETATM   12  O           1     -21.690 -10.439   0.234  0.00  0.00    -0.646 OA
ENDBRANCH   5  10
ENDBRANCH   2   5
BRANCH   4  13
HETATM   13  C           1     -20.400  -8.500  -4.988  0.00  0.00     0.274 C 
BRANCH  13  14
HETATM   14  N           1     -20.677  -9.833  -5.618  0.00  0.00    -0.067 N 
HETATM   15  H           1     -19.778 -10.267  -5.926  0.00  0.00     0.275 HD
HETATM   16  H           1     -21.143 -10.457  -4.920  0.00  0.00     0.275 HD
HETATM   17  H           1     -21.303  -9.705  -6.444  0.00  0.00     0.275 HD
ENDBRANCH  13  14
BRANCH  13  18
HETATM   18  C           1     -21.538  -7.540  -5.314  0.00  0.00     0.045 C 
BRANCH  18  19
HETATM   19 Se           1     -20.880  -5.707  -5.257  0.00  0.00     0.000 Se
HETATM   20  H           1     -19.727  -5.970  -6.135  0.00  0.00     0.000 HD
ENDBRANCH  18  19
ENDBRANCH  13  18
ENDBRANCH   4  13
TORSDOF 8
ENDMDL
MODEL 7
REMARK VINA RESULT:      -4.1      5.381      6.971
REMARK  8 active torsions:
REMARK  status: ('A' for Active; 'I' for Inactive)
REMARK    1  A    between atoms: Se_1  and  C_20 
REMARK    2  A    between atoms: N_2  and  C_19 
REMARK    3  A    between atoms: C_5  and  O_6 
REMARK    4  A    between atoms: C_5  and  C_7 
REMARK    5  A    between atoms: C_7  and  C_8 
REMARK    6  A    between atoms: C_7  and  N_11 
REMARK       I    between atoms: N_11  and  C_18 
REMARK    7  A    between atoms: C_18  and  C_19 
REMARK    8  A    between atoms: C_19  and  C_20 
ROOT
HETATM    1  O           1     -21.053  -9.653  -5.653  0.00  0.00    -0.271 OA
HETATM    2  N           1     -20.304  -8.167  -4.164  0.00  0.00    -0.343 N 
HETATM    3  H           1     -19.523  -7.805  -3.631  0.00  0.00     0.163 HD
HETATM    4  C           1     -20.121  -9.222  -5.017  0.00  0.00     0.249 C 
ENDROOT
BRANCH   2   5
HETATM    5  C           1     -21.617  -7.565  -4.025  0.00  0.00     0.214 C 
BRANCH   5   6
HETATM    6  C           1     -21.883  -7.262  -2.557  0.00  0.00     0.147 C 
HETATM    7  C           1     -20.670  -7.665  -1.729  0.00  0.00     0.042 C 
BRANCH   6   8
HETATM    8  O           1     -22.122  -5.890  -2.399  0.00  0.00    -0.393 OA
HETATM    9  H           1     -22.984  -5.722  -2.740  0.00  0.00     0.210 HD
ENDBRANCH   6   8
ENDBRANCH   5   6
BRANCH   5  10
HETATM   10  C           1     -21.668  -6.284  -4.821  0.00  0.00     0.199 C 
HETATM   11  O           1     -22.745  -5.903  -5.326  0.00  0.00    -0.646 OA
HETATM   12  O           1     -20.630  -5.602  -4.975  0.00  0.00    -0.646 OA
ENDBRANCH   5  10
ENDBRANCH   2   5
BRANCH   4  13
HETATM   13  C           1     -18.756  -9.847  -5.162  0.00  0.00     0.274 C 
BRANCH  13  14
HETATM   14  N           1     -18.071  -9.278  -6.371  0.00  0.00    -0.067 N 
HETATM   15  H           1     -18.779  -8.826  -6.992  0.00  0.00     0.275 HD
HETATM   16  H           1     -17.368  -8.566  -6.069  0.00  0.00     0.275 HD
HETATM   17  H           1     -17.591 -10.045  -6.892  0.00  0.00     0.275 HD
ENDBRANCH  13  14
BRANCH  13  18
HETATM   18  C           1     -17.925  -9.545  -3.922  0.00  0.00     0.045 C 
BRANCH  18  19
HETATM   19 Se           1     -16.062 -10.011  -4.256  0.00  0.00     0.000 Se
HETATM   20  H           1     -15.594  -9.575  -2.930  0.00  0.00     0.000 HD
ENDBRANCH  18  19
ENDBRANCH  13  18
ENDBRANCH   4  13
TORSDOF 8
ENDMDL
MODEL 8
REMARK VINA RESULT:      -4.0     12.086     13.593
REMARK  8 active torsions:
REMARK  status: ('A' for Active; 'I' for Inactive)
REMARK    1  A    between atoms: Se_1  and  C_20 
REMARK    2  A    between atoms: N_2  and  C_19 
REMARK    3  A    between atoms: C_5  and  O_6 
REMARK    4  A    between atoms: C_5  and  C_7 
REMARK    5  A    between atoms: C_7  and  C_8 
REMARK    6  A    between atoms: C_7  and  N_11 
REMARK       I    between atoms: N_11  and  C_18 
REMARK    7  A    between atoms: C_18  and  C_19 
REMARK    8  A    between atoms: C_19  and  C_20 
ROOT
HETATM    1  O           1     -32.944  -2.922 -17.551  0.00  0.00    -0.271 OA
HETATM    2  N           1     -32.913  -4.585 -16.062  0.00  0.00    -0.343 N 
HETATM    3  H           1     -32.412  -5.368 -15.660  0.00  0.00     0.163 HD
HETATM    4  C           1     -32.347  -3.856 -17.072  0.00  0.00     0.249 C 
ENDROOT
BRANCH   2   5
HETATM    5  C           1     -34.230  -4.235 -15.564  0.00  0.00     0.214 C 
BRANCH   5   6
HETATM    6  C           1     -35.110  -5.477 -15.542  0.00  0.00     0.147 C 
HETATM    7  C           1     -34.460  -6.573 -16.376  0.00  0.00     0.042 C 
BRANCH   6   8
HETATM    8  O           1     -35.259  -5.921 -14.220  0.00  0.00    -0.393 OA
HETATM    9  H           1     -35.141  -6.855 -14.230  0.00  0.00     0.210 HD
ENDBRANCH   6   8
ENDBRANCH   5   6
BRANCH   5  10
HETATM   10  C           1     -34.106  -3.680 -14.166  0.00  0.00     0.199 C 
HETATM   11  O           1     -33.236  -4.128 -13.390  0.00  0.00    -0.646 OA
HETATM   12  O           1     -34.875  -2.770 -13.785  0.00  0.00    -0.646 OA
ENDBRANCH   5  10
ENDBRANCH   2   5
BRANCH   4  13
HETATM   13  C           1     -30.977  -4.219 -17.589  0.00  0.00     0.274 C 
BRANCH  13  14
HETATM   14  N           1     -30.119  -2.990 -17.638  0.00  0.00    -0.067 N 
HETATM   15  H           1     -29.872  -2.775 -18.630  0.00  0.00     0.275 HD
HETATM   16  H           1     -30.643  -2.183 -17.228  0.00  0.00     0.275 HD
HETATM   17  H           1     -29.245  -3.153 -17.089  0.00  0.00     0.275 HD
ENDBRANCH  13  14
BRANCH  13  18
HETATM   18  C           1     -30.340  -5.245 -16.661  0.00  0.00     0.045 C 
BRANCH  18  19
HETATM   19 Se           1     -30.384  -7.002 -17.503  0.00  0.00     0.000 Se
HETATM   20  H           1     -29.413  -6.652 -18.553  0.00  0.00     0.000 HD
ENDBRANCH  18  19
ENDBRANCH  13  18
ENDBRANCH   4  13
TORSDOF 8
ENDMDL
MODEL 9
REMARK VINA RESULT:      -3.9      7.628      9.029
REMARK  8 active torsions:
REMARK  status: ('A' for Active; 'I' for Inactive)
REMARK    1  A    between atoms: Se_1  and  C_20 
REMARK    2  A    between atoms: N_2  and  C_19 
REMARK    3  A    between atoms: C_5  and  O_6 
REMARK    4  A    between atoms: C_5  and  C_7 
REMARK    5  A    between atoms: C_7  and  C_8 
REMARK    6  A    between atoms: C_7  and  N_11 
REMARK       I    between atoms: N_11  and  C_18 
REMARK    7  A    between atoms: C_18  and  C_19 
REMARK    8  A    between atoms: C_19  and  C_20 
ROOT
HETATM    1  O           1     -19.538  -9.561  -2.842  0.00  0.00    -0.271 OA
HETATM    2  N           1     -21.556  -8.631  -2.624  0.00  0.00    -0.343 N 
HETATM    3  H           1     -22.413  -8.325  -3.069  0.00  0.00     0.163 HD
HETATM    4  C           1     -20.560  -9.196  -3.373  0.00  0.00     0.249 C 
ENDROOT
BRANCH   2   5
HETATM    5  C           1     -21.386  -8.471  -1.192  0.00  0.00     0.214 C 
BRANCH   5   6
HETATM    6  C           1     -22.013  -7.156  -0.751  0.00  0.00     0.147 C 
HETATM    7  C           1     -22.227  -6.264  -1.967  0.00  0.00     0.042 C 
BRANCH   6   8
HETATM    8  O           1     -23.247  -7.410  -0.135  0.00  0.00    -0.393 OA
HETATM    9  H           1     -23.825  -6.707  -0.379  0.00  0.00     0.210 HD
ENDBRANCH   6   8
ENDBRANCH   5   6
BRANCH   5  10
HETATM   10  C           1     -22.060  -9.616  -0.477  0.00  0.00     0.199 C 
HETATM   11  O           1     -21.620 -10.011   0.624  0.00  0.00    -0.646 OA
HETATM   12  O           1     -23.060 -10.168  -0.985  0.00  0.00    -0.646 OA
ENDBRANCH   5  10
ENDBRANCH   2   5
BRANCH   4  13
HETATM   13  C           1     -20.737  -9.363  -4.862  0.00  0.00     0.274 C 
BRANCH  13  14
HETATM   14  N           1     -20.136  -8.186  -5.572  0.00  0.00    -0.067 N 
HETATM   15  H           1     -19.281  -7.869  -5.060  0.00  0.00     0.275 HD
HETATM   16  H           1     -19.875  -8.462  -6.545  0.00  0.00     0.275 HD
HETATM   17  H           1     -20.830  -7.407  -5.604  0.00  0.00     0.275 HD
ENDBRANCH  13  14
BRANCH  13  18
HETATM   18  C           1     -20.040 -10.638  -5.317  0.00  0.00     0.045 C 
BRANCH  18  19
HETATM   19 Se           1     -21.258 -11.691  -6.415  0.00  0.00     0.000 Se
HETATM   20  H           1     -22.461 -11.294  -5.666  0.00  0.00     0.000 HD
ENDBRANCH  18  19
ENDBRANCH  13  18
ENDBRANCH   4  13
TORSDOF 8
ENDMDL
