MODEL 1
REMARK VINA RESULT:      -5.6      0.000      0.000
REMARK  8 active torsions:
REMARK  status: ('A' for Active; 'I' for Inactive)
REMARK    1  A    between atoms: C_1  and  C_13 
REMARK    2  A    between atoms: C_1  and  C_3 
REMARK    3  A    between atoms: C_3  and  C_4 
REMARK    4  A    between atoms: C_3  and  N_9 
REMARK    5  A    between atoms: N_6  and  C_14 
REMARK       I    between atoms: N_9  and  C_19 
REMARK    6  A    between atoms: C_14  and  C_19 
REMARK    7  A    between atoms: C_14  and  C_15 
REMARK    8  A    between atoms: C_15  and  S_16 
ROOT
HETATM    1  O           1     -24.724  -6.399 -18.323  0.00  0.00    -0.271 OA
HETATM    2  N           1     -26.936  -6.675 -18.189  0.00  0.00    -0.344 N 
HETATM    3  H           1     -27.782  -7.037 -18.610  0.00  0.00     0.163 HD
HETATM    4  C           1     -25.735  -6.831 -18.826  0.00  0.00     0.249 C 
ENDROOT
BRANCH   2   5
HETATM    5  C           1     -26.997  -5.992 -16.912  0.00  0.00     0.189 C 
BRANCH   5   6
HETATM    6  C           1     -28.354  -5.316 -16.762  0.00  0.00     0.014 C 
HETATM    7  C           1     -28.179  -3.805 -16.836  0.00  0.00     0.012 C 
BRANCH   6   8
HETATM    8  C           1     -29.276  -5.776 -17.883  0.00  0.00     0.002 C 
HETATM    9  C           1     -30.536  -6.389 -17.288  0.00  0.00     0.005 C 
ENDBRANCH   6   8
ENDBRANCH   5   6
BRANCH   5  10
HETATM   10  C           1     -26.807  -6.992 -15.798  0.00  0.00     0.197 C 
HETATM   11  O           1     -27.802  -7.465 -15.207  0.00  0.00    -0.646 OA
HETATM   12  O           1     -25.655  -7.349 -15.467  0.00  0.00    -0.646 OA
ENDBRANCH   5  10
ENDBRANCH   2   5
BRANCH   4  13
HETATM   13  C           1     -25.671  -7.542 -20.155  0.00  0.00     0.283 C 
BRANCH  13  14
HETATM   14  N           1     -27.063  -7.832 -20.632  0.00  0.00    -0.066 N 
HETATM   15  H           1     -27.749  -7.294 -20.055  0.00  0.00     0.275 HD
HETATM   16  H           1     -27.154  -7.547 -21.634  0.00  0.00     0.275 HD
HETATM   17  H           1     -27.258  -8.854 -20.540  0.00  0.00     0.275 HD
ENDBRANCH  13  14
BRANCH  13  18
HETATM   18  C           1     -24.961  -6.657 -21.171  0.00  0.00     0.113 C 
BRANCH  18  19
HETATM   19  S           1     -24.047  -7.695 -22.347  0.00  0.00    -0.180 SA
HETATM   20  H           1     -23.402  -6.684 -22.955  0.00  0.00     0.101 HD
ENDBRANCH  18  19
ENDBRANCH  13  18
ENDBRANCH   4  13
TORSDOF 8
ENDMDL
MODEL 2
REMARK VINA RESULT:      -5.5     11.827     13.877
REMARK  8 active torsions:
REMARK  status: ('A' for Active; 'I' for Inactive)
REMARK    1  A    between atoms: C_1  and  C_13 
REMARK    2  A    between atoms: C_1  and  C_3 
REMARK    3  A    between atoms: C_3  and  C_4 
REMARK    4  A    between atoms: C_3  and  N_9 
REMARK    5  A    between atoms: N_6  and  C_14 
REMARK       I    between atoms: N_9  and  C_19 
REMARK    6  A    between atoms: C_14  and  C_19 
REMARK    7  A    between atoms: C_14  and  C_15 
REMARK    8  A    between atoms: C_15  and  S_16 
ROOT
HETATM    1  O           1     -37.676  -1.369 -10.397  0.00  0.00    -0.271 OA
HETATM    2  N           1     -35.586  -0.869 -11.008  0.00  0.00    -0.344 N 
HETATM    3  H           1     -34.719  -0.396 -10.789  0.00  0.00     0.163 HD
HETATM    4  C           1     -36.640  -0.805 -10.136  0.00  0.00     0.249 C 
ENDROOT
BRANCH   2   5
HETATM    5  C           1     -35.714  -1.614 -12.245  0.00  0.00     0.189 C 
BRANCH   5   6
HETATM    6  C           1     -35.782  -0.643 -13.417  0.00  0.00     0.014 C 
HETATM    7  C           1     -37.219  -0.173 -13.603  0.00  0.00     0.012 C 
BRANCH   6   8
HETATM    8  C           1     -34.888   0.557 -13.134  0.00  0.00     0.002 C 
HETATM    9  C           1     -34.853   1.466 -14.355  0.00  0.00     0.005 C 
ENDBRANCH   6   8
ENDBRANCH   5   6
BRANCH   5  10
HETATM   10  C           1     -34.519  -2.520 -12.411  0.00  0.00     0.197 C 
HETATM   11  O           1     -34.378  -3.182 -13.463  0.00  0.00    -0.646 OA
HETATM   12  O           1     -33.670  -2.609 -11.498  0.00  0.00    -0.646 OA
ENDBRANCH   5  10
ENDBRANCH   2   5
BRANCH   4  13
HETATM   13  C           1     -36.507  -0.030  -8.848  0.00  0.00     0.283 C 
BRANCH  13  14
HETATM   14  N           1     -36.419   1.436  -9.155  0.00  0.00    -0.066 N 
HETATM   15  H           1     -37.377   1.814  -9.334  0.00  0.00     0.275 HD
HETATM   16  H           1     -35.995   1.937  -8.342  0.00  0.00     0.275 HD
HETATM   17  H           1     -35.824   1.579 -10.003  0.00  0.00     0.275 HD
ENDBRANCH  13  14
BRANCH  13  18
HETATM   18  C           1     -37.724  -0.291  -7.970  0.00  0.00     0.113 C 
BRANCH  18  19
HETATM   19  S           1     -37.555   0.622  -6.410  0.00  0.00    -0.180 SA
HETATM   20  H           1     -38.233  -0.261  -5.657  0.00  0.00     0.101 HD
ENDBRANCH  18  19
ENDBRANCH  13  18
ENDBRANCH   4  13
TORSDOF 8
ENDMDL
MODEL 3
REMARK VINA RESULT:      -5.3     12.044     13.881
REMARK  8 active torsions:
REMARK  status: ('A' for Active; 'I' for Inactive)
REMARK    1  A    between atoms: C_1  and  C_13 
REMARK    2  A    between atoms: C_1  and  C_3 
REMARK    3  A    between atoms: C_3  and  C_4 
REMARK    4  A    between atoms: C_3  and  N_9 
REMARK    5  A    between atoms: N_6  and  C_14 
REMARK       I    between atoms: N_9  and  C_19 
REMARK    6  A    between atoms: C_14  and  C_19 
REMARK    7  A    between atoms: C_14  and  C_15 
REMARK    8  A    between atoms: C_15  and  S_16 
ROOT
HETATM    1  O           1     -35.961   1.011 -10.842  0.00  0.00    -0.271 OA
HETATM    2  N           1     -36.275  -1.184 -11.122  0.00  0.00    -0.344 N 
HETATM    3  H           1     -36.813  -2.009 -10.891  0.00  0.00     0.163 HD
HETATM    4  C           1     -36.603   0.024 -10.567  0.00  0.00     0.249 C 
ENDROOT
BRANCH   2   5
HETATM    5  C           1     -35.156  -1.280 -12.038  0.00  0.00     0.189 C 
BRANCH   5   6
HETATM    6  C           1     -34.358  -2.542 -11.734  0.00  0.00     0.014 C 
HETATM    7  C           1     -33.273  -2.223 -10.714  0.00  0.00     0.012 C 
BRANCH   6   8
HETATM    8  C           1     -35.290  -3.606 -11.168  0.00  0.00     0.002 C 
HETATM    9  C           1     -34.472  -4.800 -10.694  0.00  0.00     0.005 C 
ENDBRANCH   6   8
ENDBRANCH   5   6
BRANCH   5  10
HETATM   10  C           1     -35.671  -1.339 -13.455  0.00  0.00     0.197 C 
HETATM   11  O           1     -34.955  -1.820 -14.361  0.00  0.00    -0.646 OA
HETATM   12  O           1     -36.814  -0.909 -13.723  0.00  0.00    -0.646 OA
ENDBRANCH   5  10
ENDBRANCH   2   5
BRANCH   4  13
HETATM   13  C           1     -37.768   0.126  -9.613  0.00  0.00     0.283 C 
BRANCH  13  14
HETATM   14  N           1     -37.589  -0.864  -8.501  0.00  0.00    -0.066 N 
HETATM   15  H           1     -38.525  -1.177  -8.157  0.00  0.00     0.275 HD
HETATM   16  H           1     -37.055  -1.691  -8.853  0.00  0.00     0.275 HD
HETATM   17  H           1     -37.062  -0.417  -7.717  0.00  0.00     0.275 HD
ENDBRANCH  13  14
BRANCH  13  18
HETATM   18  C           1     -37.830   1.532  -9.035  0.00  0.00     0.113 C 
BRANCH  18  19
HETATM   19  S           1     -37.282   1.502  -7.304  0.00  0.00    -0.180 SA
HETATM   20  H           1     -36.830   2.768  -7.278  0.00  0.00     0.101 HD
ENDBRANCH  18  19
ENDBRANCH  13  18
ENDBRANCH   4  13
TORSDOF 8
ENDMDL
MODEL 4
REMARK VINA RESULT:      -5.2     10.110     11.883
REMARK  8 active torsions:
REMARK  status: ('A' for Active; 'I' for Inactive)
REMARK    1  A    between atoms: C_1  and  C_13 
REMARK    2  A    between atoms: C_1  and  C_3 
REMARK    3  A    between atoms: C_3  and  C_4 
REMARK    4  A    between atoms: C_3  and  N_9 
REMARK    5  A    between atoms: N_6  and  C_14 
REMARK       I    between atoms: N_9  and  C_19 
REMARK    6  A    between atoms: C_14  and  C_19 
REMARK    7  A    between atoms: C_14  and  C_15 
REMARK    8  A    between atoms: C_15  and  S_16 
ROOT
HETATM    1  O           1     -34.633  -3.245 -13.406  0.00  0.00    -0.271 OA
HETATM    2  N           1     -34.731  -1.320 -12.276  0.00  0.00    -0.344 N 
HETATM    3  H           1     -34.415  -0.773 -11.485  0.00  0.00     0.163 HD
HETATM    4  C           1     -34.256  -2.591 -12.461  0.00  0.00     0.249 C 
ENDROOT
BRANCH   2   5
HETATM    5  C           1     -35.685  -0.759 -13.212  0.00  0.00     0.189 C 
BRANCH   5   6
HETATM    6  C           1     -36.789  -0.044 -12.443  0.00  0.00     0.014 C 
HETATM    7  C           1     -38.073  -0.066 -13.262  0.00  0.00     0.012 C 
BRANCH   6   8
HETATM    8  C           1     -37.022  -0.754 -11.115  0.00  0.00     0.002 C 
HETATM    9  C           1     -37.133   0.277 -10.000  0.00  0.00     0.005 C 
ENDBRANCH   6   8
ENDBRANCH   5   6
BRANCH   5  10
HETATM   10  C           1     -34.982   0.226 -14.115  0.00  0.00     0.197 C 
HETATM   11  O           1     -34.789  -0.057 -15.317  0.00  0.00    -0.646 OA
HETATM   12  O           1     -34.596   1.325 -13.661  0.00  0.00    -0.646 OA
ENDBRANCH   5  10
ENDBRANCH   2   5
BRANCH   4  13
HETATM   13  C           1     -33.263  -3.176 -11.488  0.00  0.00     0.283 C 
BRANCH  13  14
HETATM   14  N           1     -33.859  -3.182 -10.111  0.00  0.00    -0.066 N 
HETATM   15  H           1     -34.822  -3.588 -10.149  0.00  0.00     0.275 HD
HETATM   16  H           1     -33.264  -3.761  -9.476  0.00  0.00     0.275 HD
HETATM   17  H           1     -33.909  -2.203  -9.748  0.00  0.00     0.275 HD
ENDBRANCH  13  14
BRANCH  13  18
HETATM   18  C           1     -32.927  -4.603 -11.901  0.00  0.00     0.113 C 
BRANCH  18  19
HETATM   19  S           1     -33.957  -5.766 -10.961  0.00  0.00    -0.180 SA
HETATM   20  H           1     -34.647  -6.227 -12.019  0.00  0.00     0.101 HD
ENDBRANCH  18  19
ENDBRANCH  13  18
ENDBRANCH   4  13
TORSDOF 8
ENDMDL
MODEL 5
REMARK VINA RESULT:      -5.1      1.995      2.404
REMARK  8 active torsions:
REMARK  status: ('A' for Active; 'I' for Inactive)
REMARK    1  A    between atoms: C_1  and  C_13 
REMARK    2  A    between atoms: C_1  and  C_3 
REMARK    3  A    between atoms: C_3  and  C_4 
REMARK    4  A    between atoms: C_3  and  N_9 
REMARK    5  A    between atoms: N_6  and  C_14 
REMARK       I    between atoms: N_9  and  C_19 
REMARK    6  A    between atoms: C_14  and  C_19 
REMARK    7  A    between atoms: C_14  and  C_15 
REMARK    8  A    between atoms: C_15  and  S_16 
ROOT
HETATM    1  O           1     -27.120  -5.839 -20.471  0.00  0.00    -0.271 OA
HETATM    2  N           1     -26.882  -6.363 -18.313  0.00  0.00    -0.344 N 
HETATM    3  H           1     -26.309  -6.780 -17.590  0.00  0.00     0.163 HD
HETATM    4  C           1     -26.436  -6.336 -19.607  0.00  0.00     0.249 C 
ENDROOT
BRANCH   2   5
HETATM    5  C           1     -28.172  -5.796 -17.978  0.00  0.00     0.189 C 
BRANCH   5   6
HETATM    6  C           1     -29.071  -6.883 -17.401  0.00  0.00     0.014 C 
HETATM    7  C           1     -30.267  -6.240 -16.713  0.00  0.00     0.012 C 
BRANCH   6   8
HETATM    8  C           1     -29.557  -7.787 -18.526  0.00  0.00     0.002 C 
HETATM    9  C           1     -31.075  -7.704 -18.625  0.00  0.00     0.005 C 
ENDBRANCH   6   8
ENDBRANCH   5   6
BRANCH   5  10
HETATM   10  C           1     -27.990  -4.700 -16.957  0.00  0.00     0.197 C 
HETATM   11  O           1     -28.422  -3.550 -17.190  0.00  0.00    -0.646 OA
HETATM   12  O           1     -27.407  -4.942 -15.878  0.00  0.00    -0.646 OA
ENDBRANCH   5  10
ENDBRANCH   2   5
BRANCH   4  13
HETATM   13  C           1     -25.092  -6.927 -19.957  0.00  0.00     0.283 C 
BRANCH  13  14
HETATM   14  N           1     -24.469  -7.510 -18.723  0.00  0.00    -0.066 N 
HETATM   15  H           1     -25.160  -8.131 -18.243  0.00  0.00     0.275 HD
HETATM   16  H           1     -23.627  -8.069 -18.989  0.00  0.00     0.275 HD
HETATM   17  H           1     -24.187  -6.739 -18.076  0.00  0.00     0.275 HD
ENDBRANCH  13  14
BRANCH  13  18
HETATM   18  C           1     -25.274  -8.021 -20.999  0.00  0.00     0.113 C 
BRANCH  18  19
HETATM   19  S           1     -23.963  -7.893 -22.249  0.00  0.00    -0.180 SA
HETATM   20  H           1     -24.530  -8.732 -23.134  0.00  0.00     0.101 HD
ENDBRANCH  18  19
ENDBRANCH  13  18
ENDBRANCH   4  13
TORSDOF 8
ENDMDL
MODEL 6
REMARK VINA RESULT:      -5.0     10.198     11.887
REMARK  8 active torsions:
REMARK  status: ('A' for Active; 'I' for Inactive)
REMARK    1  A    between atoms: C_1  and  C_13 
REMARK    2  A    between atoms: C_1  and  C_3 
REMARK    3  A    between atoms: C_3  and  C_4 
REMARK    4  A    between atoms: C_3  and  N_9 
REMARK    5  A    between atoms: N_6  and  C_14 
REMARK       I    between atoms: N_9  and  C_19 
REMARK    6  A    between atoms: C_14  and  C_19 
REMARK    7  A    between atoms: C_14  and  C_15 
REMARK    8  A    between atoms: C_15  and  S_16 
ROOT
HETATM    1  O           1     -21.211  -3.221  -7.186  0.00  0.00    -0.271 OA
HETATM    2  N           1     -22.401  -4.851  -8.143  0.00  0.00    -0.344 N 
HETATM    3  H           1     -22.773  -5.790  -8.081  0.00  0.00     0.163 HD
HETATM    4  C           1     -21.656  -4.342  -7.113  0.00  0.00     0.249 C 
ENDROOT
BRANCH   2   5
HETATM    5  C           1     -22.657  -4.045  -9.320  0.00  0.00     0.189 C 
BRANCH   5   6
HETATM    6  C           1     -21.980  -4.682 -10.527  0.00  0.00     0.014 C 
HETATM    7  C           1     -22.696  -4.246 -11.798  0.00  0.00     0.012 C 
BRANCH   6   8
HETATM    8  C           1     -20.525  -4.235 -10.586  0.00  0.00     0.002 C 
HETATM    9  C           1     -20.436  -2.878 -11.271  0.00  0.00     0.005 C 
ENDBRANCH   6   8
ENDBRANCH   5   6
BRANCH   5  10
HETATM   10  C           1     -24.145  -3.966  -9.561  0.00  0.00     0.197 C 
HETATM   11  O           1     -24.795  -5.007  -9.802  0.00  0.00    -0.646 OA
HETATM   12  O           1     -24.727  -2.861  -9.518  0.00  0.00    -0.646 OA
ENDBRANCH   5  10
ENDBRANCH   2   5
BRANCH   4  13
HETATM   13  C           1     -21.389  -5.181  -5.887  0.00  0.00     0.283 C 
BRANCH  13  14
HETATM   14  N           1     -22.654  -5.872  -5.472  0.00  0.00    -0.066 N 
HETATM   15  H           1     -22.970  -6.511  -6.237  0.00  0.00     0.275 HD
HETATM   16  H           1     -22.478  -6.430  -4.606  0.00  0.00     0.275 HD
HETATM   17  H           1     -23.396  -5.161  -5.285  0.00  0.00     0.275 HD
ENDBRANCH  13  14
BRANCH  13  18
HETATM   18  C           1     -20.324  -6.221  -6.205  0.00  0.00     0.113 C 
BRANCH  18  19
HETATM   19  S           1     -20.567  -7.681  -5.154  0.00  0.00    -0.180 SA
HETATM   20  H           1     -19.430  -7.538  -4.450  0.00  0.00     0.101 HD
ENDBRANCH  18  19
ENDBRANCH  13  18
ENDBRANCH   4  13
TORSDOF 8
ENDMDL
MODEL 7
REMARK VINA RESULT:      -4.9      3.152      4.984
REMARK  8 active torsions:
REMARK  status: ('A' for Active; 'I' for Inactive)
REMARK    1  A    between atoms: C_1  and  C_13 
REMARK    2  A    between atoms: C_1  and  C_3 
REMARK    3  A    between atoms: C_3  and  C_4 
REMARK    4  A    between atoms: C_3  and  N_9 
REMARK    5  A    between atoms: N_6  and  C_14 
REMARK       I    between atoms: N_9  and  C_19 
REMARK    6  A    between atoms: C_14  and  C_19 
REMARK    7  A    between atoms: C_14  and  C_15 
REMARK    8  A    between atoms: C_15  and  S_16 
ROOT
HETATM    1  O           1     -28.831  -7.222 -17.002  0.00  0.00    -0.271 OA
HETATM    2  N           1     -27.256  -5.710 -17.475  0.00  0.00    -0.344 N 
HETATM    3  H           1     -27.020  -4.739 -17.635  0.00  0.00     0.163 HD
HETATM    4  C           1     -28.548  -6.062 -17.193  0.00  0.00     0.249 C 
ENDROOT
BRANCH   2   5
HETATM    5  C           1     -26.226  -6.728 -17.545  0.00  0.00     0.189 C 
BRANCH   5   6
HETATM    6  C           1     -25.337  -6.468 -18.755  0.00  0.00     0.014 C 
HETATM    7  C           1     -24.082  -7.325 -18.655  0.00  0.00     0.012 C 
BRANCH   6   8
HETATM    8  C           1     -26.096  -6.825 -20.026  0.00  0.00     0.002 C 
HETATM    9  C           1     -25.219  -7.698 -20.914  0.00  0.00     0.005 C 
ENDBRANCH   6   8
ENDBRANCH   5   6
BRANCH   5  10
HETATM   10  C           1     -25.391  -6.684 -16.288  0.00  0.00     0.197 C 
HETATM   11  O           1     -25.096  -7.746 -15.697  0.00  0.00    -0.646 OA
HETATM   12  O           1     -24.993  -5.587 -15.840  0.00  0.00    -0.646 OA
ENDBRANCH   5  10
ENDBRANCH   2   5
BRANCH   4  13
HETATM   13  C           1     -29.621  -5.003 -17.120  0.00  0.00     0.283 C 
BRANCH  13  14
HETATM   14  N           1     -29.575  -4.162 -18.361  0.00  0.00    -0.066 N 
HETATM   15  H           1     -29.743  -3.161 -18.112  0.00  0.00     0.275 HD
HETATM   16  H           1     -28.636  -4.255 -18.811  0.00  0.00     0.275 HD
HETATM   17  H           1     -30.315  -4.482 -19.027  0.00  0.00     0.275 HD
ENDBRANCH  13  14
BRANCH  13  18
HETATM   18  C           1     -30.985  -5.669 -17.008  0.00  0.00     0.113 C 
BRANCH  18  19
HETATM   19  S           1     -32.270  -4.397 -16.837  0.00  0.00    -0.180 SA
HETATM   20  H           1     -32.503  -4.608 -15.530  0.00  0.00     0.101 HD
ENDBRANCH  18  19
ENDBRANCH  13  18
ENDBRANCH   4  13
TORSDOF 8
ENDMDL
MODEL 8
REMARK VINA RESULT:      -4.7     12.447     14.179
REMARK  8 active torsions:
REMARK  status: ('A' for Active; 'I' for Inactive)
REMARK    1  A    between atoms: C_1  and  C_13 
REMARK    2  A    between atoms: C_1  and  C_3 
REMARK    3  A    between atoms: C_3  and  C_4 
REMARK    4  A    between atoms: C_3  and  N_9 
REMARK    5  A    between atoms: N_6  and  C_14 
REMARK       I    between atoms: N_9  and  C_19 
REMARK    6  A    between atoms: C_14  and  C_19 
REMARK    7  A    between atoms: C_14  and  C_15 
REMARK    8  A    between atoms: C_15  and  S_16 
ROOT
HETATM    1  O           1     -19.724  -5.717  -6.776  0.00  0.00    -0.271 OA
HETATM    2  N           1     -21.454  -6.664  -5.727  0.00  0.00    -0.344 N 
HETATM    3  H           1     -22.458  -6.774  -5.656  0.00  0.00     0.163 HD
HETATM    4  C           1     -20.923  -5.849  -6.690  0.00  0.00     0.249 C 
ENDROOT
BRANCH   2   5
HETATM    5  C           1     -20.580  -7.368  -4.810  0.00  0.00     0.189 C 
BRANCH   5   6
HETATM    6  C           1     -21.313  -7.610  -3.496  0.00  0.00     0.014 C 
HETATM    7  C           1     -20.361  -8.253  -2.496  0.00  0.00     0.012 C 
BRANCH   6   8
HETATM    8  C           1     -21.809  -6.281  -2.942  0.00  0.00     0.002 C 
HETATM    9  C           1     -22.231  -6.461  -1.490  0.00  0.00     0.005 C 
ENDBRANCH   6   8
ENDBRANCH   5   6
BRANCH   5  10
HETATM   10  C           1     -20.180  -8.693  -5.414  0.00  0.00     0.197 C 
HETATM   11  O           1     -18.975  -8.938  -5.638  0.00  0.00    -0.646 OA
HETATM   12  O           1     -21.054  -9.544  -5.688  0.00  0.00    -0.646 OA
ENDBRANCH   5  10
ENDBRANCH   2   5
BRANCH   4  13
HETATM   13  C           1     -21.832  -5.116  -7.646  0.00  0.00     0.283 C 
BRANCH  13  14
HETATM   14  N           1     -22.912  -4.422  -6.871  0.00  0.00    -0.066 N 
HETATM   15  H           1     -23.385  -5.107  -6.239  0.00  0.00     0.275 HD
HETATM   16  H           1     -22.492  -3.655  -6.298  0.00  0.00     0.275 HD
HETATM   17  H           1     -23.613  -4.019  -7.534  0.00  0.00     0.275 HD
ENDBRANCH  13  14
BRANCH  13  18
HETATM   18  C           1     -21.025  -4.087  -8.426  0.00  0.00     0.113 C 
BRANCH  18  19
HETATM   19  S           1     -21.574  -4.069 -10.156  0.00  0.00    -0.180 SA
HETATM   20  H           1     -20.966  -5.215 -10.508  0.00  0.00     0.101 HD
ENDBRANCH  18  19
ENDBRANCH  13  18
ENDBRANCH   4  13
TORSDOF 8
ENDMDL
MODEL 9
REMARK VINA RESULT:      -4.7     13.338     15.147
REMARK  8 active torsions:
REMARK  status: ('A' for Active; 'I' for Inactive)
REMARK    1  A    between atoms: C_1  and  C_13 
REMARK    2  A    between atoms: C_1  and  C_3 
REMARK    3  A    between atoms: C_3  and  C_4 
REMARK    4  A    between atoms: C_3  and  N_9 
REMARK    5  A    between atoms: N_6  and  C_14 
REMARK       I    between atoms: N_9  and  C_19 
REMARK    6  A    between atoms: C_14  and  C_19 
REMARK    7  A    between atoms: C_14  and  C_15 
REMARK    8  A    between atoms: C_15  and  S_16 
ROOT
HETATM    1  O           1     -22.597  -5.903  -5.475  0.00  0.00    -0.271 OA
HETATM    2  N           1     -20.776  -6.794  -4.536  0.00  0.00    -0.344 N 
HETATM    3  H           1     -19.766  -6.844  -4.502  0.00  0.00     0.163 HD
HETATM    4  C           1     -21.390  -5.963  -5.434  0.00  0.00     0.249 C 
ENDROOT
BRANCH   2   5
HETATM    5  C           1     -21.573  -7.602  -3.634  0.00  0.00     0.189 C 
BRANCH   5   6
HETATM    6  C           1     -20.928  -8.973  -3.477  0.00  0.00     0.014 C 
HETATM    7  C           1     -21.818 -10.028  -4.123  0.00  0.00     0.012 C 
BRANCH   6   8
HETATM    8  C           1     -19.566  -8.973  -4.157  0.00  0.00     0.002 C 
HETATM    9  C           1     -18.492  -9.349  -3.145  0.00  0.00     0.005 C 
ENDBRANCH   6   8
ENDBRANCH   5   6
BRANCH   5  10
HETATM   10  C           1     -21.648  -6.924  -2.287  0.00  0.00     0.197 C 
HETATM   11  O           1     -21.049  -7.417  -1.306  0.00  0.00    -0.646 OA
HETATM   12  O           1     -22.308  -5.871  -2.153  0.00  0.00    -0.646 OA
ENDBRANCH   5  10
ENDBRANCH   2   5
BRANCH   4  13
HETATM   13  C           1     -20.561  -5.122  -6.373  0.00  0.00     0.283 C 
BRANCH  13  14
HETATM   14  N           1     -19.963  -6.000  -7.432  0.00  0.00    -0.066 N 
HETATM   15  H           1     -20.633  -6.767  -7.670  0.00  0.00     0.275 HD
HETATM   16  H           1     -19.770  -5.431  -8.288  0.00  0.00     0.275 HD
HETATM   17  H           1     -19.071  -6.415  -7.079  0.00  0.00     0.275 HD
ENDBRANCH  13  14
BRANCH  13  18
HETATM   18  C           1     -21.446  -4.070  -7.028  0.00  0.00     0.113 C 
BRANCH  18  19
HETATM   19  S           1     -21.706  -4.494  -8.774  0.00  0.00    -0.180 SA
HETATM   20  H           1     -22.879  -5.125  -8.592  0.00  0.00     0.101 HD
ENDBRANCH  18  19
ENDBRANCH  13  18
ENDBRANCH   4  13
TORSDOF 8
ENDMDL
