MODEL 1
REMARK VINA RESULT:      -6.3      0.000      0.000
REMARK  8 active torsions:
REMARK  status: ('A' for Active; 'I' for Inactive)
REMARK    1  A    between atoms: N_4  and  C_12 
REMARK    2  A    between atoms: C_7  and  C_8 
REMARK    3  A    between atoms: C_8  and  C_12 
REMARK    4  A    between atoms: S_10  and  C_14 
REMARK    5  A    between atoms: N_11  and  C_15 
REMARK       I    between atoms: N_11  and  C_19 
REMARK    6  A    between atoms: C_12  and  C_19 
REMARK    7  A    between atoms: C_14  and  C_15 
REMARK    8  A    between atoms: C_15  and  C_18 
ROOT
HETATM    1  H           1     -34.041  -1.368 -14.392  0.00  0.00     0.163 HD
HETATM    2  O           1     -36.496  -1.472 -12.442  0.00  0.00    -0.271 OA
HETATM    3  N           1     -34.992  -1.231 -14.075  0.00  0.00    -0.344 N 
HETATM    4  C           1     -35.361  -1.635 -12.820  0.00  0.00     0.249 C 
ENDROOT
BRANCH   4   5
HETATM    5  C           1     -34.348  -2.284 -11.909  0.00  0.00     0.275 C 
BRANCH   5   6
HETATM    6  N           1     -34.170  -1.443 -10.679  0.00  0.00    -0.066 N 
HETATM    7  H           1     -33.993  -2.062  -9.856  0.00  0.00     0.275 HD
HETATM    8  H           1     -33.356  -0.801 -10.813  0.00  0.00     0.275 HD
HETATM    9  H           1     -35.035  -0.881 -10.514  0.00  0.00     0.275 HD
ENDBRANCH   5   6
BRANCH   5  10
HETATM   10  C           1     -34.838  -3.669 -11.509  0.00  0.00     0.046 C 
BRANCH  10  11
HETATM   11  C           1     -33.670  -4.490 -10.983  0.00  0.00    -0.020 C 
HETATM   12  C           1     -32.534  -4.463 -11.997  0.00  0.00     0.009 C 
HETATM   13  C           1     -34.117  -5.928 -10.762  0.00  0.00     0.009 C 
ENDBRANCH  10  11
ENDBRANCH   5  10
ENDBRANCH   4   5
BRANCH   3  14
HETATM   14  C           1     -35.965  -0.607 -14.951  0.00  0.00     0.194 C 
BRANCH  14  15
HETATM   15  C           1     -35.776   0.903 -14.926  0.00  0.00     0.106 C 
BRANCH  15  16
HETATM   16  S           1     -34.515   1.337 -13.695  0.00  0.00    -0.180 SA
HETATM   17  H           1     -34.581   0.179 -13.012  0.00  0.00     0.101 HD
ENDBRANCH  15  16
ENDBRANCH  14  15
BRANCH  14  18
HETATM   18  C           1     -35.771  -1.115 -16.358  0.00  0.00     0.197 C 
HETATM   19  O           1     -34.752  -1.777 -16.649  0.00  0.00    -0.646 OA
HETATM   20  O           1     -36.629  -0.873 -17.235  0.00  0.00    -0.646 OA
ENDBRANCH  14  18
ENDBRANCH   3  14
TORSDOF 8
ENDMDL
MODEL 2
REMARK VINA RESULT:      -6.2      2.006      2.508
REMARK  8 active torsions:
REMARK  status: ('A' for Active; 'I' for Inactive)
REMARK    1  A    between atoms: N_4  and  C_12 
REMARK    2  A    between atoms: C_7  and  C_8 
REMARK    3  A    between atoms: C_8  and  C_12 
REMARK    4  A    between atoms: S_10  and  C_14 
REMARK    5  A    between atoms: N_11  and  C_15 
REMARK       I    between atoms: N_11  and  C_19 
REMARK    6  A    between atoms: C_12  and  C_19 
REMARK    7  A    between atoms: C_14  and  C_15 
REMARK    8  A    between atoms: C_15  and  C_18 
ROOT
HETATM    1  H           1     -35.446  -0.612 -11.608  0.00  0.00     0.163 HD
HETATM    2  O           1     -34.645  -2.760 -13.749  0.00  0.00    -0.271 OA
HETATM    3  N           1     -35.417  -1.071 -12.510  0.00  0.00    -0.344 N 
HETATM    4  C           1     -34.681  -2.213 -12.674  0.00  0.00     0.249 C 
ENDROOT
BRANCH   4   5
HETATM    5  C           1     -33.913  -2.788 -11.509  0.00  0.00     0.275 C 
BRANCH   5   6
HETATM    6  N           1     -33.638  -1.705 -10.507  0.00  0.00    -0.066 N 
HETATM    7  H           1     -34.205  -1.874  -9.646  0.00  0.00     0.275 HD
HETATM    8  H           1     -32.622  -1.710 -10.262  0.00  0.00     0.275 HD
HETATM    9  H           1     -33.894  -0.779 -10.917  0.00  0.00     0.275 HD
ENDBRANCH   5   6
BRANCH   5  10
HETATM   10  C           1     -34.736  -3.889 -10.851  0.00  0.00     0.046 C 
BRANCH  10  11
HETATM   11  C           1     -34.239  -5.247 -11.326  0.00  0.00    -0.020 C 
HETATM   12  C           1     -34.516  -6.292 -10.254  0.00  0.00     0.009 C 
HETATM   13  C           1     -32.742  -5.177 -11.591  0.00  0.00     0.009 C 
ENDBRANCH  10  11
ENDBRANCH   5  10
ENDBRANCH   4   5
BRANCH   3  14
HETATM   14  C           1     -36.155  -0.518 -13.629  0.00  0.00     0.194 C 
BRANCH  14  15
HETATM   15  C           1     -37.535  -0.077 -13.159  0.00  0.00     0.106 C 
BRANCH  15  16
HETATM   16  S           1     -37.618  -0.171 -11.348  0.00  0.00    -0.180 SA
HETATM   17  H           1     -36.288  -0.140 -11.145  0.00  0.00     0.101 HD
ENDBRANCH  15  16
ENDBRANCH  14  15
BRANCH  14  18
HETATM   18  C           1     -35.409   0.671 -14.183  0.00  0.00     0.197 C 
HETATM   19  O           1     -35.682   1.104 -15.323  0.00  0.00    -0.646 OA
HETATM   20  O           1     -34.516   1.222 -13.504  0.00  0.00    -0.646 OA
ENDBRANCH  14  18
ENDBRANCH   3  14
TORSDOF 8
ENDMDL
MODEL 3
REMARK VINA RESULT:      -6.1     12.840     14.410
REMARK  8 active torsions:
REMARK  status: ('A' for Active; 'I' for Inactive)
REMARK    1  A    between atoms: N_4  and  C_12 
REMARK    2  A    between atoms: C_7  and  C_8 
REMARK    3  A    between atoms: C_8  and  C_12 
REMARK    4  A    between atoms: S_10  and  C_14 
REMARK    5  A    between atoms: N_11  and  C_15 
REMARK       I    between atoms: N_11  and  C_19 
REMARK    6  A    between atoms: C_12  and  C_19 
REMARK    7  A    between atoms: C_14  and  C_15 
REMARK    8  A    between atoms: C_15  and  C_18 
ROOT
HETATM    1  H           1     -22.272  -5.660  -9.435  0.00  0.00     0.163 HD
HETATM    2  O           1     -21.765  -3.513  -7.206  0.00  0.00    -0.271 OA
HETATM    3  N           1     -22.279  -4.751  -8.991  0.00  0.00    -0.344 N 
HETATM    4  C           1     -21.756  -4.597  -7.736  0.00  0.00     0.249 C 
ENDROOT
BRANCH   4   5
HETATM    5  C           1     -21.168  -5.784  -7.014  0.00  0.00     0.275 C 
BRANCH   5   6
HETATM    6  N           1     -19.836  -6.125  -7.613  0.00  0.00    -0.066 N 
HETATM    7  H           1     -19.285  -6.699  -6.936  0.00  0.00     0.275 HD
HETATM    8  H           1     -19.980  -6.668  -8.494  0.00  0.00     0.275 HD
HETATM    9  H           1     -19.316  -5.244  -7.828  0.00  0.00     0.275 HD
ENDBRANCH   5   6
BRANCH   5  10
HETATM   10  C           1     -20.988  -5.445  -5.540  0.00  0.00     0.046 C 
BRANCH  10  11
HETATM   11  C           1     -21.825  -6.395  -4.694  0.00  0.00    -0.020 C 
HETATM   12  C           1     -21.483  -6.199  -3.224  0.00  0.00     0.009 C 
HETATM   13  C           1     -21.524  -7.833  -5.097  0.00  0.00     0.009 C 
ENDBRANCH  10  11
ENDBRANCH   5  10
ENDBRANCH   4   5
BRANCH   3  14
HETATM   14  C           1     -22.845  -3.610  -9.686  0.00  0.00     0.194 C 
BRANCH  14  15
HETATM   15  C           1     -22.003  -3.296 -10.915  0.00  0.00     0.106 C 
BRANCH  15  16
HETATM   16  S           1     -20.492  -4.300 -10.889  0.00  0.00    -0.180 SA
HETATM   17  H           1     -19.726  -3.418 -11.556  0.00  0.00     0.101 HD
ENDBRANCH  15  16
ENDBRANCH  14  15
BRANCH  14  18
HETATM   18  C           1     -24.256  -3.931 -10.111  0.00  0.00     0.197 C 
HETATM   19  O           1     -24.769  -5.028  -9.801  0.00  0.00    -0.646 OA
HETATM   20  O           1     -24.914  -3.100 -10.774  0.00  0.00    -0.646 OA
ENDBRANCH  14  18
ENDBRANCH   3  14
TORSDOF 8
ENDMDL
MODEL 4
REMARK VINA RESULT:      -5.7      1.978      2.176
REMARK  8 active torsions:
REMARK  status: ('A' for Active; 'I' for Inactive)
REMARK    1  A    between atoms: N_4  and  C_12 
REMARK    2  A    between atoms: C_7  and  C_8 
REMARK    3  A    between atoms: C_8  and  C_12 
REMARK    4  A    between atoms: S_10  and  C_14 
REMARK    5  A    between atoms: N_11  and  C_15 
REMARK       I    between atoms: N_11  and  C_19 
REMARK    6  A    between atoms: C_12  and  C_19 
REMARK    7  A    between atoms: C_14  and  C_15 
REMARK    8  A    between atoms: C_15  and  C_18 
ROOT
HETATM    1  H           1     -35.399  -2.124 -14.195  0.00  0.00     0.163 HD
HETATM    2  O           1     -34.932   0.683 -12.877  0.00  0.00    -0.271 OA
HETATM    3  N           1     -35.390  -1.115 -14.118  0.00  0.00    -0.344 N 
HETATM    4  C           1     -34.941  -0.520 -12.970  0.00  0.00     0.249 C 
ENDROOT
BRANCH   4   5
HETATM    5  C           1     -34.459  -1.369 -11.820  0.00  0.00     0.275 C 
BRANCH   5   6
HETATM    6  N           1     -35.367  -1.178 -10.641  0.00  0.00    -0.066 N 
HETATM    7  H           1     -35.015  -1.740  -9.834  0.00  0.00     0.275 HD
HETATM    8  H           1     -35.385  -0.166 -10.378  0.00  0.00     0.275 HD
HETATM    9  H           1     -36.332  -1.491 -10.890  0.00  0.00     0.275 HD
ENDBRANCH   5   6
BRANCH   5  10
HETATM   10  C           1     -34.468  -2.835 -12.232  0.00  0.00     0.046 C 
BRANCH  10  11
HETATM   11  C           1     -33.568  -3.632 -11.298  0.00  0.00    -0.020 C 
HETATM   12  C           1     -32.450  -4.282 -12.102  0.00  0.00     0.009 C 
HETATM   13  C           1     -34.385  -4.712 -10.603  0.00  0.00     0.009 C 
ENDBRANCH  10  11
ENDBRANCH   5  10
ENDBRANCH   4   5
BRANCH   3  14
HETATM   14  C           1     -35.854  -0.299 -15.223  0.00  0.00     0.194 C 
BRANCH  14  15
HETATM   15  C           1     -35.472  -0.963 -16.539  0.00  0.00     0.106 C 
BRANCH  15  16
HETATM   16  S           1     -34.798  -2.616 -16.212  0.00  0.00    -0.180 SA
HETATM   17  H           1     -35.957  -3.276 -16.383  0.00  0.00     0.101 HD
ENDBRANCH  15  16
ENDBRANCH  14  15
BRANCH  14  18
HETATM   18  C           1     -37.354  -0.158 -15.148  0.00  0.00     0.197 C 
HETATM   19  O           1     -37.994  -0.750 -14.252  0.00  0.00    -0.646 OA
HETATM   20  O           1     -37.959   0.550 -15.982  0.00  0.00    -0.646 OA
ENDBRANCH  14  18
ENDBRANCH   3  14
TORSDOF 8
ENDMDL
MODEL 5
REMARK VINA RESULT:      -5.6     10.707     12.210
REMARK  8 active torsions:
REMARK  status: ('A' for Active; 'I' for Inactive)
REMARK    1  A    between atoms: N_4  and  C_12 
REMARK    2  A    between atoms: C_7  and  C_8 
REMARK    3  A    between atoms: C_8  and  C_12 
REMARK    4  A    between atoms: S_10  and  C_14 
REMARK    5  A    between atoms: N_11  and  C_15 
REMARK       I    between atoms: N_11  and  C_19 
REMARK    6  A    between atoms: C_12  and  C_19 
REMARK    7  A    between atoms: C_14  and  C_15 
REMARK    8  A    between atoms: C_15  and  C_18 
ROOT
HETATM    1  H           1     -26.089  -6.430 -17.309  0.00  0.00     0.163 HD
HETATM    2  O           1     -26.875  -6.431 -20.346  0.00  0.00    -0.271 OA
HETATM    3  N           1     -26.681  -6.329 -18.124  0.00  0.00    -0.344 N 
HETATM    4  C           1     -26.170  -6.554 -19.374  0.00  0.00     0.249 C 
ENDROOT
BRANCH   4   5
HETATM    5  C           1     -24.724  -6.954 -19.536  0.00  0.00     0.275 C 
BRANCH   5   6
HETATM    6  N           1     -24.198  -7.468 -18.228  0.00  0.00    -0.066 N 
HETATM    7  H           1     -23.440  -8.166 -18.406  0.00  0.00     0.275 HD
HETATM    8  H           1     -23.814  -6.671 -17.672  0.00  0.00     0.275 HD
HETATM    9  H           1     -24.973  -7.924 -17.696  0.00  0.00     0.275 HD
ENDBRANCH   5   6
BRANCH   5  10
HETATM   10  C           1     -24.615  -8.048 -20.590  0.00  0.00     0.046 C 
BRANCH  10  11
HETATM   11  C           1     -23.395  -7.792 -21.463  0.00  0.00    -0.020 C 
HETATM   12  C           1     -23.705  -8.194 -22.899  0.00  0.00     0.009 C 
HETATM   13  C           1     -22.220  -8.614 -20.949  0.00  0.00     0.009 C 
ENDBRANCH  10  11
ENDBRANCH   5  10
ENDBRANCH   4   5
BRANCH   3  14
HETATM   14  C           1     -28.070  -5.943 -17.967  0.00  0.00     0.194 C 
BRANCH  14  15
HETATM   15  C           1     -28.827  -7.053 -17.251  0.00  0.00     0.106 C 
BRANCH  15  16
HETATM   16  S           1     -30.331  -7.461 -18.182  0.00  0.00    -0.180 SA
HETATM   17  H           1     -29.931  -6.909 -19.342  0.00  0.00     0.101 HD
ENDBRANCH  15  16
ENDBRANCH  14  15
BRANCH  14  18
HETATM   18  C           1     -28.150  -4.674 -17.155  0.00  0.00     0.197 C 
HETATM   19  O           1     -27.580  -4.605 -16.045  0.00  0.00    -0.646 OA
HETATM   20  O           1     -28.788  -3.691 -17.591  0.00  0.00    -0.646 OA
ENDBRANCH  14  18
ENDBRANCH   3  14
TORSDOF 8
ENDMDL
MODEL 6
REMARK VINA RESULT:      -5.6      4.320      5.825
REMARK  8 active torsions:
REMARK  status: ('A' for Active; 'I' for Inactive)
REMARK    1  A    between atoms: N_4  and  C_12 
REMARK    2  A    between atoms: C_7  and  C_8 
REMARK    3  A    between atoms: C_8  and  C_12 
REMARK    4  A    between atoms: S_10  and  C_14 
REMARK    5  A    between atoms: N_11  and  C_15 
REMARK       I    between atoms: N_11  and  C_19 
REMARK    6  A    between atoms: C_12  and  C_19 
REMARK    7  A    between atoms: C_14  and  C_15 
REMARK    8  A    between atoms: C_15  and  C_18 
ROOT
HETATM    1  H           1     -32.373  -3.692 -14.259  0.00  0.00     0.163 HD
HETATM    2  O           1     -34.996  -4.904 -15.479  0.00  0.00    -0.271 OA
HETATM    3  N           1     -33.325  -4.035 -14.280  0.00  0.00    -0.344 N 
HETATM    4  C           1     -33.860  -4.495 -15.453  0.00  0.00     0.249 C 
ENDROOT
BRANCH   4   5
HETATM    5  C           1     -33.031  -4.491 -16.713  0.00  0.00     0.275 C 
BRANCH   5   6
HETATM    6  N           1     -33.193  -3.175 -17.414  0.00  0.00    -0.066 N 
HETATM    7  H           1     -32.262  -2.710 -17.503  0.00  0.00     0.275 HD
HETATM    8  H           1     -33.594  -3.337 -18.366  0.00  0.00     0.275 HD
HETATM    9  H           1     -33.837  -2.564 -16.864  0.00  0.00     0.275 HD
ENDBRANCH   5   6
BRANCH   5  10
HETATM   10  C           1     -31.564  -4.698 -16.357  0.00  0.00     0.046 C 
BRANCH  10  11
HETATM   11  C           1     -30.818  -5.240 -17.568  0.00  0.00    -0.020 C 
HETATM   12  C           1     -30.392  -6.676 -17.300  0.00  0.00     0.009 C 
HETATM   13  C           1     -29.585  -4.386 -17.830  0.00  0.00     0.009 C 
ENDBRANCH  10  11
ENDBRANCH   5  10
ENDBRANCH   4   5
BRANCH   3  14
HETATM   14  C           1     -34.121  -4.038 -13.069  0.00  0.00     0.194 C 
BRANCH  14  15
HETATM   15  C           1     -33.277  -4.545 -11.907  0.00  0.00     0.106 C 
BRANCH  15  16
HETATM   16  S           1     -34.189  -5.834 -11.012  0.00  0.00    -0.180 SA
HETATM   17  H           1     -35.363  -5.179 -10.980  0.00  0.00     0.101 HD
ENDBRANCH  15  16
ENDBRANCH  14  15
BRANCH  14  18
HETATM   18  C           1     -34.592  -2.636 -12.774  0.00  0.00     0.197 C 
HETATM   19  O           1     -34.555  -2.197 -11.604  0.00  0.00    -0.646 OA
HETATM   20  O           1     -35.021  -1.912 -13.699  0.00  0.00    -0.646 OA
ENDBRANCH  14  18
ENDBRANCH   3  14
TORSDOF 8
ENDMDL
MODEL 7
REMARK VINA RESULT:      -5.4     12.890     14.545
REMARK  8 active torsions:
REMARK  status: ('A' for Active; 'I' for Inactive)
REMARK    1  A    between atoms: N_4  and  C_12 
REMARK    2  A    between atoms: C_7  and  C_8 
REMARK    3  A    between atoms: C_8  and  C_12 
REMARK    4  A    between atoms: S_10  and  C_14 
REMARK    5  A    between atoms: N_11  and  C_15 
REMARK       I    between atoms: N_11  and  C_19 
REMARK    6  A    between atoms: C_12  and  C_19 
REMARK    7  A    between atoms: C_14  and  C_15 
REMARK    8  A    between atoms: C_15  and  C_18 
ROOT
HETATM    1  H           1     -23.084  -3.691  -8.809  0.00  0.00     0.163 HD
HETATM    2  O           1     -20.570  -5.546  -8.532  0.00  0.00    -0.271 OA
HETATM    3  N           1     -22.329  -4.297  -9.105  0.00  0.00    -0.344 N 
HETATM    4  C           1     -21.471  -4.824  -8.179  0.00  0.00     0.249 C 
ENDROOT
BRANCH   4   5
HETATM    5  C           1     -21.650  -4.502  -6.715  0.00  0.00     0.275 C 
BRANCH   5   6
HETATM    6  N           1     -23.085  -4.711  -6.330  0.00  0.00    -0.066 N 
HETATM    7  H           1     -23.682  -4.701  -7.187  0.00  0.00     0.275 HD
HETATM    8  H           1     -23.184  -5.633  -5.848  0.00  0.00     0.275 HD
HETATM    9  H           1     -23.387  -3.946  -5.685  0.00  0.00     0.275 HD
ENDBRANCH   5   6
BRANCH   5  10
HETATM   10  C           1     -20.763  -5.417  -5.881  0.00  0.00     0.046 C 
BRANCH  10  11
HETATM   11  C           1     -21.633  -6.375  -5.079  0.00  0.00    -0.020 C 
HETATM   12  C           1     -21.342  -6.202  -3.594  0.00  0.00     0.009 C 
HETATM   13  C           1     -21.326  -7.808  -5.492  0.00  0.00     0.009 C 
ENDBRANCH  10  11
ENDBRANCH   5  10
ENDBRANCH   4   5
BRANCH   3  14
HETATM   14  C           1     -22.157  -4.606 -10.511  0.00  0.00     0.194 C 
BRANCH  14  15
HETATM   15  C           1     -23.514  -4.602 -11.202  0.00  0.00     0.106 C 
BRANCH  15  16
HETATM   16  S           1     -24.716  -3.713 -10.172  0.00  0.00    -0.180 SA
HETATM   17  H           1     -24.036  -2.553 -10.133  0.00  0.00     0.101 HD
ENDBRANCH  15  16
ENDBRANCH  14  15
BRANCH  14  18
HETATM   18  C           1     -21.266  -3.568 -11.148  0.00  0.00     0.197 C 
HETATM   19  O           1     -21.760  -2.517 -11.608  0.00  0.00    -0.646 OA
HETATM   20  O           1     -20.032  -3.760 -11.216  0.00  0.00    -0.646 OA
ENDBRANCH  14  18
ENDBRANCH   3  14
TORSDOF 8
ENDMDL
MODEL 8
REMARK VINA RESULT:      -5.3     14.871     17.228
REMARK  8 active torsions:
REMARK  status: ('A' for Active; 'I' for Inactive)
REMARK    1  A    between atoms: N_4  and  C_12 
REMARK    2  A    between atoms: C_7  and  C_8 
REMARK    3  A    between atoms: C_8  and  C_12 
REMARK    4  A    between atoms: S_10  and  C_14 
REMARK    5  A    between atoms: N_11  and  C_15 
REMARK       I    between atoms: N_11  and  C_19 
REMARK    6  A    between atoms: C_12  and  C_19 
REMARK    7  A    between atoms: C_14  and  C_15 
REMARK    8  A    between atoms: C_15  and  C_18 
ROOT
HETATM    1  H           1     -19.985  -6.512  -4.889  0.00  0.00     0.163 HD
HETATM    2  O           1     -22.873  -5.629  -5.735  0.00  0.00    -0.271 OA
HETATM    3  N           1     -20.997  -6.498  -4.894  0.00  0.00    -0.344 N 
HETATM    4  C           1     -21.666  -5.647  -5.730  0.00  0.00     0.249 C 
ENDROOT
BRANCH   4   5
HETATM    5  C           1     -20.895  -4.728  -6.646  0.00  0.00     0.275 C 
BRANCH   5   6
HETATM    6  N           1     -19.470  -4.643  -6.184  0.00  0.00    -0.066 N 
HETATM    7  H           1     -19.424  -4.827  -5.156  0.00  0.00     0.275 HD
HETATM    8  H           1     -18.898  -5.357  -6.691  0.00  0.00     0.275 HD
HETATM    9  H           1     -19.095  -3.689  -6.385  0.00  0.00     0.275 HD
ENDBRANCH   5   6
BRANCH   5  10
HETATM   10  C           1     -20.935  -5.276  -8.066  0.00  0.00     0.046 C 
BRANCH  10  11
HETATM   11  C           1     -21.269  -4.152  -9.036  0.00  0.00    -0.020 C 
HETATM   12  C           1     -22.760  -4.173  -9.344  0.00  0.00     0.009 C 
HETATM   13  C           1     -20.482  -4.342 -10.326  0.00  0.00     0.009 C 
ENDBRANCH  10  11
ENDBRANCH   5  10
ENDBRANCH   4   5
BRANCH   3  14
HETATM   14  C           1     -21.738  -7.381  -4.013  0.00  0.00     0.194 C 
BRANCH  14  15
HETATM   15  C           1     -21.136  -8.778  -4.072  0.00  0.00     0.106 C 
BRANCH  15  16
HETATM   16  S           1     -19.535  -8.715  -4.924  0.00  0.00    -0.180 SA
HETATM   17  H           1     -20.041  -8.623  -6.167  0.00  0.00     0.101 HD
ENDBRANCH  15  16
ENDBRANCH  14  15
BRANCH  14  18
HETATM   18  C           1     -21.662  -6.859  -2.600  0.00  0.00     0.197 C 
HETATM   19  O           1     -22.376  -5.895  -2.250  0.00  0.00    -0.646 OA
HETATM   20  O           1     -20.883  -7.389  -1.778  0.00  0.00    -0.646 OA
ENDBRANCH  14  18
ENDBRANCH   3  14
TORSDOF 8
ENDMDL
MODEL 9
REMARK VINA RESULT:      -5.2     14.357     16.212
REMARK  8 active torsions:
REMARK  status: ('A' for Active; 'I' for Inactive)
REMARK    1  A    between atoms: N_4  and  C_12 
REMARK    2  A    between atoms: C_7  and  C_8 
REMARK    3  A    between atoms: C_8  and  C_12 
REMARK    4  A    between atoms: S_10  and  C_14 
REMARK    5  A    between atoms: N_11  and  C_15 
REMARK       I    between atoms: N_11  and  C_19 
REMARK    6  A    between atoms: C_12  and  C_19 
REMARK    7  A    between atoms: C_14  and  C_15 
REMARK    8  A    between atoms: C_15  and  C_18 
ROOT
HETATM    1  H           1     -22.595  -6.673  -6.938  0.00  0.00     0.163 HD
HETATM    2  O           1     -21.168  -3.881  -6.842  0.00  0.00    -0.271 OA
HETATM    3  N           1     -21.985  -5.944  -6.591  0.00  0.00    -0.344 N 
HETATM    4  C           1     -21.897  -4.750  -7.255  0.00  0.00     0.249 C 
ENDROOT
BRANCH   4   5
HETATM    5  C           1     -22.711  -4.521  -8.505  0.00  0.00     0.275 C 
BRANCH   5   6
HETATM    6  N           1     -23.998  -3.840  -8.145  0.00  0.00    -0.066 N 
HETATM    7  H           1     -24.781  -4.259  -8.697  0.00  0.00     0.275 HD
HETATM    8  H           1     -24.185  -3.968  -7.125  0.00  0.00     0.275 HD
HETATM    9  H           1     -23.925  -2.820  -8.362  0.00  0.00     0.275 HD
ENDBRANCH   5   6
BRANCH   5  10
HETATM   10  C           1     -21.925  -3.642  -9.469  0.00  0.00     0.046 C 
BRANCH  10  11
HETATM   11  C           1     -21.361  -4.499 -10.593  0.00  0.00    -0.020 C 
HETATM   12  C           1     -19.873  -4.723 -10.362  0.00  0.00     0.009 C 
HETATM   13  C           1     -21.566  -3.790 -11.925  0.00  0.00     0.009 C 
ENDBRANCH  10  11
ENDBRANCH   5  10
ENDBRANCH   4   5
BRANCH   3  14
HETATM   14  C           1     -21.203  -6.165  -5.390  0.00  0.00     0.194 C 
BRANCH  14  15
HETATM   15  C           1     -22.088  -6.777  -4.313  0.00  0.00     0.106 C 
BRANCH  15  16
HETATM   16  S           1     -21.595  -6.139  -2.687  0.00  0.00    -0.180 SA
HETATM   17  H           1     -22.798  -6.296  -2.105  0.00  0.00     0.101 HD
ENDBRANCH  15  16
ENDBRANCH  14  15
BRANCH  14  18
HETATM   18  C           1     -20.064  -7.104  -5.699  0.00  0.00     0.197 C 
HETATM   19  O           1     -19.732  -7.978  -4.870  0.00  0.00    -0.646 OA
HETATM   20  O           1     -19.450  -7.008  -6.784  0.00  0.00    -0.646 OA
ENDBRANCH  14  18
ENDBRANCH   3  14
TORSDOF 8
ENDMDL
