MODEL 1
REMARK VINA RESULT:      -6.2      0.000      0.000
REMARK  8 active torsions:
REMARK  status: ('A' for Active; 'I' for Inactive)
REMARK    1  A    between atoms: C_4  and  C_10 
REMARK    2  A    between atoms: C_4  and  C_20 
REMARK    3  A    between atoms: C_4  and  N_19 
REMARK    4  A    between atoms: Se_9  and  C_10 
REMARK    5  A    between atoms: C_11  and  C_18 
REMARK    6  A    between atoms: C_11  and  C_12 
REMARK    7  A    between atoms: C_11  and  N_16 
REMARK    8  A    between atoms: C_12  and  C_14 
REMARK       I    between atoms: C_18  and  N_19 
ROOT
HETATM    1  H           1     -35.011  -0.698 -11.494  0.00  0.00     0.163 HD
HETATM    2  O           1     -34.446  -3.080 -13.455  0.00  0.00    -0.271 OA
HETATM    3  C           1     -34.365  -2.416 -12.449  0.00  0.00     0.249 C 
HETATM    4  N           1     -35.079  -1.253 -12.336  0.00  0.00    -0.345 N 
ENDROOT
BRANCH   3   5
HETATM    5  C           1     -33.478  -2.870 -11.315  0.00  0.00     0.278 C 
BRANCH   5   6
HETATM    6  C           1     -34.113  -4.067 -10.620  0.00  0.00     0.021 C 
HETATM    7  C           1     -35.621  -4.038 -10.833  0.00  0.00     0.012 C 
BRANCH   6   8
HETATM    8  C           1     -33.545  -5.354 -11.206  0.00  0.00     0.002 C 
HETATM    9  C           1     -34.265  -6.550 -10.597  0.00  0.00     0.005 C 
ENDBRANCH   6   8
ENDBRANCH   5   6
BRANCH   5  10
HETATM   10  N           1     -33.314  -1.751 -10.331  0.00  0.00    -0.066 N 
HETATM   11  H           1     -33.948  -0.962 -10.589  0.00  0.00     0.275 HD
HETATM   12  H           1     -32.323  -1.420 -10.344  0.00  0.00     0.275 HD
HETATM   13  H           1     -33.555  -2.092  -9.373  0.00  0.00     0.275 HD
ENDBRANCH   5  10
ENDBRANCH   3   5
BRANCH   4  14
HETATM   14  C           1     -35.931  -0.818 -13.426  0.00  0.00     0.185 C 
BRANCH  14  15
HETATM   15  C           1     -37.169  -0.136 -12.859  0.00  0.00     0.039 C 
BRANCH  15  16
HETATM   16 Se           1     -37.043  -0.071 -10.915  0.00  0.00     0.000 Se
HETATM   17  H           1     -36.258  -1.311 -10.808  0.00  0.00     0.000 HD
ENDBRANCH  15  16
ENDBRANCH  14  15
BRANCH  14  18
HETATM   18  C           1     -35.175   0.154 -14.298  0.00  0.00     0.196 C 
HETATM   19  O           1     -34.924  -0.137 -15.487  0.00  0.00    -0.646 OA
HETATM   20  O           1     -34.800   1.252 -13.831  0.00  0.00    -0.646 OA
ENDBRANCH  14  18
ENDBRANCH   4  14
TORSDOF 8
ENDMDL
MODEL 2
REMARK VINA RESULT:      -5.8     12.495     13.751
REMARK  8 active torsions:
REMARK  status: ('A' for Active; 'I' for Inactive)
REMARK    1  A    between atoms: C_4  and  C_10 
REMARK    2  A    between atoms: C_4  and  C_20 
REMARK    3  A    between atoms: C_4  and  N_19 
REMARK    4  A    between atoms: Se_9  and  C_10 
REMARK    5  A    between atoms: C_11  and  C_18 
REMARK    6  A    between atoms: C_11  and  C_12 
REMARK    7  A    between atoms: C_11  and  N_16 
REMARK    8  A    between atoms: C_12  and  C_14 
REMARK       I    between atoms: C_18  and  N_19 
ROOT
HETATM    1  H           1     -23.467  -5.400  -8.671  0.00  0.00     0.163 HD
HETATM    2  O           1     -21.550  -3.149  -7.625  0.00  0.00    -0.271 OA
HETATM    3  C           1     -22.185  -4.177  -7.604  0.00  0.00     0.249 C 
HETATM    4  N           1     -22.936  -4.540  -8.689  0.00  0.00    -0.345 N 
ENDROOT
BRANCH   3   5
HETATM    5  C           1     -22.147  -5.062  -6.382  0.00  0.00     0.278 C 
BRANCH   5   6
HETATM    6  C           1     -21.337  -6.315  -6.686  0.00  0.00     0.021 C 
HETATM    7  C           1     -19.867  -5.947  -6.830  0.00  0.00     0.012 C 
BRANCH   6   8
HETATM    8  C           1     -21.500  -7.313  -5.546  0.00  0.00     0.002 C 
HETATM    9  C           1     -20.126  -7.768  -5.070  0.00  0.00     0.005 C 
ENDBRANCH   6   8
ENDBRANCH   5   6
BRANCH   5  10
HETATM   10  N           1     -23.544  -5.450  -6.003  0.00  0.00    -0.066 N 
HETATM   11  H           1     -23.776  -6.377  -6.425  0.00  0.00     0.275 HD
HETATM   12  H           1     -24.214  -4.730  -6.356  0.00  0.00     0.275 HD
HETATM   13  H           1     -23.618  -5.514  -4.962  0.00  0.00     0.275 HD
ENDBRANCH   5  10
ENDBRANCH   3   5
BRANCH   4  14
HETATM   14  C           1     -22.972  -3.689  -9.863  0.00  0.00     0.185 C 
BRANCH  14  15
HETATM   15  C           1     -22.304  -4.407 -11.029  0.00  0.00     0.039 C 
BRANCH  15  16
HETATM   16 Se           1     -20.384  -4.076 -10.982  0.00  0.00     0.000 Se
HETATM   17  H           1     -20.518  -2.681 -10.534  0.00  0.00     0.000 HD
ENDBRANCH  15  16
ENDBRANCH  14  15
BRANCH  14  18
HETATM   18  C           1     -24.405  -3.379 -10.216  0.00  0.00     0.196 C 
HETATM   19  O           1     -25.145  -2.808  -9.386  0.00  0.00    -0.646 OA
HETATM   20  O           1     -24.855  -3.693 -11.340  0.00  0.00    -0.646 OA
ENDBRANCH  14  18
ENDBRANCH   4  14
TORSDOF 8
ENDMDL
MODEL 3
REMARK VINA RESULT:      -5.7      4.578      5.706
REMARK  8 active torsions:
REMARK  status: ('A' for Active; 'I' for Inactive)
REMARK    1  A    between atoms: C_4  and  C_10 
REMARK    2  A    between atoms: C_4  and  C_20 
REMARK    3  A    between atoms: C_4  and  N_19 
REMARK    4  A    between atoms: Se_9  and  C_10 
REMARK    5  A    between atoms: C_11  and  C_18 
REMARK    6  A    between atoms: C_11  and  C_12 
REMARK    7  A    between atoms: C_11  and  N_16 
REMARK    8  A    between atoms: C_12  and  C_14 
REMARK       I    between atoms: C_18  and  N_19 
ROOT
HETATM    1  H           1     -32.330  -3.717 -14.423  0.00  0.00     0.163 HD
HETATM    2  O           1     -35.017  -4.924 -15.500  0.00  0.00    -0.271 OA
HETATM    3  C           1     -33.884  -4.506 -15.538  0.00  0.00     0.249 C 
HETATM    4  N           1     -33.278  -4.067 -14.391  0.00  0.00    -0.345 N 
ENDROOT
BRANCH   3   5
HETATM    5  C           1     -33.137  -4.470 -16.848  0.00  0.00     0.278 C 
BRANCH   5   6
HETATM    6  C           1     -31.650  -4.674 -16.592  0.00  0.00     0.021 C 
HETATM    7  C           1     -31.250  -6.082 -17.013  0.00  0.00     0.012 C 
BRANCH   6   8
HETATM    8  C           1     -30.852  -3.659 -17.399  0.00  0.00     0.002 C 
HETATM    9  C           1     -29.695  -4.362 -18.098  0.00  0.00     0.005 C 
ENDBRANCH   6   8
ENDBRANCH   5   6
BRANCH   5  10
HETATM   10  N           1     -33.352  -3.142 -17.509  0.00  0.00    -0.066 N 
HETATM   11  H           1     -33.424  -2.397 -16.781  0.00  0.00     0.275 HD
HETATM   12  H           1     -34.234  -3.170 -18.068  0.00  0.00     0.275 HD
HETATM   13  H           1     -32.546  -2.933 -18.141  0.00  0.00     0.275 HD
ENDBRANCH   5  10
ENDBRANCH   3   5
BRANCH   4  14
HETATM   14  C           1     -33.997  -4.101 -13.132  0.00  0.00     0.185 C 
BRANCH  14  15
HETATM   15  C           1     -33.072  -4.613 -12.035  0.00  0.00     0.039 C 
BRANCH  15  16
HETATM   16 Se           1     -34.037  -5.878 -10.910  0.00  0.00     0.000 Se
HETATM   17  H           1     -33.333  -5.495  -9.675  0.00  0.00     0.000 HD
ENDBRANCH  15  16
ENDBRANCH  14  15
BRANCH  14  18
HETATM   18  C           1     -34.471  -2.712 -12.785  0.00  0.00     0.196 C 
HETATM   19  O           1     -35.068  -2.023 -13.640  0.00  0.00    -0.646 OA
HETATM   20  O           1     -34.268  -2.249 -11.642  0.00  0.00    -0.646 OA
ENDBRANCH  14  18
ENDBRANCH   4  14
TORSDOF 8
ENDMDL
MODEL 4
REMARK VINA RESULT:      -5.7     10.969     11.942
REMARK  8 active torsions:
REMARK  status: ('A' for Active; 'I' for Inactive)
REMARK    1  A    between atoms: C_4  and  C_10 
REMARK    2  A    between atoms: C_4  and  C_20 
REMARK    3  A    between atoms: C_4  and  N_19 
REMARK    4  A    between atoms: Se_9  and  C_10 
REMARK    5  A    between atoms: C_11  and  C_18 
REMARK    6  A    between atoms: C_11  and  C_12 
REMARK    7  A    between atoms: C_11  and  N_16 
REMARK    8  A    between atoms: C_12  and  C_14 
REMARK       I    between atoms: C_18  and  N_19 
ROOT
HETATM    1  H           1     -27.625  -6.984 -19.569  0.00  0.00     0.163 HD
HETATM    2  O           1     -26.132  -5.919 -17.025  0.00  0.00    -0.271 OA
HETATM    3  C           1     -26.263  -6.359 -18.143  0.00  0.00     0.249 C 
HETATM    4  N           1     -27.515  -6.616 -18.634  0.00  0.00    -0.345 N 
ENDROOT
BRANCH   3   5
HETATM    5  C           1     -25.048  -6.622 -18.997  0.00  0.00     0.278 C 
BRANCH   5   6
HETATM    6  C           1     -25.488  -7.120 -20.368  0.00  0.00     0.021 C 
HETATM    7  C           1     -25.567  -5.945 -21.333  0.00  0.00     0.012 C 
BRANCH   6   8
HETATM    8  C           1     -24.477  -8.134 -20.888  0.00  0.00     0.002 C 
HETATM    9  C           1     -24.072  -7.765 -22.309  0.00  0.00     0.005 C 
ENDBRANCH   6   8
ENDBRANCH   5   6
BRANCH   5  10
HETATM   10  N           1     -24.192  -7.663 -18.340  0.00  0.00    -0.066 N 
HETATM   11  H           1     -23.210  -7.311 -18.265  0.00  0.00     0.275 HD
HETATM   12  H           1     -24.205  -8.537 -18.912  0.00  0.00     0.275 HD
HETATM   13  H           1     -24.562  -7.866 -17.384  0.00  0.00     0.275 HD
ENDBRANCH   5  10
ENDBRANCH   3   5
BRANCH   4  14
HETATM   14  C           1     -28.683  -6.362 -17.812  0.00  0.00     0.185 C 
BRANCH  14  15
HETATM   15  C           1     -29.428  -5.149 -18.353  0.00  0.00     0.039 C 
BRANCH  15  16
HETATM   16 Se           1     -28.945  -3.572 -17.314  0.00  0.00     0.000 Se
HETATM   17  H           1     -30.300  -3.000 -17.334  0.00  0.00     0.000 HD
ENDBRANCH  15  16
ENDBRANCH  14  15
BRANCH  14  18
HETATM   18  C           1     -29.590  -7.566 -17.841  0.00  0.00     0.196 C 
HETATM   19  O           1     -29.470  -8.462 -16.977  0.00  0.00    -0.646 OA
HETATM   20  O           1     -30.464  -7.669 -18.730  0.00  0.00    -0.646 OA
ENDBRANCH  14  18
ENDBRANCH   4  14
TORSDOF 8
ENDMDL
MODEL 5
REMARK VINA RESULT:      -5.5     11.048     12.076
REMARK  8 active torsions:
REMARK  status: ('A' for Active; 'I' for Inactive)
REMARK    1  A    between atoms: C_4  and  C_10 
REMARK    2  A    between atoms: C_4  and  C_20 
REMARK    3  A    between atoms: C_4  and  N_19 
REMARK    4  A    between atoms: Se_9  and  C_10 
REMARK    5  A    between atoms: C_11  and  C_18 
REMARK    6  A    between atoms: C_11  and  C_12 
REMARK    7  A    between atoms: C_11  and  N_16 
REMARK    8  A    between atoms: C_12  and  C_14 
REMARK       I    between atoms: C_18  and  N_19 
ROOT
HETATM    1  H           1     -26.357  -7.718 -18.413  0.00  0.00     0.163 HD
HETATM    2  O           1     -27.716  -5.507 -20.175  0.00  0.00    -0.271 OA
HETATM    3  C           1     -27.596  -6.300 -19.272  0.00  0.00     0.249 C 
HETATM    4  N           1     -26.457  -7.054 -19.169  0.00  0.00    -0.345 N 
ENDROOT
BRANCH   3   5
HETATM    5  C           1     -28.701  -6.459 -18.256  0.00  0.00     0.278 C 
BRANCH   5   6
HETATM    6  C           1     -29.368  -5.112 -18.014  0.00  0.00     0.021 C 
HETATM    7  C           1     -30.692  -5.323 -17.293  0.00  0.00     0.012 C 
BRANCH   6   8
HETATM    8  C           1     -28.457  -4.243 -17.155  0.00  0.00     0.002 C 
HETATM    9  C           1     -28.956  -2.804 -17.182  0.00  0.00     0.005 C 
ENDBRANCH   6   8
ENDBRANCH   5   6
BRANCH   5  10
HETATM   10  N           1     -28.126  -6.970 -16.969  0.00  0.00    -0.066 N 
HETATM   11  H           1     -28.532  -6.435 -16.168  0.00  0.00     0.275 HD
HETATM   12  H           1     -27.088  -6.849 -16.979  0.00  0.00     0.275 HD
HETATM   13  H           1     -28.357  -7.984 -16.862  0.00  0.00     0.275 HD
ENDBRANCH   5  10
ENDBRANCH   3   5
BRANCH   4  14
HETATM   14  C           1     -25.397  -6.900 -20.146  0.00  0.00     0.185 C 
BRANCH  14  15
HETATM   15  C           1     -24.048  -7.071 -19.459  0.00  0.00     0.039 C 
BRANCH  15  16
HETATM   16 Se           1     -24.308  -7.163 -17.530  0.00  0.00     0.000 Se
HETATM   17  H           1     -23.003  -6.562 -17.208  0.00  0.00     0.000 HD
ENDBRANCH  15  16
ENDBRANCH  14  15
BRANCH  14  18
HETATM   18  C           1     -25.549  -7.945 -21.223  0.00  0.00     0.196 C 
HETATM   19  O           1     -24.622  -8.145 -22.037  0.00  0.00    -0.646 OA
HETATM   20  O           1     -26.604  -8.612 -21.302  0.00  0.00    -0.646 OA
ENDBRANCH  14  18
ENDBRANCH   4  14
TORSDOF 8
ENDMDL
MODEL 6
REMARK VINA RESULT:      -5.4     14.714     16.511
REMARK  8 active torsions:
REMARK  status: ('A' for Active; 'I' for Inactive)
REMARK    1  A    between atoms: C_4  and  C_10 
REMARK    2  A    between atoms: C_4  and  C_20 
REMARK    3  A    between atoms: C_4  and  N_19 
REMARK    4  A    between atoms: Se_9  and  C_10 
REMARK    5  A    between atoms: C_11  and  C_18 
REMARK    6  A    between atoms: C_11  and  C_12 
REMARK    7  A    between atoms: C_11  and  N_16 
REMARK    8  A    between atoms: C_12  and  C_14 
REMARK       I    between atoms: C_18  and  N_19 
ROOT
HETATM    1  H           1     -20.041  -6.411  -5.099  0.00  0.00     0.163 HD
HETATM    2  O           1     -22.934  -5.464  -5.859  0.00  0.00    -0.271 OA
HETATM    3  C           1     -21.726  -5.498  -5.880  0.00  0.00     0.249 C 
HETATM    4  N           1     -21.052  -6.383  -5.082  0.00  0.00    -0.345 N 
ENDROOT
BRANCH   3   5
HETATM    5  C           1     -20.961  -4.564  -6.786  0.00  0.00     0.278 C 
BRANCH   5   6
HETATM    6  C           1     -21.342  -4.836  -8.235  0.00  0.00     0.021 C 
HETATM    7  C           1     -22.340  -3.787  -8.704  0.00  0.00     0.012 C 
BRANCH   6   8
HETATM    8  C           1     -20.094  -4.774  -9.107  0.00  0.00     0.002 C 
HETATM    9  C           1     -20.477  -4.318 -10.509  0.00  0.00     0.005 C 
ENDBRANCH   6   8
ENDBRANCH   5   6
BRANCH   5  10
HETATM   10  N           1     -19.490  -4.787  -6.606  0.00  0.00    -0.066 N 
HETATM   11  H           1     -19.325  -5.754  -6.244  0.00  0.00     0.275 HD
HETATM   12  H           1     -19.113  -4.091  -5.924  0.00  0.00     0.275 HD
HETATM   13  H           1     -19.005  -4.673  -7.525  0.00  0.00     0.275 HD
ENDBRANCH   5  10
ENDBRANCH   3   5
BRANCH   4  14
HETATM   14  C           1     -21.788  -7.280  -4.212  0.00  0.00     0.185 C 
BRANCH  14  15
HETATM   15  C           1     -21.223  -8.689  -4.342  0.00  0.00     0.039 C 
BRANCH  15  16
HETATM   16 Se           1     -19.416  -8.600  -5.067  0.00  0.00     0.000 Se
HETATM   17  H           1     -19.846  -8.122  -6.391  0.00  0.00     0.000 HD
ENDBRANCH  15  16
ENDBRANCH  14  15
BRANCH  14  18
HETATM   18  C           1     -21.656  -6.815  -2.783  0.00  0.00     0.196 C 
HETATM   19  O           1     -22.407  -5.916  -2.346  0.00  0.00    -0.646 OA
HETATM   20  O           1     -20.796  -7.328  -2.035  0.00  0.00    -0.646 OA
ENDBRANCH  14  18
ENDBRANCH   4  14
TORSDOF 8
ENDMDL
MODEL 7
REMARK VINA RESULT:      -5.3     11.533     12.347
REMARK  8 active torsions:
REMARK  status: ('A' for Active; 'I' for Inactive)
REMARK    1  A    between atoms: C_4  and  C_10 
REMARK    2  A    between atoms: C_4  and  C_20 
REMARK    3  A    between atoms: C_4  and  N_19 
REMARK    4  A    between atoms: Se_9  and  C_10 
REMARK    5  A    between atoms: C_11  and  C_18 
REMARK    6  A    between atoms: C_11  and  C_12 
REMARK    7  A    between atoms: C_11  and  N_16 
REMARK    8  A    between atoms: C_12  and  C_14 
REMARK       I    between atoms: C_18  and  N_19 
ROOT
HETATM    1  H           1     -26.200  -6.072 -17.477  0.00  0.00     0.163 HD
HETATM    2  O           1     -27.196  -6.868 -20.343  0.00  0.00    -0.271 OA
HETATM    3  C           1     -26.408  -6.641 -19.455  0.00  0.00     0.249 C 
HETATM    4  N           1     -26.860  -6.261 -18.219  0.00  0.00    -0.345 N 
ENDROOT
BRANCH   3   5
HETATM    5  C           1     -24.927  -6.779 -19.708  0.00  0.00     0.278 C 
BRANCH   5   6
HETATM    6  C           1     -24.701  -7.566 -20.992  0.00  0.00     0.021 C 
HETATM    7  C           1     -24.552  -6.600 -22.160  0.00  0.00     0.012 C 
BRANCH   6   8
HETATM    8  C           1     -23.433  -8.399 -20.860  0.00  0.00     0.002 C 
HETATM    9  C           1     -22.746  -8.498 -22.216  0.00  0.00     0.005 C 
ENDBRANCH   6   8
ENDBRANCH   5   6
BRANCH   5  10
HETATM   10  N           1     -24.290  -7.504 -18.560  0.00  0.00    -0.066 N 
HETATM   11  H           1     -23.765  -6.824 -17.966  0.00  0.00     0.275 HD
HETATM   12  H           1     -23.630  -8.226 -18.928  0.00  0.00     0.275 HD
HETATM   13  H           1     -25.030  -7.967 -17.987  0.00  0.00     0.275 HD
ENDBRANCH   5  10
ENDBRANCH   3   5
BRANCH   4  14
HETATM   14  C           1     -28.283  -6.129 -17.977  0.00  0.00     0.185 C 
BRANCH  14  15
HETATM   15  C           1     -28.667  -6.949 -16.752  0.00  0.00     0.039 C 
BRANCH  15  16
HETATM   16 Se           1     -27.122  -7.122 -15.576  0.00  0.00     0.000 Se
HETATM   17  H           1     -26.586  -8.308 -16.263  0.00  0.00     0.000 HD
ENDBRANCH  15  16
ENDBRANCH  14  15
BRANCH  14  18
HETATM   18  C           1     -28.620  -4.678 -17.739  0.00  0.00     0.196 C 
HETATM   19  O           1     -27.952  -4.007 -16.923  0.00  0.00    -0.646 OA
HETATM   20  O           1     -29.568  -4.146 -18.357  0.00  0.00    -0.646 OA
ENDBRANCH  14  18
ENDBRANCH   4  14
TORSDOF 8
ENDMDL
MODEL 8
REMARK VINA RESULT:      -5.3     11.242     12.005
REMARK  8 active torsions:
REMARK  status: ('A' for Active; 'I' for Inactive)
REMARK    1  A    between atoms: C_4  and  C_10 
REMARK    2  A    between atoms: C_4  and  C_20 
REMARK    3  A    between atoms: C_4  and  N_19 
REMARK    4  A    between atoms: Se_9  and  C_10 
REMARK    5  A    between atoms: C_11  and  C_18 
REMARK    6  A    between atoms: C_11  and  C_12 
REMARK    7  A    between atoms: C_11  and  N_16 
REMARK    8  A    between atoms: C_12  and  C_14 
REMARK       I    between atoms: C_18  and  N_19 
ROOT
HETATM    1  H           1     -27.755  -7.096 -17.928  0.00  0.00     0.163 HD
HETATM    2  O           1     -27.263  -5.546 -20.610  0.00  0.00    -0.271 OA
HETATM    3  C           1     -27.172  -6.439 -19.801  0.00  0.00     0.249 C 
HETATM    4  N           1     -27.832  -6.349 -18.604  0.00  0.00    -0.345 N 
ENDROOT
BRANCH   3   5
HETATM    5  C           1     -26.332  -7.654 -20.110  0.00  0.00     0.278 C 
BRANCH   5   6
HETATM    6  C           1     -24.956  -7.212 -20.591  0.00  0.00     0.021 C 
HETATM    7  C           1     -24.029  -7.047 -19.395  0.00  0.00     0.012 C 
BRANCH   6   8
HETATM    8  C           1     -24.385  -8.266 -21.532  0.00  0.00     0.002 C 
HETATM    9  C           1     -23.795  -7.585 -22.759  0.00  0.00     0.005 C 
ENDBRANCH   6   8
ENDBRANCH   5   6
BRANCH   5  10
HETATM   10  N           1     -26.999  -8.462 -21.182  0.00  0.00    -0.066 N 
HETATM   11  H           1     -26.440  -8.404 -22.063  0.00  0.00     0.275 HD
HETATM   12  H           1     -27.959  -8.088 -21.354  0.00  0.00     0.275 HD
HETATM   13  H           1     -27.064  -9.459 -20.876  0.00  0.00     0.275 HD
ENDBRANCH   5  10
ENDBRANCH   3   5
BRANCH   4  14
HETATM   14  C           1     -28.638  -5.181 -18.308  0.00  0.00     0.185 C 
BRANCH  14  15
HETATM   15  C           1     -30.051  -5.620 -17.947  0.00  0.00     0.039 C 
BRANCH  15  16
HETATM   16 Se           1     -30.094  -7.556 -17.726  0.00  0.00     0.000 Se
HETATM   17  H           1     -29.718  -7.519 -16.304  0.00  0.00     0.000 HD
ENDBRANCH  15  16
ENDBRANCH  14  15
BRANCH  14  18
HETATM   18  C           1     -28.032  -4.432 -17.148  0.00  0.00     0.196 C 
HETATM   19  O           1     -28.399  -3.264 -16.896  0.00  0.00    -0.646 OA
HETATM   20  O           1     -27.162  -4.980 -16.436  0.00  0.00    -0.646 OA
ENDBRANCH  14  18
ENDBRANCH   4  14
TORSDOF 8
ENDMDL
MODEL 9
REMARK VINA RESULT:      -5.2     14.074     15.732
REMARK  8 active torsions:
REMARK  status: ('A' for Active; 'I' for Inactive)
REMARK    1  A    between atoms: C_4  and  C_10 
REMARK    2  A    between atoms: C_4  and  C_20 
REMARK    3  A    between atoms: C_4  and  N_19 
REMARK    4  A    between atoms: Se_9  and  C_10 
REMARK    5  A    between atoms: C_11  and  C_18 
REMARK    6  A    between atoms: C_11  and  C_12 
REMARK    7  A    between atoms: C_11  and  N_16 
REMARK    8  A    between atoms: C_12  and  C_14 
REMARK       I    between atoms: C_18  and  N_19 
ROOT
HETATM    1  H           1     -22.037  -6.798  -7.571  0.00  0.00     0.163 HD
HETATM    2  O           1     -21.094  -3.927  -6.728  0.00  0.00    -0.271 OA
HETATM    3  C           1     -21.577  -4.786  -7.428  0.00  0.00     0.249 C 
HETATM    4  N           1     -21.633  -6.080  -6.985  0.00  0.00    -0.345 N 
ENDROOT
BRANCH   3   5
HETATM    5  C           1     -22.122  -4.430  -8.790  0.00  0.00     0.278 C 
BRANCH   5   6
HETATM    6  C           1     -21.024  -3.784  -9.624  0.00  0.00     0.021 C 
HETATM    7  C           1     -19.961  -4.822  -9.957  0.00  0.00     0.012 C 
BRANCH   6   8
HETATM    8  C           1     -21.623  -3.240 -10.916  0.00  0.00     0.002 C 
HETATM    9  C           1     -21.901  -4.394 -11.871  0.00  0.00     0.005 C 
ENDBRANCH   6   8
ENDBRANCH   5   6
BRANCH   5  10
HETATM   10  N           1     -23.263  -3.470  -8.636  0.00  0.00    -0.066 N 
HETATM   11  H           1     -22.965  -2.665  -8.039  0.00  0.00     0.275 HD
HETATM   12  H           1     -24.070  -3.957  -8.186  0.00  0.00     0.275 HD
HETATM   13  H           1     -23.550  -3.116  -9.576  0.00  0.00     0.275 HD
ENDBRANCH   5  10
ENDBRANCH   3   5
BRANCH   4  14
HETATM   14  C           1     -21.109  -6.421  -5.676  0.00  0.00     0.185 C 
BRANCH  14  15
HETATM   15  C           1     -22.252  -6.473  -4.671  0.00  0.00     0.039 C 
BRANCH  15  16
HETATM   16 Se           1     -21.533  -6.374  -2.863  0.00  0.00     0.000 Se
HETATM   17  H           1     -21.974  -4.989  -2.638  0.00  0.00     0.000 HD
ENDBRANCH  15  16
ENDBRANCH  14  15
BRANCH  14  18
HETATM   18  C           1     -20.433  -7.767  -5.740  0.00  0.00     0.196 C 
HETATM   19  O           1     -21.101  -8.812  -5.581  0.00  0.00    -0.646 OA
HETATM   20  O           1     -19.203  -7.840  -5.953  0.00  0.00    -0.646 OA
ENDBRANCH  14  18
ENDBRANCH   4  14
TORSDOF 8
ENDMDL
