MODEL 1
REMARK VINA RESULT:      -6.3      0.000      0.000
REMARK  12 active torsions:
REMARK  status: ('A' for Active; 'I' for Inactive)
REMARK       I    between atoms: C_1  and  N_27 
REMARK    1  A    between atoms: C_1  and  C_3 
REMARK    2  A    between atoms: N_2  and  C_12 
REMARK    3  A    between atoms: C_3  and  C_11 
REMARK    4  A    between atoms: C_3  and  N_4 
REMARK    5  A    between atoms: P_5  and  O_9 
REMARK    6  A    between atoms: P_5  and  O_20 
REMARK    7  A    between atoms: O_9  and  C_14 
REMARK    8  A    between atoms: C_11  and  C_21 
REMARK    9  A    between atoms: C_12  and  C_21 
REMARK   10  A    between atoms: C_14  and  C_25 
REMARK   11  A    between atoms: C_24  and  C_25 
REMARK   12  A    between atoms: C_25  and  N_27 
ROOT
HETATM    1  C           1     -25.150  -6.953 -19.416  0.00  0.00     0.249 C 
HETATM    2  H           1     -27.059  -7.598 -18.940  0.00  0.00     0.163 HD
HETATM    3  O           1     -24.230  -6.249 -19.078  0.00  0.00    -0.271 OA
HETATM    4  N           1     -26.287  -7.008 -18.656  0.00  0.00    -0.343 N 
ENDROOT
BRANCH   1   5
HETATM    5  C           1     -25.046  -7.775 -20.678  0.00  0.00     0.274 C 
BRANCH   5   6
HETATM    6  C           1     -24.531  -6.901 -21.813  0.00  0.00     0.044 C 
BRANCH   6   7
HETATM    7  C           1     -23.721  -7.752 -22.783  0.00  0.00     0.030 C 
BRANCH   7   8
HETATM    8  C           1     -22.711  -8.586 -22.006  0.00  0.00     0.230 C 
BRANCH   8   9
HETATM    9  N           1     -22.264  -9.743 -22.849  0.00  0.00    -0.079 N 
HETATM   10  H           1     -21.775 -10.444 -22.248  0.00  0.00     0.274 HD
HETATM   11  H           1     -21.608  -9.402 -23.588  0.00  0.00     0.274 HD
HETATM   12  H           1     -23.095 -10.188 -23.298  0.00  0.00     0.274 HD
ENDBRANCH   8   9
ENDBRANCH   7   8
ENDBRANCH   6   7
ENDBRANCH   5   6
BRANCH   5  13
HETATM   13  N           1     -26.400  -8.312 -21.036  0.00  0.00    -0.067 N 
HETATM   14  H           1     -26.308  -8.996 -21.822  0.00  0.00     0.275 HD
HETATM   15  H           1     -26.816  -8.791 -20.206  0.00  0.00     0.275 HD
HETATM   16  H           1     -27.021  -7.525 -21.331  0.00  0.00     0.275 HD
ENDBRANCH   5  13
ENDBRANCH   1   5
BRANCH   4  17
HETATM   17  C           1     -26.386  -6.218 -17.444  0.00  0.00     0.210 C 
BRANCH  17  18
HETATM   18  C           1     -27.818  -5.729 -17.272  0.00  0.00     0.217 C 
BRANCH  18  19
HETATM   19  O           1     -28.622  -6.271 -18.285  0.00  0.00    -0.287 OA
BRANCH  19  20
HETATM   20  P           1     -29.808  -7.252 -17.798  0.00  0.00     0.406 P 
HETATM   21  O           1     -30.477  -7.845 -18.978  0.00  0.00    -0.624 OA
HETATM   22  O           1     -30.794  -6.480 -17.009  0.00  0.00    -0.624 OA
BRANCH  20  23
HETATM   23  O           1     -29.190  -8.431 -16.883  0.00  0.00    -0.300 OA
HETATM   24  H           1     -28.908  -8.004 -16.093  0.00  0.00     0.223 HD
ENDBRANCH  20  23
ENDBRANCH  19  20
ENDBRANCH  18  19
ENDBRANCH  17  18
BRANCH  17  25
HETATM   25  C           1     -25.998  -7.067 -16.258  0.00  0.00     0.198 C 
HETATM   26  O           1     -26.859  -7.388 -15.410  0.00  0.00    -0.646 OA
HETATM   27  O           1     -24.815  -7.450 -16.123  0.00  0.00    -0.646 OA
ENDBRANCH  17  25
ENDBRANCH   4  17
TORSDOF 12
ENDMDL
MODEL 2
REMARK VINA RESULT:      -5.8     11.291     13.478
REMARK  12 active torsions:
REMARK  status: ('A' for Active; 'I' for Inactive)
REMARK       I    between atoms: C_1  and  N_27 
REMARK    1  A    between atoms: C_1  and  C_3 
REMARK    2  A    between atoms: N_2  and  C_12 
REMARK    3  A    between atoms: C_3  and  C_11 
REMARK    4  A    between atoms: C_3  and  N_4 
REMARK    5  A    between atoms: P_5  and  O_9 
REMARK    6  A    between atoms: P_5  and  O_20 
REMARK    7  A    between atoms: O_9  and  C_14 
REMARK    8  A    between atoms: C_11  and  C_21 
REMARK    9  A    between atoms: C_12  and  C_21 
REMARK   10  A    between atoms: C_14  and  C_25 
REMARK   11  A    between atoms: C_24  and  C_25 
REMARK   12  A    between atoms: C_25  and  N_27 
ROOT
HETATM    1  C           1     -21.169  -6.259  -6.111  0.00  0.00     0.249 C 
HETATM    2  H           1     -21.397  -4.201  -6.128  0.00  0.00     0.163 HD
HETATM    3  O           1     -21.139  -7.257  -6.789  0.00  0.00    -0.271 OA
HETATM    4  N           1     -21.372  -5.038  -6.696  0.00  0.00    -0.343 N 
ENDROOT
BRANCH   1   5
HETATM    5  C           1     -20.980  -6.357  -4.616  0.00  0.00     0.274 C 
BRANCH   5   6
HETATM    6  C           1     -20.366  -7.705  -4.268  0.00  0.00     0.044 C 
BRANCH   6   7
HETATM    7  C           1     -21.398  -8.563  -3.547  0.00  0.00     0.030 C 
BRANCH   7   8
HETATM    8  C           1     -21.619  -9.854  -4.323  0.00  0.00     0.230 C 
BRANCH   8   9
HETATM    9  N           1     -20.725  -9.872  -5.528  0.00  0.00    -0.079 N 
HETATM   10  H           1     -20.430  -8.896  -5.758  0.00  0.00     0.274 HD
HETATM   11  H           1     -21.243 -10.279  -6.339  0.00  0.00     0.274 HD
HETATM   12  H           1     -19.880 -10.453  -5.325  0.00  0.00     0.274 HD
ENDBRANCH   8   9
ENDBRANCH   7   8
ENDBRANCH   6   7
ENDBRANCH   5   6
BRANCH   5  13
HETATM   13  N           1     -22.310  -6.223  -3.937  0.00  0.00    -0.067 N 
HETATM   14  H           1     -22.246  -5.502  -3.182  0.00  0.00     0.275 HD
HETATM   15  H           1     -23.031  -5.930  -4.635  0.00  0.00     0.275 HD
HETATM   16  H           1     -22.582  -7.141  -3.519  0.00  0.00     0.275 HD
ENDBRANCH   5  13
ENDBRANCH   1   5
BRANCH   4  17
HETATM   17  C           1     -21.553  -4.945  -8.132  0.00  0.00     0.210 C 
BRANCH  17  18
HETATM   18  C           1     -22.711  -4.005  -8.438  0.00  0.00     0.217 C 
BRANCH  18  19
HETATM   19  O           1     -23.598  -4.629  -9.328  0.00  0.00    -0.287 OA
BRANCH  19  20
HETATM   20  P           1     -23.758  -3.928 -10.774  0.00  0.00     0.406 P 
HETATM   21  O           1     -25.046  -3.201 -10.832  0.00  0.00    -0.624 OA
HETATM   22  O           1     -23.729  -4.964 -11.830  0.00  0.00    -0.624 OA
BRANCH  20  23
HETATM   23  O           1     -22.543  -2.888 -11.005  0.00  0.00    -0.300 OA
HETATM   24  H           1     -22.043  -2.917 -10.208  0.00  0.00     0.223 HD
ENDBRANCH  20  23
ENDBRANCH  19  20
ENDBRANCH  18  19
ENDBRANCH  17  18
BRANCH  17  25
HETATM   25  C           1     -20.290  -4.410  -8.764  0.00  0.00     0.198 C 
HETATM   26  O           1     -20.182  -4.372 -10.009  0.00  0.00    -0.646 OA
HETATM   27  O           1     -19.353  -4.006  -8.042  0.00  0.00    -0.646 OA
ENDBRANCH  17  25
ENDBRANCH   4  17
TORSDOF 12
ENDMDL
MODEL 3
REMARK VINA RESULT:      -5.5     13.104     15.351
REMARK  12 active torsions:
REMARK  status: ('A' for Active; 'I' for Inactive)
REMARK       I    between atoms: C_1  and  N_27 
REMARK    1  A    between atoms: C_1  and  C_3 
REMARK    2  A    between atoms: N_2  and  C_12 
REMARK    3  A    between atoms: C_3  and  C_11 
REMARK    4  A    between atoms: C_3  and  N_4 
REMARK    5  A    between atoms: P_5  and  O_9 
REMARK    6  A    between atoms: P_5  and  O_20 
REMARK    7  A    between atoms: O_9  and  C_14 
REMARK    8  A    between atoms: C_11  and  C_21 
REMARK    9  A    between atoms: C_12  and  C_21 
REMARK   10  A    between atoms: C_14  and  C_25 
REMARK   11  A    between atoms: C_24  and  C_25 
REMARK   12  A    between atoms: C_25  and  N_27 
ROOT
HETATM    1  C           1     -21.417  -6.003  -5.214  0.00  0.00     0.249 C 
HETATM    2  H           1     -19.930  -6.820  -4.028  0.00  0.00     0.163 HD
HETATM    3  O           1     -22.608  -5.933  -5.400  0.00  0.00    -0.271 OA
HETATM    4  N           1     -20.928  -6.761  -4.184  0.00  0.00    -0.343 N 
ENDROOT
BRANCH   1   5
HETATM    5  C           1     -20.467  -5.254  -6.117  0.00  0.00     0.274 C 
BRANCH   5   6
HETATM    6  C           1     -21.211  -4.121  -6.810  0.00  0.00     0.044 C 
BRANCH   6   7
HETATM    7  C           1     -21.295  -4.406  -8.304  0.00  0.00     0.030 C 
BRANCH   7   8
HETATM    8  C           1     -22.681  -4.041  -8.815  0.00  0.00     0.230 C 
BRANCH   8   9
HETATM    9  N           1     -23.656  -4.059  -7.674  0.00  0.00    -0.079 N 
HETATM   10  H           1     -23.457  -4.880  -7.059  0.00  0.00     0.274 HD
HETATM   11  H           1     -24.629  -4.133  -8.049  0.00  0.00     0.274 HD
HETATM   12  H           1     -23.560  -3.178  -7.121  0.00  0.00     0.274 HD
ENDBRANCH   8   9
ENDBRANCH   7   8
ENDBRANCH   6   7
ENDBRANCH   5   6
BRANCH   5  13
HETATM   13  N           1     -19.914  -6.193  -7.147  0.00  0.00    -0.067 N 
HETATM   14  H           1     -20.157  -5.845  -8.103  0.00  0.00     0.275 HD
HETATM   15  H           1     -18.875  -6.245  -7.050  0.00  0.00     0.275 HD
HETATM   16  H           1     -20.325  -7.144  -7.009  0.00  0.00     0.275 HD
ENDBRANCH   5  13
ENDBRANCH   1   5
BRANCH   4  17
HETATM   17  C           1     -21.841  -7.481  -3.317  0.00  0.00     0.210 C 
BRANCH  17  18
HETATM   18  C           1     -21.349  -8.911  -3.137  0.00  0.00     0.217 C 
BRANCH  18  19
HETATM   19  O           1     -21.767  -9.690  -4.227  0.00  0.00    -0.287 OA
BRANCH  19  20
HETATM   20  P           1     -20.597 -10.230  -5.199  0.00  0.00     0.406 P 
HETATM   21  O           1     -21.200 -10.854  -6.399  0.00  0.00    -0.624 OA
HETATM   22  O           1     -19.782 -11.234  -4.479  0.00  0.00    -0.624 OA
BRANCH  20  23
HETATM   23  O           1     -19.658  -8.995  -5.649  0.00  0.00    -0.300 OA
HETATM   24  H           1     -19.237  -9.285  -6.439  0.00  0.00     0.223 HD
ENDBRANCH  20  23
ENDBRANCH  19  20
ENDBRANCH  18  19
ENDBRANCH  17  18
BRANCH  17  25
HETATM   25  C           1     -21.902  -6.796  -1.973  0.00  0.00     0.198 C 
HETATM   26  O           1     -21.620  -7.432  -0.935  0.00  0.00    -0.646 OA
HETATM   27  O           1     -22.233  -5.593  -1.899  0.00  0.00    -0.646 OA
ENDBRANCH  17  25
ENDBRANCH   4  17
TORSDOF 12
ENDMDL
MODEL 4
REMARK VINA RESULT:      -5.4      2.034      2.690
REMARK  12 active torsions:
REMARK  status: ('A' for Active; 'I' for Inactive)
REMARK       I    between atoms: C_1  and  N_27 
REMARK    1  A    between atoms: C_1  and  C_3 
REMARK    2  A    between atoms: N_2  and  C_12 
REMARK    3  A    between atoms: C_3  and  C_11 
REMARK    4  A    between atoms: C_3  and  N_4 
REMARK    5  A    between atoms: P_5  and  O_9 
REMARK    6  A    between atoms: P_5  and  O_20 
REMARK    7  A    between atoms: O_9  and  C_14 
REMARK    8  A    between atoms: C_11  and  C_21 
REMARK    9  A    between atoms: C_12  and  C_21 
REMARK   10  A    between atoms: C_14  and  C_25 
REMARK   11  A    between atoms: C_24  and  C_25 
REMARK   12  A    between atoms: C_25  and  N_27 
ROOT
HETATM    1  C           1     -26.975  -6.616 -19.822  0.00  0.00     0.249 C 
HETATM    2  H           1     -27.287  -7.541 -17.996  0.00  0.00     0.163 HD
HETATM    3  O           1     -27.203  -5.633 -20.485  0.00  0.00    -0.271 OA
HETATM    4  N           1     -27.477  -6.717 -18.553  0.00  0.00    -0.343 N 
ENDROOT
BRANCH   1   5
HETATM    5  C           1     -26.136  -7.734 -20.393  0.00  0.00     0.274 C 
BRANCH   5   6
HETATM    6  C           1     -24.980  -7.145 -21.189  0.00  0.00     0.044 C 
BRANCH   6   7
HETATM    7  C           1     -23.680  -7.821 -20.772  0.00  0.00     0.030 C 
BRANCH   7   8
HETATM    8  C           1     -23.037  -8.479 -21.985  0.00  0.00     0.230 C 
BRANCH   8   9
HETATM    9  N           1     -22.003  -9.467 -21.529  0.00  0.00    -0.079 N 
HETATM   10  H           1     -21.073  -9.208 -21.930  0.00  0.00     0.274 HD
HETATM   11  H           1     -22.268 -10.424 -21.857  0.00  0.00     0.274 HD
HETATM   12  H           1     -21.949  -9.457 -20.486  0.00  0.00     0.274 HD
ENDBRANCH   8   9
ENDBRANCH   7   8
ENDBRANCH   6   7
ENDBRANCH   5   6
BRANCH   5  13
HETATM   13  N           1     -26.983  -8.583 -21.293  0.00  0.00    -0.067 N 
HETATM   14  H           1     -27.984  -8.294 -21.207  0.00  0.00     0.275 HD
HETATM   15  H           1     -26.670  -8.460 -22.283  0.00  0.00     0.275 HD
HETATM   16  H           1     -26.886  -9.587 -21.019  0.00  0.00     0.275 HD
ENDBRANCH   5  13
ENDBRANCH   1   5
BRANCH   4  17
HETATM   17  C           1     -28.284  -5.643 -18.005  0.00  0.00     0.210 C 
BRANCH  17  18
HETATM   18  C           1     -29.539  -6.225 -17.369  0.00  0.00     0.217 C 
BRANCH  18  19
HETATM   19  O           1     -30.672  -5.610 -17.922  0.00  0.00    -0.287 OA
BRANCH  19  20
HETATM   20  P           1     -31.544  -4.697 -16.916  0.00  0.00     0.406 P 
HETATM   21  O           1     -31.572  -3.303 -17.411  0.00  0.00    -0.624 OA
HETATM   22  O           1     -30.935  -4.730 -15.568  0.00  0.00    -0.624 OA
BRANCH  20  23
HETATM   23  O           1     -33.052  -5.271 -16.840  0.00  0.00    -0.300 OA
HETATM   24  H           1     -33.605  -4.510 -16.881  0.00  0.00     0.223 HD
ENDBRANCH  20  23
ENDBRANCH  19  20
ENDBRANCH  18  19
ENDBRANCH  17  18
BRANCH  17  25
HETATM   25  C           1     -27.487  -4.900 -16.960  0.00  0.00     0.198 C 
HETATM   26  O           1     -26.418  -5.383 -16.528  0.00  0.00    -0.646 OA
HETATM   27  O           1     -27.897  -3.802 -16.525  0.00  0.00    -0.646 OA
ENDBRANCH  17  25
ENDBRANCH   4  17
TORSDOF 12
ENDMDL
MODEL 5
REMARK VINA RESULT:      -5.3     11.392     14.116
REMARK  12 active torsions:
REMARK  status: ('A' for Active; 'I' for Inactive)
REMARK       I    between atoms: C_1  and  N_27 
REMARK    1  A    between atoms: C_1  and  C_3 
REMARK    2  A    between atoms: N_2  and  C_12 
REMARK    3  A    between atoms: C_3  and  C_11 
REMARK    4  A    between atoms: C_3  and  N_4 
REMARK    5  A    between atoms: P_5  and  O_9 
REMARK    6  A    between atoms: P_5  and  O_20 
REMARK    7  A    between atoms: O_9  and  C_14 
REMARK    8  A    between atoms: C_11  and  C_21 
REMARK    9  A    between atoms: C_12  and  C_21 
REMARK   10  A    between atoms: C_14  and  C_25 
REMARK   11  A    between atoms: C_24  and  C_25 
REMARK   12  A    between atoms: C_25  and  N_27 
ROOT
HETATM    1  C           1     -21.255  -6.632  -6.310  0.00  0.00     0.249 C 
HETATM    2  H           1     -23.006  -5.528  -6.285  0.00  0.00     0.163 HD
HETATM    3  O           1     -20.239  -6.864  -6.921  0.00  0.00    -0.271 OA
HETATM    4  N           1     -22.154  -5.722  -6.797  0.00  0.00    -0.343 N 
ENDROOT
BRANCH   1   5
HETATM    5  C           1     -21.531  -7.345  -5.009  0.00  0.00     0.274 C 
BRANCH   5   6
HETATM    6  C           1     -21.767  -6.321  -3.908  0.00  0.00     0.044 C 
BRANCH   6   7
HETATM    7  C           1     -21.387  -6.925  -2.562  0.00  0.00     0.030 C 
BRANCH   7   8
HETATM    8  C           1     -22.278  -6.342  -1.473  0.00  0.00     0.230 C 
BRANCH   8   9
HETATM    9  N           1     -22.445  -7.348  -0.372  0.00  0.00    -0.079 N 
HETATM   10  H           1     -21.506  -7.695  -0.072  0.00  0.00     0.274 HD
HETATM   11  H           1     -23.018  -8.151  -0.719  0.00  0.00     0.274 HD
HETATM   12  H           1     -22.927  -6.899   0.439  0.00  0.00     0.274 HD
ENDBRANCH   8   9
ENDBRANCH   7   8
ENDBRANCH   6   7
ENDBRANCH   5   6
BRANCH   5  13
HETATM   13  N           1     -20.354  -8.203  -4.650  0.00  0.00    -0.067 N 
HETATM   14  H           1     -20.549  -8.706  -3.755  0.00  0.00     0.275 HD
HETATM   15  H           1     -20.186  -8.900  -5.411  0.00  0.00     0.275 HD
HETATM   16  H           1     -19.507  -7.601  -4.535  0.00  0.00     0.275 HD
ENDBRANCH   5  13
ENDBRANCH   1   5
BRANCH   4  17
HETATM   17  C           1     -21.888  -5.038  -8.047  0.00  0.00     0.210 C 
BRANCH  17  18
HETATM   18  C           1     -23.182  -4.441  -8.585  0.00  0.00     0.217 C 
BRANCH  18  19
HETATM   19  O           1     -23.482  -5.018  -9.828  0.00  0.00    -0.287 OA
BRANCH  19  20
HETATM   20  P           1     -23.636  -3.991 -11.064  0.00  0.00     0.406 P 
HETATM   21  O           1     -22.472  -3.076 -11.096  0.00  0.00    -0.624 OA
HETATM   22  O           1     -24.878  -3.203 -10.899  0.00  0.00    -0.624 OA
BRANCH  20  23
HETATM   23  O           1     -23.705  -4.822 -12.448  0.00  0.00    -0.300 OA
HETATM   24  H           1     -23.894  -4.179 -13.109  0.00  0.00     0.223 HD
ENDBRANCH  20  23
ENDBRANCH  19  20
ENDBRANCH  18  19
ENDBRANCH  17  18
BRANCH  17  25
HETATM   25  C           1     -20.885  -3.935  -7.811  0.00  0.00     0.198 C 
HETATM   26  O           1     -19.934  -3.774  -8.606  0.00  0.00    -0.646 OA
HETATM   27  O           1     -21.005  -3.181  -6.821  0.00  0.00    -0.646 OA
ENDBRANCH  17  25
ENDBRANCH   4  17
TORSDOF 12
ENDMDL
MODEL 6
REMARK VINA RESULT:      -5.3     13.177     15.581
REMARK  12 active torsions:
REMARK  status: ('A' for Active; 'I' for Inactive)
REMARK       I    between atoms: C_1  and  N_27 
REMARK    1  A    between atoms: C_1  and  C_3 
REMARK    2  A    between atoms: N_2  and  C_12 
REMARK    3  A    between atoms: C_3  and  C_11 
REMARK    4  A    between atoms: C_3  and  N_4 
REMARK    5  A    between atoms: P_5  and  O_9 
REMARK    6  A    between atoms: P_5  and  O_20 
REMARK    7  A    between atoms: O_9  and  C_14 
REMARK    8  A    between atoms: C_11  and  C_21 
REMARK    9  A    between atoms: C_12  and  C_21 
REMARK   10  A    between atoms: C_14  and  C_25 
REMARK   11  A    between atoms: C_24  and  C_25 
REMARK   12  A    between atoms: C_25  and  N_27 
ROOT
HETATM    1  C           1     -21.394  -5.831  -5.642  0.00  0.00     0.249 C 
HETATM    2  H           1     -19.799  -6.848  -4.802  0.00  0.00     0.163 HD
HETATM    3  O           1     -22.594  -5.696  -5.640  0.00  0.00    -0.271 OA
HETATM    4  N           1     -20.805  -6.735  -4.800  0.00  0.00    -0.343 N 
ENDROOT
BRANCH   1   5
HETATM    5  C           1     -20.544  -5.002  -6.574  0.00  0.00     0.274 C 
BRANCH   5   6
HETATM    6  C           1     -21.390  -3.892  -7.182  0.00  0.00     0.044 C 
BRANCH   6   7
HETATM    7  C           1     -21.463  -4.079  -8.693  0.00  0.00     0.030 C 
BRANCH   7   8
HETATM    8  C           1     -22.921  -4.163  -9.124  0.00  0.00     0.230 C 
BRANCH   8   9
HETATM    9  N           1     -23.806  -4.083  -7.916  0.00  0.00    -0.079 N 
HETATM   10  H           1     -24.778  -3.838  -8.211  0.00  0.00     0.274 HD
HETATM   11  H           1     -23.444  -3.348  -7.267  0.00  0.00     0.274 HD
HETATM   12  H           1     -23.813  -5.007  -7.428  0.00  0.00     0.274 HD
ENDBRANCH   8   9
ENDBRANCH   7   8
ENDBRANCH   6   7
ENDBRANCH   5   6
BRANCH   5  13
HETATM   13  N           1     -20.003  -5.875  -7.666  0.00  0.00    -0.067 N 
HETATM   14  H           1     -20.778  -6.139  -8.317  0.00  0.00     0.275 HD
HETATM   15  H           1     -19.266  -5.357  -8.195  0.00  0.00     0.275 HD
HETATM   16  H           1     -19.590  -6.740  -7.248  0.00  0.00     0.275 HD
ENDBRANCH   5  13
ENDBRANCH   1   5
BRANCH   4  17
HETATM   17  C           1     -21.622  -7.531  -3.905  0.00  0.00     0.210 C 
BRANCH  17  18
HETATM   18  C           1     -21.061  -8.945  -3.828  0.00  0.00     0.217 C 
BRANCH  18  19
HETATM   19  O           1     -22.106  -9.851  -3.596  0.00  0.00    -0.287 OA
BRANCH  19  20
HETATM   20  P           1     -21.977 -10.752  -2.262  0.00  0.00     0.406 P 
HETATM   21  O           1     -21.935 -12.184  -2.635  0.00  0.00    -0.624 OA
HETATM   22  O           1     -23.143 -10.505  -1.385  0.00  0.00    -0.624 OA
BRANCH  20  23
HETATM   23  O           1     -20.620 -10.361  -1.478  0.00  0.00    -0.300 OA
HETATM   24  H           1     -20.906  -9.908  -0.705  0.00  0.00     0.223 HD
ENDBRANCH  20  23
ENDBRANCH  19  20
ENDBRANCH  18  19
ENDBRANCH  17  18
BRANCH  17  25
HETATM   25  C           1     -21.613  -6.910  -2.530  0.00  0.00     0.198 C 
HETATM   26  O           1     -20.827  -7.336  -1.657  0.00  0.00    -0.646 OA
HETATM   27  O           1     -22.392  -5.969  -2.263  0.00  0.00    -0.646 OA
ENDBRANCH  17  25
ENDBRANCH   4  17
TORSDOF 12
ENDMDL
MODEL 7
REMARK VINA RESULT:      -5.1     12.479     14.624
REMARK  12 active torsions:
REMARK  status: ('A' for Active; 'I' for Inactive)
REMARK       I    between atoms: C_1  and  N_27 
REMARK    1  A    between atoms: C_1  and  C_3 
REMARK    2  A    between atoms: N_2  and  C_12 
REMARK    3  A    between atoms: C_3  and  C_11 
REMARK    4  A    between atoms: C_3  and  N_4 
REMARK    5  A    between atoms: P_5  and  O_9 
REMARK    6  A    between atoms: P_5  and  O_20 
REMARK    7  A    between atoms: O_9  and  C_14 
REMARK    8  A    between atoms: C_11  and  C_21 
REMARK    9  A    between atoms: C_12  and  C_21 
REMARK   10  A    between atoms: C_14  and  C_25 
REMARK   11  A    between atoms: C_24  and  C_25 
REMARK   12  A    between atoms: C_25  and  N_27 
ROOT
HETATM    1  C           1     -20.953  -5.265  -6.915  0.00  0.00     0.249 C 
HETATM    2  H           1     -21.553  -7.226  -7.200  0.00  0.00     0.163 HD
HETATM    3  O           1     -20.414  -4.495  -6.157  0.00  0.00    -0.271 OA
HETATM    4  N           1     -21.102  -6.580  -6.565  0.00  0.00    -0.343 N 
ENDROOT
BRANCH   1   5
HETATM    5  C           1     -21.461  -4.778  -8.250  0.00  0.00     0.274 C 
BRANCH   5   6
HETATM    6  C           1     -20.329  -4.096  -9.007  0.00  0.00     0.044 C 
BRANCH   6   7
HETATM    7  C           1     -20.112  -4.800 -10.340  0.00  0.00     0.030 C 
BRANCH   7   8
HETATM    8  C           1     -21.061  -4.223 -11.381  0.00  0.00     0.230 C 
BRANCH   8   9
HETATM    9  N           1     -20.796  -2.755 -11.539  0.00  0.00    -0.079 N 
HETATM   10  H           1     -20.165  -2.601 -12.359  0.00  0.00     0.274 HD
HETATM   11  H           1     -20.337  -2.389 -10.675  0.00  0.00     0.274 HD
HETATM   12  H           1     -21.699  -2.253 -11.695  0.00  0.00     0.274 HD
ENDBRANCH   8   9
ENDBRANCH   7   8
ENDBRANCH   6   7
ENDBRANCH   5   6
BRANCH   5  13
HETATM   13  N           1     -22.577  -3.801  -8.033  0.00  0.00    -0.067 N 
HETATM   14  H           1     -22.663  -3.178  -8.868  0.00  0.00     0.275 HD
HETATM   15  H           1     -23.473  -4.320  -7.892  0.00  0.00     0.275 HD
HETATM   16  H           1     -22.373  -3.222  -7.186  0.00  0.00     0.275 HD
ENDBRANCH   5  13
ENDBRANCH   1   5
BRANCH   4  17
HETATM   17  C           1     -20.614  -7.047  -5.281  0.00  0.00     0.210 C 
BRANCH  17  18
HETATM   18  C           1     -21.751  -7.028  -4.268  0.00  0.00     0.217 C 
BRANCH  18  19
HETATM   19  O           1     -21.260  -6.609  -3.022  0.00  0.00    -0.287 OA
BRANCH  19  20
HETATM   20  P           1     -21.467  -7.642  -1.798  0.00  0.00     0.406 P 
HETATM   21  O           1     -22.445  -7.081  -0.839  0.00  0.00    -0.624 OA
HETATM   22  O           1     -20.174  -7.860  -1.113  0.00  0.00    -0.624 OA
BRANCH  20  23
HETATM   23  O           1     -22.019  -9.049  -2.369  0.00  0.00    -0.300 OA
HETATM   24  H           1     -21.266  -9.475  -2.737  0.00  0.00     0.223 HD
ENDBRANCH  20  23
ENDBRANCH  19  20
ENDBRANCH  18  19
ENDBRANCH  17  18
BRANCH  17  25
HETATM   25  C           1     -20.092  -8.456  -5.425  0.00  0.00     0.198 C 
HETATM   26  O           1     -20.776  -9.421  -5.022  0.00  0.00    -0.646 OA
HETATM   27  O           1     -18.974  -8.659  -5.949  0.00  0.00    -0.646 OA
ENDBRANCH  17  25
ENDBRANCH   4  17
TORSDOF 12
ENDMDL
MODEL 8
REMARK VINA RESULT:      -5.0     13.243     15.086
REMARK  12 active torsions:
REMARK  status: ('A' for Active; 'I' for Inactive)
REMARK       I    between atoms: C_1  and  N_27 
REMARK    1  A    between atoms: C_1  and  C_3 
REMARK    2  A    between atoms: N_2  and  C_12 
REMARK    3  A    between atoms: C_3  and  C_11 
REMARK    4  A    between atoms: C_3  and  N_4 
REMARK    5  A    between atoms: P_5  and  O_9 
REMARK    6  A    between atoms: P_5  and  O_20 
REMARK    7  A    between atoms: O_9  and  C_14 
REMARK    8  A    between atoms: C_11  and  C_21 
REMARK    9  A    between atoms: C_12  and  C_21 
REMARK   10  A    between atoms: C_14  and  C_25 
REMARK   11  A    between atoms: C_24  and  C_25 
REMARK   12  A    between atoms: C_25  and  N_27 
ROOT
HETATM    1  C           1     -20.349  -5.007  -6.205  0.00  0.00     0.249 C 
HETATM    2  H           1     -20.813  -6.847  -7.034  0.00  0.00     0.163 HD
HETATM    3  O           1     -20.063  -4.424  -5.187  0.00  0.00    -0.271 OA
HETATM    4  N           1     -20.574  -6.357  -6.181  0.00  0.00    -0.343 N 
ENDROOT
BRANCH   1   5
HETATM    5  C           1     -20.458  -4.247  -7.505  0.00  0.00     0.274 C 
BRANCH   5   6
HETATM    6  C           1     -21.911  -3.863  -7.749  0.00  0.00     0.044 C 
BRANCH   6   7
HETATM    7  C           1     -22.418  -4.562  -9.005  0.00  0.00     0.030 C 
BRANCH   7   8
HETATM    8  C           1     -23.295  -3.605  -9.800  0.00  0.00     0.230 C 
BRANCH   8   9
HETATM    9  N           1     -24.551  -3.320  -9.029  0.00  0.00    -0.079 N 
HETATM   10  H           1     -25.300  -3.007  -9.687  0.00  0.00     0.274 HD
HETATM   11  H           1     -24.366  -2.565  -8.330  0.00  0.00     0.274 HD
HETATM   12  H           1     -24.860  -4.186  -8.535  0.00  0.00     0.274 HD
ENDBRANCH   8   9
ENDBRANCH   7   8
ENDBRANCH   6   7
ENDBRANCH   5   6
BRANCH   5  13
HETATM   13  N           1     -19.974  -5.112  -8.630  0.00  0.00    -0.067 N 
HETATM   14  H           1     -19.666  -6.037  -8.252  0.00  0.00     0.275 HD
HETATM   15  H           1     -20.749  -5.259  -9.316  0.00  0.00     0.275 HD
HETATM   16  H           1     -19.170  -4.645  -9.107  0.00  0.00     0.275 HD
ENDBRANCH   5  13
ENDBRANCH   1   5
BRANCH   4  17
HETATM   17  C           1     -20.469  -7.086  -4.931  0.00  0.00     0.210 C 
BRANCH  17  18
HETATM   18  C           1     -21.854  -7.242  -4.317  0.00  0.00     0.217 C 
BRANCH  18  19
HETATM   19  O           1     -21.893  -6.584  -3.080  0.00  0.00    -0.287 OA
BRANCH  19  20
HETATM   20  P           1     -21.741  -7.522  -1.774  0.00  0.00     0.406 P 
HETATM   21  O           1     -22.630  -7.024  -0.701  0.00  0.00    -0.624 OA
HETATM   22  O           1     -20.337  -7.490  -1.306  0.00  0.00    -0.624 OA
BRANCH  20  23
HETATM   23  O           1     -22.150  -9.038  -2.151  0.00  0.00    -0.300 OA
HETATM   24  H           1     -21.807  -9.175  -3.017  0.00  0.00     0.223 HD
ENDBRANCH  20  23
ENDBRANCH  19  20
ENDBRANCH  18  19
ENDBRANCH  17  18
BRANCH  17  25
HETATM   25  C           1     -19.878  -8.450  -5.194  0.00  0.00     0.198 C 
HETATM   26  O           1     -20.291  -9.444  -4.558  0.00  0.00    -0.646 OA
HETATM   27  O           1     -18.975  -8.586  -6.049  0.00  0.00    -0.646 OA
ENDBRANCH  17  25
ENDBRANCH   4  17
TORSDOF 12
ENDMDL
MODEL 9
REMARK VINA RESULT:      -5.0     13.874     15.839
REMARK  12 active torsions:
REMARK  status: ('A' for Active; 'I' for Inactive)
REMARK       I    between atoms: C_1  and  N_27 
REMARK    1  A    between atoms: C_1  and  C_3 
REMARK    2  A    between atoms: N_2  and  C_12 
REMARK    3  A    between atoms: C_3  and  C_11 
REMARK    4  A    between atoms: C_3  and  N_4 
REMARK    5  A    between atoms: P_5  and  O_9 
REMARK    6  A    between atoms: P_5  and  O_20 
REMARK    7  A    between atoms: O_9  and  C_14 
REMARK    8  A    between atoms: C_11  and  C_21 
REMARK    9  A    between atoms: C_12  and  C_21 
REMARK   10  A    between atoms: C_14  and  C_25 
REMARK   11  A    between atoms: C_24  and  C_25 
REMARK   12  A    between atoms: C_25  and  N_27 
ROOT
HETATM    1  C           1     -21.499  -5.550  -5.676  0.00  0.00     0.249 C 
HETATM    2  H           1     -22.773  -7.081  -5.110  0.00  0.00     0.163 HD
HETATM    3  O           1     -20.472  -4.971  -5.417  0.00  0.00    -0.271 OA
HETATM    4  N           1     -21.912  -6.595  -4.894  0.00  0.00    -0.343 N 
ENDROOT
BRANCH   1   5
HETATM    5  C           1     -22.329  -5.123  -6.863  0.00  0.00     0.274 C 
BRANCH   5   6
HETATM    6  C           1     -21.734  -3.859  -7.469  0.00  0.00     0.044 C 
BRANCH   6   7
HETATM    7  C           1     -21.543  -4.056  -8.968  0.00  0.00     0.030 C 
BRANCH   7   8
HETATM    8  C           1     -20.113  -4.499  -9.245  0.00  0.00     0.230 C 
BRANCH   8   9
HETATM    9  N           1     -19.239  -4.117  -8.087  0.00  0.00    -0.079 N 
HETATM   10  H           1     -18.921  -3.127  -8.202  0.00  0.00     0.274 HD
HETATM   11  H           1     -18.406  -4.748  -8.058  0.00  0.00     0.274 HD
HETATM   12  H           1     -19.779  -4.209  -7.198  0.00  0.00     0.274 HD
ENDBRANCH   8   9
ENDBRANCH   7   8
ENDBRANCH   6   7
ENDBRANCH   5   6
BRANCH   5  13
HETATM   13  N           1     -23.734  -4.850  -6.417  0.00  0.00    -0.067 N 
HETATM   14  H           1     -24.065  -5.631  -5.806  0.00  0.00     0.275 HD
HETATM   15  H           1     -23.762  -3.954  -5.879  0.00  0.00     0.275 HD
HETATM   16  H           1     -24.357  -4.775  -7.253  0.00  0.00     0.275 HD
ENDBRANCH   5  13
ENDBRANCH   1   5
BRANCH   4  17
HETATM   17  C           1     -21.115  -7.005  -3.754  0.00  0.00     0.210 C 
BRANCH  17  18
HETATM   18  C           1     -21.901  -6.763  -2.472  0.00  0.00     0.217 C 
BRANCH  18  19
HETATM   19  O           1     -21.203  -7.312  -1.385  0.00  0.00    -0.287 OA
BRANCH  19  20
HETATM   20  P           1     -22.091  -8.140  -0.321  0.00  0.00     0.406 P 
HETATM   21  O           1     -23.296  -7.357   0.034  0.00  0.00    -0.624 OA
HETATM   22  O           1     -21.291  -8.394   0.898  0.00  0.00    -0.624 OA
BRANCH  20  23
HETATM   23  O           1     -22.539  -9.548  -0.975  0.00  0.00    -0.300 OA
HETATM   24  H           1     -21.826  -9.793  -1.538  0.00  0.00     0.223 HD
ENDBRANCH  20  23
ENDBRANCH  19  20
ENDBRANCH  18  19
ENDBRANCH  17  18
BRANCH  17  25
HETATM   25  C           1     -20.786  -8.474  -3.873  0.00  0.00     0.198 C 
HETATM   26  O           1     -19.593  -8.845  -3.923  0.00  0.00    -0.646 OA
HETATM   27  O           1     -21.706  -9.319  -3.922  0.00  0.00    -0.646 OA
ENDBRANCH  17  25
ENDBRANCH   4  17
TORSDOF 12
ENDMDL
