MODEL 1
REMARK VINA RESULT:      -6.3      0.000      0.000
REMARK  8 active torsions:
REMARK  status: ('A' for Active; 'I' for Inactive)
REMARK    1  A    between atoms: N_1  and  C_6 
REMARK       I    between atoms: N_1  and  C_3 
REMARK    2  A    between atoms: C_3  and  C_9 
REMARK    3  A    between atoms: N_4  and  C_9 
REMARK    4  A    between atoms: C_5  and  C_8 
REMARK    5  A    between atoms: C_5  and  C_6 
REMARK    6  A    between atoms: C_6  and  C_17 
REMARK    7  A    between atoms: C_8  and  C_20 
REMARK    8  A    between atoms: C_9  and  C_18 
ROOT
HETATM    1  N           1     -27.464  -6.726 -18.453  0.00  0.00    -0.345 N 
HETATM    2  C           1     -26.245  -6.331 -17.970  0.00  0.00     0.249 C 
HETATM    3  H           1     -27.525  -7.194 -19.348  0.00  0.00     0.163 HD
HETATM    4  O           1     -26.172  -5.772 -16.902  0.00  0.00    -0.271 OA
ENDROOT
BRANCH   1   5
HETATM    5  C           1     -28.666  -6.473 -17.684  0.00  0.00     0.186 C 
BRANCH   5   6
HETATM    6  C           1     -29.438  -5.321 -18.312  0.00  0.00     0.046 C 
BRANCH   6   7
HETATM    7  C           1     -30.589  -4.921 -17.398  0.00  0.00     0.116 C 
BRANCH   7   8
HETATM    8  C           1     -30.870  -3.446 -17.559  0.00  0.00     0.172 C 
HETATM    9  O           1     -29.936  -2.619 -17.484  0.00  0.00    -0.648 OA
HETATM   10  O           1     -32.038  -3.053 -17.767  0.00  0.00    -0.648 OA
ENDBRANCH   7   8
ENDBRANCH   6   7
ENDBRANCH   5   6
BRANCH   5  11
HETATM   11  C           1     -29.527  -7.712 -17.675  0.00  0.00     0.196 C 
HETATM   12  O           1     -29.512  -8.476 -16.687  0.00  0.00    -0.646 OA
HETATM   13  O           1     -30.255  -7.973 -18.658  0.00  0.00    -0.646 OA
ENDBRANCH   5  11
ENDBRANCH   1   5
BRANCH   2  14
HETATM   14  C           1     -24.994  -6.595 -18.771  0.00  0.00     0.278 C 
BRANCH  14  15
HETATM   15  N           1     -24.158  -7.624 -18.069  0.00  0.00    -0.066 N 
HETATM   16  H           1     -24.195  -8.523 -18.599  0.00  0.00     0.275 HD
HETATM   17  H           1     -23.170  -7.290 -18.016  0.00  0.00     0.275 HD
HETATM   18  H           1     -24.529  -7.772 -17.103  0.00  0.00     0.275 HD
ENDBRANCH  14  15
BRANCH  14  19
HETATM   19  C           1     -25.374  -7.107 -20.153  0.00  0.00     0.017 C 
HETATM   20  C           1     -24.270  -8.014 -20.680  0.00  0.00     0.012 C 
HETATM   21  C           1     -25.555  -5.928 -21.099  0.00  0.00     0.012 C 
ENDBRANCH  14  19
ENDBRANCH   2  14
TORSDOF 8
ENDMDL
MODEL 2
REMARK VINA RESULT:      -5.9     11.957     13.588
REMARK  8 active torsions:
REMARK  status: ('A' for Active; 'I' for Inactive)
REMARK    1  A    between atoms: N_1  and  C_6 
REMARK       I    between atoms: N_1  and  C_3 
REMARK    2  A    between atoms: C_3  and  C_9 
REMARK    3  A    between atoms: N_4  and  C_9 
REMARK    4  A    between atoms: C_5  and  C_8 
REMARK    5  A    between atoms: C_5  and  C_6 
REMARK    6  A    between atoms: C_6  and  C_17 
REMARK    7  A    between atoms: C_8  and  C_20 
REMARK    8  A    between atoms: C_9  and  C_18 
ROOT
HETATM    1  N           1     -21.423  -5.198  -6.484  0.00  0.00    -0.345 N 
HETATM    2  C           1     -21.257  -6.461  -5.982  0.00  0.00     0.249 C 
HETATM    3  H           1     -21.409  -4.401  -5.861  0.00  0.00     0.163 HD
HETATM    4  O           1     -21.274  -7.413  -6.726  0.00  0.00    -0.271 OA
ENDROOT
BRANCH   1   5
HETATM    5  C           1     -21.620  -5.003  -7.907  0.00  0.00     0.186 C 
BRANCH   5   6
HETATM    6  C           1     -22.712  -3.965  -8.131  0.00  0.00     0.046 C 
BRANCH   6   7
HETATM    7  C           1     -23.734  -4.508  -9.120  0.00  0.00     0.116 C 
BRANCH   7   8
HETATM    8  C           1     -23.860  -3.558 -10.286  0.00  0.00     0.172 C 
HETATM    9  O           1     -24.988  -3.162 -10.652  0.00  0.00    -0.648 OA
HETATM   10  O           1     -22.835  -3.167 -10.886  0.00  0.00    -0.648 OA
ENDBRANCH   7   8
ENDBRANCH   6   7
ENDBRANCH   5   6
BRANCH   5  11
HETATM   11  C           1     -20.332  -4.522  -8.531  0.00  0.00     0.196 C 
HETATM   12  O           1     -20.082  -4.783  -9.726  0.00  0.00    -0.646 OA
HETATM   13  O           1     -19.516  -3.865  -7.849  0.00  0.00    -0.646 OA
ENDBRANCH   5  11
ENDBRANCH   1   5
BRANCH   2  14
HETATM   14  C           1     -21.052  -6.665  -4.502  0.00  0.00     0.278 C 
BRANCH  14  15
HETATM   15  N           1     -22.221  -6.097  -3.753  0.00  0.00    -0.066 N 
HETATM   16  H           1     -22.249  -5.061  -3.883  0.00  0.00     0.275 HD
HETATM   17  H           1     -23.105  -6.518  -4.118  0.00  0.00     0.275 HD
HETATM   18  H           1     -22.123  -6.318  -2.736  0.00  0.00     0.275 HD
ENDBRANCH  14  15
BRANCH  14  19
HETATM   19  C           1     -20.934  -8.154  -4.205  0.00  0.00     0.017 C 
HETATM   20  C           1     -21.510  -8.444  -2.825  0.00  0.00     0.012 C 
HETATM   21  C           1     -19.468  -8.563  -4.238  0.00  0.00     0.012 C 
ENDBRANCH  14  19
ENDBRANCH   2  14
TORSDOF 8
ENDMDL
MODEL 3
REMARK VINA RESULT:      -5.8     13.311     14.896
REMARK  8 active torsions:
REMARK  status: ('A' for Active; 'I' for Inactive)
REMARK    1  A    between atoms: N_1  and  C_6 
REMARK       I    between atoms: N_1  and  C_3 
REMARK    2  A    between atoms: C_3  and  C_9 
REMARK    3  A    between atoms: N_4  and  C_9 
REMARK    4  A    between atoms: C_5  and  C_8 
REMARK    5  A    between atoms: C_5  and  C_6 
REMARK    6  A    between atoms: C_6  and  C_17 
REMARK    7  A    between atoms: C_8  and  C_20 
REMARK    8  A    between atoms: C_9  and  C_18 
ROOT
HETATM    1  N           1     -21.603  -6.342  -6.426  0.00  0.00    -0.345 N 
HETATM    2  C           1     -21.593  -5.074  -6.942  0.00  0.00     0.249 C 
HETATM    3  H           1     -22.067  -7.088  -6.927  0.00  0.00     0.163 HD
HETATM    4  O           1     -21.039  -4.183  -6.343  0.00  0.00    -0.271 OA
ENDROOT
BRANCH   1   5
HETATM    5  C           1     -20.950  -6.615  -5.161  0.00  0.00     0.186 C 
BRANCH   5   6
HETATM    6  C           1     -21.995  -6.694  -4.056  0.00  0.00     0.046 C 
BRANCH   6   7
HETATM    7  C           1     -21.442  -6.062  -2.786  0.00  0.00     0.116 C 
BRANCH   7   8
HETATM    8  C           1     -21.732  -6.960  -1.608  0.00  0.00     0.172 C 
HETATM    9  O           1     -20.973  -7.919  -1.351  0.00  0.00    -0.648 OA
HETATM   10  O           1     -22.732  -6.745  -0.890  0.00  0.00    -0.648 OA
ENDBRANCH   7   8
ENDBRANCH   6   7
ENDBRANCH   5   6
BRANCH   5  11
HETATM   11  C           1     -20.210  -7.927  -5.250  0.00  0.00     0.196 C 
HETATM   12  O           1     -20.556  -8.889  -4.532  0.00  0.00    -0.646 OA
HETATM   13  O           1     -19.251  -8.050  -6.042  0.00  0.00    -0.646 OA
ENDBRANCH   5  11
ENDBRANCH   1   5
BRANCH   2  14
HETATM   14  C           1     -22.273  -4.789  -8.259  0.00  0.00     0.278 C 
BRANCH  14  15
HETATM   15  N           1     -23.551  -4.045  -8.011  0.00  0.00    -0.066 N 
HETATM   16  H           1     -23.501  -3.106  -8.466  0.00  0.00     0.275 HD
HETATM   17  H           1     -24.350  -4.585  -8.411  0.00  0.00     0.275 HD
HETATM   18  H           1     -23.690  -3.927  -6.982  0.00  0.00     0.275 HD
ENDBRANCH  14  15
BRANCH  14  19
HETATM   19  C           1     -21.355  -3.946  -9.133  0.00  0.00     0.017 C 
HETATM   20  C           1     -22.094  -3.537 -10.400  0.00  0.00     0.012 C 
HETATM   21  C           1     -20.121  -4.757  -9.505  0.00  0.00     0.012 C 
ENDBRANCH  14  19
ENDBRANCH   2  14
TORSDOF 8
ENDMDL
MODEL 4
REMARK VINA RESULT:      -5.8     14.626     15.974
REMARK  8 active torsions:
REMARK  status: ('A' for Active; 'I' for Inactive)
REMARK    1  A    between atoms: N_1  and  C_6 
REMARK       I    between atoms: N_1  and  C_3 
REMARK    2  A    between atoms: C_3  and  C_9 
REMARK    3  A    between atoms: N_4  and  C_9 
REMARK    4  A    between atoms: C_5  and  C_8 
REMARK    5  A    between atoms: C_5  and  C_6 
REMARK    6  A    between atoms: C_6  and  C_17 
REMARK    7  A    between atoms: C_8  and  C_20 
REMARK    8  A    between atoms: C_9  and  C_18 
ROOT
HETATM    1  N           1     -21.693  -8.321  -4.422  0.00  0.00    -0.345 N 
HETATM    2  C           1     -20.863  -7.801  -5.378  0.00  0.00     0.249 C 
HETATM    3  H           1     -22.617  -7.929  -4.287  0.00  0.00     0.163 HD
HETATM    4  O           1     -19.761  -8.269  -5.539  0.00  0.00    -0.271 OA
ENDROOT
BRANCH   1   5
HETATM    5  C           1     -21.250  -9.432  -3.602  0.00  0.00     0.186 C 
BRANCH   5   6
HETATM    6  C           1     -21.595  -9.157  -2.145  0.00  0.00     0.046 C 
BRANCH   6   7
HETATM    7  C           1     -21.022  -7.808  -1.732  0.00  0.00     0.116 C 
BRANCH   7   8
HETATM    8  C           1     -22.148  -6.826  -1.518  0.00  0.00     0.172 C 
HETATM    9  O           1     -22.388  -5.952  -2.379  0.00  0.00    -0.648 OA
HETATM   10  O           1     -22.841  -6.887  -0.480  0.00  0.00    -0.648 OA
ENDBRANCH   7   8
ENDBRANCH   6   7
ENDBRANCH   5   6
BRANCH   5  11
HETATM   11  C           1     -21.940 -10.696  -4.054  0.00  0.00     0.196 C 
HETATM   12  O           1     -22.894 -11.157  -3.392  0.00  0.00    -0.646 OA
HETATM   13  O           1     -21.555 -11.281  -5.089  0.00  0.00    -0.646 OA
ENDBRANCH   5  11
ENDBRANCH   1   5
BRANCH   2  14
HETATM   14  C           1     -21.324  -6.645  -6.231  0.00  0.00     0.278 C 
BRANCH  14  15
HETATM   15  N           1     -22.320  -5.825  -5.466  0.00  0.00    -0.066 N 
HETATM   16  H           1     -22.132  -5.914  -4.442  0.00  0.00     0.275 HD
HETATM   17  H           1     -22.236  -4.824  -5.750  0.00  0.00     0.275 HD
HETATM   18  H           1     -23.285  -6.167  -5.674  0.00  0.00     0.275 HD
ENDBRANCH  14  15
BRANCH  14  19
HETATM   19  C           1     -20.129  -5.778  -6.601  0.00  0.00     0.017 C 
HETATM   20  C           1     -20.027  -4.612  -5.626  0.00  0.00     0.012 C 
HETATM   21  C           1     -20.308  -5.242  -8.015  0.00  0.00     0.012 C 
ENDBRANCH  14  19
ENDBRANCH   2  14
TORSDOF 8
ENDMDL
MODEL 5
REMARK VINA RESULT:      -5.7     15.834     17.490
REMARK  8 active torsions:
REMARK  status: ('A' for Active; 'I' for Inactive)
REMARK    1  A    between atoms: N_1  and  C_6 
REMARK       I    between atoms: N_1  and  C_3 
REMARK    2  A    between atoms: C_3  and  C_9 
REMARK    3  A    between atoms: N_4  and  C_9 
REMARK    4  A    between atoms: C_5  and  C_8 
REMARK    5  A    between atoms: C_5  and  C_6 
REMARK    6  A    between atoms: C_6  and  C_17 
REMARK    7  A    between atoms: C_8  and  C_20 
REMARK    8  A    between atoms: C_9  and  C_18 
ROOT
HETATM    1  N           1     -20.567  -8.318  -3.172  0.00  0.00    -0.345 N 
HETATM    2  C           1     -21.330  -8.727  -2.112  0.00  0.00     0.249 C 
HETATM    3  H           1     -20.054  -7.447  -3.121  0.00  0.00     0.163 HD
HETATM    4  O           1     -21.942  -9.766  -2.174  0.00  0.00    -0.271 OA
ENDROOT
BRANCH   1   5
HETATM    5  C           1     -20.492  -9.133  -4.369  0.00  0.00     0.186 C 
BRANCH   5   6
HETATM    6  C           1     -21.204  -8.422  -5.512  0.00  0.00     0.046 C 
BRANCH   6   7
HETATM    7  C           1     -20.784  -6.959  -5.542  0.00  0.00     0.116 C 
BRANCH   7   8
HETATM    8  C           1     -21.975  -6.086  -5.228  0.00  0.00     0.172 C 
HETATM    9  O           1     -22.523  -6.156  -4.107  0.00  0.00    -0.648 OA
HETATM   10  O           1     -22.413  -5.295  -6.090  0.00  0.00    -0.648 OA
ENDBRANCH   7   8
ENDBRANCH   6   7
ENDBRANCH   5   6
BRANCH   5  11
HETATM   11  C           1     -19.046  -9.356  -4.736  0.00  0.00     0.196 C 
HETATM   12  O           1     -18.743  -9.712  -5.895  0.00  0.00    -0.646 OA
HETATM   13  O           1     -18.151  -9.185  -3.880  0.00  0.00    -0.646 OA
ENDBRANCH   5  11
ENDBRANCH   1   5
BRANCH   2  14
HETATM   14  C           1     -21.407  -7.879  -0.866  0.00  0.00     0.278 C 
BRANCH  14  15
HETATM   15  N           1     -22.275  -6.683  -1.128  0.00  0.00    -0.066 N 
HETATM   16  H           1     -22.268  -6.057  -0.292  0.00  0.00     0.275 HD
HETATM   17  H           1     -21.909  -6.163  -1.956  0.00  0.00     0.275 HD
HETATM   18  H           1     -23.253  -6.999  -1.319  0.00  0.00     0.275 HD
ENDBRANCH  14  15
BRANCH  14  19
HETATM   19  C           1     -22.002  -8.698   0.271  0.00  0.00     0.017 C 
HETATM   20  C           1     -23.318  -8.073   0.714  0.00  0.00     0.012 C 
HETATM   21  C           1     -21.031  -8.720   1.443  0.00  0.00     0.012 C 
ENDBRANCH  14  19
ENDBRANCH   2  14
TORSDOF 8
ENDMDL
MODEL 6
REMARK VINA RESULT:      -5.3     15.861     17.487
REMARK  8 active torsions:
REMARK  status: ('A' for Active; 'I' for Inactive)
REMARK    1  A    between atoms: N_1  and  C_6 
REMARK       I    between atoms: N_1  and  C_3 
REMARK    2  A    between atoms: C_3  and  C_9 
REMARK    3  A    between atoms: N_4  and  C_9 
REMARK    4  A    between atoms: C_5  and  C_8 
REMARK    5  A    between atoms: C_5  and  C_6 
REMARK    6  A    between atoms: C_6  and  C_17 
REMARK    7  A    between atoms: C_8  and  C_20 
REMARK    8  A    between atoms: C_9  and  C_18 
ROOT
HETATM    1  N           1     -21.033  -8.406  -2.464  0.00  0.00    -0.345 N 
HETATM    2  C           1     -21.721  -9.502  -2.016  0.00  0.00     0.249 C 
HETATM    3  H           1     -20.559  -7.803  -1.805  0.00  0.00     0.163 HD
HETATM    4  O           1     -22.288 -10.222  -2.803  0.00  0.00    -0.271 OA
ENDROOT
BRANCH   1   5
HETATM    5  C           1     -20.983  -8.111  -3.882  0.00  0.00     0.186 C 
BRANCH   5   6
HETATM    6  C           1     -21.087  -6.607  -4.092  0.00  0.00     0.046 C 
BRANCH   6   7
HETATM    7  C           1     -22.015  -6.319  -5.265  0.00  0.00     0.116 C 
BRANCH   7   8
HETATM    8  C           1     -21.238  -5.641  -6.367  0.00  0.00     0.172 C 
HETATM    9  O           1     -20.972  -6.263  -7.418  0.00  0.00    -0.648 OA
HETATM   10  O           1     -20.861  -4.458  -6.229  0.00  0.00    -0.648 OA
ENDBRANCH   7   8
ENDBRANCH   6   7
ENDBRANCH   5   6
BRANCH   5  11
HETATM   11  C           1     -19.679  -8.611  -4.454  0.00  0.00     0.196 C 
HETATM   12  O           1     -18.742  -8.924  -3.691  0.00  0.00    -0.646 OA
HETATM   13  O           1     -19.538  -8.710  -5.693  0.00  0.00    -0.646 OA
ENDBRANCH   5  11
ENDBRANCH   1   5
BRANCH   2  14
HETATM   14  C           1     -21.773  -9.809  -0.540  0.00  0.00     0.278 C 
BRANCH  14  15
HETATM   15  N           1     -20.588 -10.648  -0.161  0.00  0.00    -0.066 N 
HETATM   16  H           1     -20.549 -10.746   0.878  0.00  0.00     0.275 HD
HETATM   17  H           1     -20.678 -11.592  -0.598  0.00  0.00     0.275 HD
HETATM   18  H           1     -19.714 -10.187  -0.502  0.00  0.00     0.275 HD
ENDBRANCH  14  15
BRANCH  14  19
HETATM   19  C           1     -21.747  -8.508   0.251  0.00  0.00     0.017 C 
HETATM   20  C           1     -20.979  -8.718   1.550  0.00  0.00     0.012 C 
HETATM   21  C           1     -23.173  -8.079   0.570  0.00  0.00     0.012 C 
ENDBRANCH  14  19
ENDBRANCH   2  14
TORSDOF 8
ENDMDL
MODEL 7
REMARK VINA RESULT:      -5.3     16.177     18.010
REMARK  8 active torsions:
REMARK  status: ('A' for Active; 'I' for Inactive)
REMARK    1  A    between atoms: N_1  and  C_6 
REMARK       I    between atoms: N_1  and  C_3 
REMARK    2  A    between atoms: C_3  and  C_9 
REMARK    3  A    between atoms: N_4  and  C_9 
REMARK    4  A    between atoms: C_5  and  C_8 
REMARK    5  A    between atoms: C_5  and  C_6 
REMARK    6  A    between atoms: C_6  and  C_17 
REMARK    7  A    between atoms: C_8  and  C_20 
REMARK    8  A    between atoms: C_9  and  C_18 
ROOT
HETATM    1  N           1     -21.577  -8.701  -2.829  0.00  0.00    -0.345 N 
HETATM    2  C           1     -21.050  -9.001  -1.601  0.00  0.00     0.249 C 
HETATM    3  H           1     -22.380  -9.211  -3.173  0.00  0.00     0.163 HD
HETATM    4  O           1     -20.091  -8.392  -1.191  0.00  0.00    -0.271 OA
ENDROOT
BRANCH   1   5
HETATM    5  C           1     -20.984  -7.653  -3.637  0.00  0.00     0.186 C 
BRANCH   5   6
HETATM    6  C           1     -20.727  -8.179  -5.042  0.00  0.00     0.046 C 
BRANCH   6   7
HETATM    7  C           1     -19.340  -8.805  -5.106  0.00  0.00     0.116 C 
BRANCH   7   8
HETATM    8  C           1     -19.469 -10.302  -5.249  0.00  0.00     0.172 C 
HETATM    9  O           1     -19.787 -11.000  -4.261  0.00  0.00    -0.648 OA
HETATM   10  O           1     -19.259 -10.844  -6.355  0.00  0.00    -0.648 OA
ENDBRANCH   7   8
ENDBRANCH   6   7
ENDBRANCH   5   6
BRANCH   5  11
HETATM   11  C           1     -21.925  -6.476  -3.703  0.00  0.00     0.196 C 
HETATM   12  O           1     -22.369  -5.971  -2.651  0.00  0.00    -0.646 OA
HETATM   13  O           1     -22.262  -6.008  -4.813  0.00  0.00    -0.646 OA
ENDBRANCH   5  11
ENDBRANCH   1   5
BRANCH   2  14
HETATM   14  C           1     -21.668 -10.091  -0.761  0.00  0.00     0.278 C 
BRANCH  14  15
HETATM   15  N           1     -20.976 -10.150   0.568  0.00  0.00    -0.066 N 
HETATM   16  H           1     -21.632 -10.531   1.286  0.00  0.00     0.275 HD
HETATM   17  H           1     -20.138 -10.771   0.496  0.00  0.00     0.275 HD
HETATM   18  H           1     -20.674  -9.189   0.846  0.00  0.00     0.275 HD
ENDBRANCH  14  15
BRANCH  14  19
HETATM   19  C           1     -23.146  -9.795  -0.551  0.00  0.00     0.017 C 
HETATM   20  C           1     -23.300  -8.673   0.468  0.00  0.00     0.012 C 
HETATM   21  C           1     -23.847 -11.045  -0.036  0.00  0.00     0.012 C 
ENDBRANCH  14  19
ENDBRANCH   2  14
TORSDOF 8
ENDMDL
MODEL 8
REMARK VINA RESULT:      -5.2     16.836     18.432
REMARK  8 active torsions:
REMARK  status: ('A' for Active; 'I' for Inactive)
REMARK    1  A    between atoms: N_1  and  C_6 
REMARK       I    between atoms: N_1  and  C_3 
REMARK    2  A    between atoms: C_3  and  C_9 
REMARK    3  A    between atoms: N_4  and  C_9 
REMARK    4  A    between atoms: C_5  and  C_8 
REMARK    5  A    between atoms: C_5  and  C_6 
REMARK    6  A    between atoms: C_6  and  C_17 
REMARK    7  A    between atoms: C_8  and  C_20 
REMARK    8  A    between atoms: C_9  and  C_18 
ROOT
HETATM    1  N           1     -21.696  -9.255  -1.620  0.00  0.00    -0.345 N 
HETATM    2  C           1     -21.445 -10.101  -0.573  0.00  0.00     0.249 C 
HETATM    3  H           1     -22.232  -9.579  -2.415  0.00  0.00     0.163 HD
HETATM    4  O           1     -20.805  -9.713   0.375  0.00  0.00    -0.271 OA
ENDROOT
BRANCH   1   5
HETATM    5  C           1     -21.195  -7.894  -1.590  0.00  0.00     0.186 C 
BRANCH   5   6
HETATM    6  C           1     -20.629  -7.532  -2.956  0.00  0.00     0.046 C 
BRANCH   6   7
HETATM    7  C           1     -21.101  -8.546  -3.988  0.00  0.00     0.116 C 
BRANCH   7   8
HETATM    8  C           1     -20.517  -8.202  -5.337  0.00  0.00     0.172 C 
HETATM    9  O           1     -19.365  -8.586  -5.636  0.00  0.00    -0.648 OA
HETATM   10  O           1     -21.184  -7.532  -6.154  0.00  0.00    -0.648 OA
ENDBRANCH   7   8
ENDBRANCH   6   7
ENDBRANCH   5   6
BRANCH   5  11
HETATM   11  C           1     -22.322  -6.952  -1.245  0.00  0.00     0.196 C 
HETATM   12  O           1     -22.555  -5.964  -1.973  0.00  0.00    -0.646 OA
HETATM   13  O           1     -23.020  -7.159  -0.228  0.00  0.00    -0.646 OA
ENDBRANCH   5  11
ENDBRANCH   1   5
BRANCH   2  14
HETATM   14  C           1     -21.966 -11.516  -0.605  0.00  0.00     0.278 C 
BRANCH  14  15
HETATM   15  N           1     -21.800 -12.140   0.749  0.00  0.00    -0.066 N 
HETATM   16  H           1     -21.105 -12.918   0.692  0.00  0.00     0.275 HD
HETATM   17  H           1     -21.462 -11.419   1.425  0.00  0.00     0.275 HD
HETATM   18  H           1     -22.720 -12.517   1.073  0.00  0.00     0.275 HD
ENDBRANCH  14  15
BRANCH  14  19
HETATM   19  C           1     -23.441 -11.506  -0.982  0.00  0.00     0.017 C 
HETATM   20  C           1     -24.227 -10.722   0.060  0.00  0.00     0.012 C 
HETATM   21  C           1     -23.960 -12.936  -1.038  0.00  0.00     0.012 C 
ENDBRANCH  14  19
ENDBRANCH   2  14
TORSDOF 8
ENDMDL
MODEL 9
REMARK VINA RESULT:      -5.2     17.063     18.437
REMARK  8 active torsions:
REMARK  status: ('A' for Active; 'I' for Inactive)
REMARK    1  A    between atoms: N_1  and  C_6 
REMARK       I    between atoms: N_1  and  C_3 
REMARK    2  A    between atoms: C_3  and  C_9 
REMARK    3  A    between atoms: N_4  and  C_9 
REMARK    4  A    between atoms: C_5  and  C_8 
REMARK    5  A    between atoms: C_5  and  C_6 
REMARK    6  A    between atoms: C_6  and  C_17 
REMARK    7  A    between atoms: C_8  and  C_20 
REMARK    8  A    between atoms: C_9  and  C_18 
ROOT
HETATM    1  N           1     -20.194  -8.570  -1.797  0.00  0.00    -0.345 N 
HETATM    2  C           1     -19.965  -9.803  -2.344  0.00  0.00     0.249 C 
HETATM    3  H           1     -19.419  -8.019  -1.449  0.00  0.00     0.163 HD
HETATM    4  O           1     -20.890 -10.461  -2.758  0.00  0.00    -0.271 OA
ENDROOT
BRANCH   1   5
HETATM    5  C           1     -21.545  -8.051  -1.716  0.00  0.00     0.186 C 
BRANCH   5   6
HETATM    6  C           1     -21.858  -7.672  -0.275  0.00  0.00     0.046 C 
BRANCH   6   7
HETATM    7  C           1     -23.115  -8.401   0.182  0.00  0.00     0.116 C 
BRANCH   7   8
HETATM    8  C           1     -22.923  -9.889   0.016  0.00  0.00     0.172 C 
HETATM    9  O           1     -21.889 -10.438   0.454  0.00  0.00    -0.648 OA
HETATM   10  O           1     -23.797 -10.571  -0.560  0.00  0.00    -0.648 OA
ENDBRANCH   7   8
ENDBRANCH   6   7
ENDBRANCH   5   6
BRANCH   5  11
HETATM   11  C           1     -21.670  -6.832  -2.596  0.00  0.00     0.196 C 
HETATM   12  O           1     -21.061  -6.783  -3.686  0.00  0.00    -0.646 OA
HETATM   13  O           1     -22.381  -5.869  -2.233  0.00  0.00    -0.646 OA
ENDBRANCH   5  11
ENDBRANCH   1   5
BRANCH   2  14
HETATM   14  C           1     -18.559 -10.343  -2.428  0.00  0.00     0.278 C 
BRANCH  14  15
HETATM   15  N           1     -18.581 -11.699  -3.068  0.00  0.00    -0.066 N 
HETATM   16  H           1     -18.173 -11.638  -4.028  0.00  0.00     0.275 HD
HETATM   17  H           1     -18.018 -12.364  -2.492  0.00  0.00     0.275 HD
HETATM   18  H           1     -19.567 -12.038  -3.129  0.00  0.00     0.275 HD
ENDBRANCH  14  15
BRANCH  14  19
HETATM   19  C           1     -17.702  -9.401  -3.263  0.00  0.00     0.017 C 
HETATM   20  C           1     -17.880  -9.727  -4.740  0.00  0.00     0.012 C 
HETATM   21  C           1     -16.238  -9.571  -2.880  0.00  0.00     0.012 C 
ENDBRANCH  14  19
ENDBRANCH   2  14
TORSDOF 8
ENDMDL
