MODEL 1
REMARK VINA RESULT:      -7.4      0.000      0.000
REMARK  13 active torsions:
REMARK  status: ('A' for Active; 'I' for Inactive)
REMARK    1  A    between atoms: C_2  and  C_4 
REMARK    2  A    between atoms: C_4  and  C_5 
REMARK    3  A    between atoms: C_4  and  N_11 
REMARK    4  A    between atoms: C_5  and  O_6 
REMARK    5  A    between atoms: O_6  and  P_7 
REMARK    6  A    between atoms: P_7  and  O_9 
REMARK       I    between atoms: N_11  and  C_12 
REMARK    7  A    between atoms: C_12  and  C_13 
REMARK    8  A    between atoms: C_13  and  C_14 
REMARK    9  A    between atoms: C_13  and  N_26 
REMARK   10  A    between atoms: C_14  and  C_15 
REMARK   11  A    between atoms: C_18  and  O_19 
REMARK   12  A    between atoms: O_19  and  P_20 
REMARK   13  A    between atoms: P_20  and  O_21 
ROOT
HETATM    1  C           1     -21.598  -6.645  -4.842  0.00  0.00     0.278 C 
ENDROOT
BRANCH   1   2
HETATM    2  C           1     -21.207  -8.081  -4.593  0.00  0.00     0.249 C 
HETATM    3  N           1     -21.562  -8.695  -3.422  0.00  0.00    -0.343 N 
HETATM    4  H           1     -22.087  -8.185  -2.722  0.00  0.00     0.163 HD
HETATM    5  O           1     -20.580  -8.690  -5.428  0.00  0.00    -0.271 OA
BRANCH   3   6
HETATM    6  C           1     -21.186 -10.075  -3.183  0.00  0.00     0.210 C 
BRANCH   6   7
HETATM    7  C           1     -22.356 -10.976  -3.496  0.00  0.00     0.198 C 
HETATM    8  O           1     -23.255 -11.153  -2.645  0.00  0.00    -0.646 OA
HETATM    9  O           1     -22.427 -11.547  -4.606  0.00  0.00    -0.646 OA
ENDBRANCH   6   7
BRANCH   6  10
HETATM   10  C           1     -20.791 -10.247  -1.723  0.00  0.00     0.217 C 
BRANCH  10  11
HETATM   11  O           1     -20.643  -8.987  -1.127  0.00  0.00    -0.287 OA
BRANCH  11  12
HETATM   12  P           1     -21.865  -8.498  -0.191  0.00  0.00     0.406 P 
HETATM   13  O           1     -22.429  -7.241  -0.731  0.00  0.00    -0.624 OA
HETATM   14  O           1     -21.371  -8.267   1.184  0.00  0.00    -0.624 OA
BRANCH  12  15
HETATM   15  O           1     -23.012  -9.636  -0.169  0.00  0.00    -0.300 OA
HETATM   16  H           1     -23.670  -9.306   0.419  0.00  0.00     0.223 HD
ENDBRANCH  12  15
ENDBRANCH  11  12
ENDBRANCH  10  11
ENDBRANCH   6  10
ENDBRANCH   3   6
ENDBRANCH   1   2
BRANCH   1  17
HETATM   17  C           1     -20.462  -5.925  -5.557  0.00  0.00     0.081 C 
BRANCH  17  18
HETATM   18  C           1     -20.976  -5.314  -6.822  0.00  0.00    -0.056 A 
HETATM   19  C           1     -22.240  -4.724  -6.849  0.00  0.00     0.010 A 
HETATM   20  C           1     -22.718  -4.154  -8.029  0.00  0.00     0.038 A 
HETATM   21  C           1     -21.933  -4.174  -9.182  0.00  0.00     0.081 A 
HETATM   22  C           1     -20.669  -4.763  -9.155  0.00  0.00     0.038 A 
HETATM   23  C           1     -20.191  -5.333  -7.975  0.00  0.00     0.010 A 
BRANCH  21  24
HETATM   24  O           1     -22.397  -3.620 -10.328  0.00  0.00    -0.247 OA
BRANCH  24  25
HETATM   25  P           1     -23.697  -4.284 -11.019  0.00  0.00     0.411 P 
HETATM   26  O           1     -24.049  -5.533 -10.310  0.00  0.00    -0.624 OA
HETATM   27  O           1     -24.832  -3.337 -10.946  0.00  0.00    -0.624 OA
BRANCH  25  28
HETATM   28  O           1     -23.374  -4.616 -12.567  0.00  0.00    -0.300 OA
HETATM   29  H           1     -24.210  -4.598 -12.999  0.00  0.00     0.223 HD
ENDBRANCH  25  28
ENDBRANCH  24  25
ENDBRANCH  21  24
ENDBRANCH  17  18
ENDBRANCH   1  17
BRANCH   1  30
HETATM   30  N           1     -21.873  -5.969  -3.533  0.00  0.00    -0.066 N 
HETATM   31  H           1     -21.885  -4.933  -3.670  0.00  0.00     0.275 HD
HETATM   32  H           1     -22.800  -6.282  -3.166  0.00  0.00     0.275 HD
HETATM   33  H           1     -21.125  -6.219  -2.847  0.00  0.00     0.275 HD
ENDBRANCH   1  30
TORSDOF 13
ENDMDL
MODEL 2
REMARK VINA RESULT:      -7.0      2.058      3.319
REMARK  13 active torsions:
REMARK  status: ('A' for Active; 'I' for Inactive)
REMARK    1  A    between atoms: C_2  and  C_4 
REMARK    2  A    between atoms: C_4  and  C_5 
REMARK    3  A    between atoms: C_4  and  N_11 
REMARK    4  A    between atoms: C_5  and  O_6 
REMARK    5  A    between atoms: O_6  and  P_7 
REMARK    6  A    between atoms: P_7  and  O_9 
REMARK       I    between atoms: N_11  and  C_12 
REMARK    7  A    between atoms: C_12  and  C_13 
REMARK    8  A    between atoms: C_13  and  C_14 
REMARK    9  A    between atoms: C_13  and  N_26 
REMARK   10  A    between atoms: C_14  and  C_15 
REMARK   11  A    between atoms: C_18  and  O_19 
REMARK   12  A    between atoms: O_19  and  P_20 
REMARK   13  A    between atoms: P_20  and  O_21 
ROOT
HETATM    1  C           1     -21.566  -6.385  -4.826  0.00  0.00     0.278 C 
ENDROOT
BRANCH   1   2
HETATM    2  C           1     -21.125  -7.827  -4.871  0.00  0.00     0.249 C 
HETATM    3  N           1     -20.829  -8.489  -3.711  0.00  0.00    -0.343 N 
HETATM    4  H           1     -20.906  -8.012  -2.821  0.00  0.00     0.163 HD
HETATM    5  O           1     -21.032  -8.398  -5.932  0.00  0.00    -0.271 OA
BRANCH   3   6
HETATM    6  C           1     -20.405  -9.875  -3.754  0.00  0.00     0.210 C 
BRANCH   6   7
HETATM    7  C           1     -21.405 -10.731  -3.015  0.00  0.00     0.198 C 
HETATM    8  O           1     -22.296 -11.339  -3.648  0.00  0.00    -0.646 OA
HETATM    9  O           1     -21.344 -10.833  -1.771  0.00  0.00    -0.646 OA
ENDBRANCH   6   7
BRANCH   6  10
HETATM   10  C           1     -19.040 -10.008  -3.092  0.00  0.00     0.217 C 
BRANCH  10  11
HETATM   11  O           1     -18.085  -9.309  -3.844  0.00  0.00    -0.287 OA
BRANCH  11  12
HETATM   12  P           1     -17.488 -10.086  -5.128  0.00  0.00     0.406 P 
HETATM   13  O           1     -17.612 -11.546  -4.924  0.00  0.00    -0.624 OA
HETATM   14  O           1     -16.062  -9.731  -5.300  0.00  0.00    -0.624 OA
BRANCH  12  15
HETATM   15  O           1     -18.315  -9.656  -6.448  0.00  0.00    -0.300 OA
HETATM   16  H           1     -18.976 -10.320  -6.549  0.00  0.00     0.223 HD
ENDBRANCH  12  15
ENDBRANCH  11  12
ENDBRANCH  10  11
ENDBRANCH   6  10
ENDBRANCH   3   6
ENDBRANCH   1   2
BRANCH   1  17
HETATM   17  C           1     -20.502  -5.507  -5.471  0.00  0.00     0.081 C 
BRANCH  17  18
HETATM   18  C           1     -20.999  -5.008  -6.792  0.00  0.00    -0.056 A 
HETATM   19  C           1     -20.163  -5.039  -7.908  0.00  0.00     0.010 A 
HETATM   20  C           1     -20.628  -4.575  -9.139  0.00  0.00     0.038 A 
HETATM   21  C           1     -21.927  -4.080  -9.254  0.00  0.00     0.081 A 
HETATM   22  C           1     -22.763  -4.050  -8.137  0.00  0.00     0.038 A 
HETATM   23  C           1     -22.298  -4.515  -6.906  0.00  0.00     0.010 A 
BRANCH  21  24
HETATM   24  O           1     -22.378  -3.629 -10.449  0.00  0.00    -0.247 OA
BRANCH  24  25
HETATM   25  P           1     -23.713  -4.302 -11.059  0.00  0.00     0.411 P 
HETATM   26  O           1     -24.022  -5.544 -10.317  0.00  0.00    -0.624 OA
HETATM   27  O           1     -24.844  -3.356 -10.933  0.00  0.00    -0.624 OA
BRANCH  25  28
HETATM   28  O           1     -23.476  -4.652 -12.619  0.00  0.00    -0.300 OA
HETATM   29  H           1     -22.541  -4.680 -12.722  0.00  0.00     0.223 HD
ENDBRANCH  25  28
ENDBRANCH  24  25
ENDBRANCH  21  24
ENDBRANCH  17  18
ENDBRANCH   1  17
BRANCH   1  30
HETATM   30  N           1     -21.761  -5.967  -3.400  0.00  0.00    -0.066 N 
HETATM   31  H           1     -22.650  -5.424  -3.313  0.00  0.00     0.275 HD
HETATM   32  H           1     -21.811  -6.815  -2.792  0.00  0.00     0.275 HD
HETATM   33  H           1     -20.958  -5.369  -3.099  0.00  0.00     0.275 HD
ENDBRANCH   1  30
TORSDOF 13
ENDMDL
MODEL 3
REMARK VINA RESULT:      -7.0     12.572     16.125
REMARK  13 active torsions:
REMARK  status: ('A' for Active; 'I' for Inactive)
REMARK    1  A    between atoms: C_2  and  C_4 
REMARK    2  A    between atoms: C_4  and  C_5 
REMARK    3  A    between atoms: C_4  and  N_11 
REMARK    4  A    between atoms: C_5  and  O_6 
REMARK    5  A    between atoms: O_6  and  P_7 
REMARK    6  A    between atoms: P_7  and  O_9 
REMARK       I    between atoms: N_11  and  C_12 
REMARK    7  A    between atoms: C_12  and  C_13 
REMARK    8  A    between atoms: C_13  and  C_14 
REMARK    9  A    between atoms: C_13  and  N_26 
REMARK   10  A    between atoms: C_14  and  C_15 
REMARK   11  A    between atoms: C_18  and  O_19 
REMARK   12  A    between atoms: O_19  and  P_20 
REMARK   13  A    between atoms: P_20  and  O_21 
ROOT
HETATM    1  C           1     -32.732  -3.959 -17.380  0.00  0.00     0.278 C 
ENDROOT
BRANCH   1   2
HETATM    2  C           1     -33.839  -3.497 -16.465  0.00  0.00     0.249 C 
HETATM    3  N           1     -34.430  -2.279 -16.666  0.00  0.00    -0.343 N 
HETATM    4  H           1     -34.124  -1.687 -17.429  0.00  0.00     0.163 HD
HETATM    5  O           1     -34.204  -4.202 -15.554  0.00  0.00    -0.271 OA
BRANCH   3   6
HETATM    6  C           1     -35.494  -1.834 -15.787  0.00  0.00     0.210 C 
BRANCH   6   7
HETATM    7  C           1     -36.379  -0.857 -16.521  0.00  0.00     0.198 C 
HETATM    8  O           1     -37.505  -1.216 -16.927  0.00  0.00    -0.646 OA
HETATM    9  O           1     -35.986   0.312 -16.725  0.00  0.00    -0.646 OA
ENDBRANCH   6   7
BRANCH   6  10
HETATM   10  C           1     -34.890  -1.152 -14.566  0.00  0.00     0.217 C 
BRANCH  10  11
HETATM   11  O           1     -35.637  -1.484 -13.427  0.00  0.00    -0.287 OA
BRANCH  11  12
HETATM   12  P           1     -34.829  -2.235 -12.247  0.00  0.00     0.406 P 
HETATM   13  O           1     -35.786  -2.942 -11.366  0.00  0.00    -0.624 OA
HETATM   14  O           1     -34.074  -1.239 -11.455  0.00  0.00    -0.624 OA
BRANCH  12  15
HETATM   15  O           1     -33.803  -3.303 -12.892  0.00  0.00    -0.300 OA
HETATM   16  H           1     -33.837  -4.050 -12.319  0.00  0.00     0.223 HD
ENDBRANCH  12  15
ENDBRANCH  11  12
ENDBRANCH  10  11
ENDBRANCH   6  10
ENDBRANCH   3   6
ENDBRANCH   1   2
BRANCH   1  17
HETATM   17  C           1     -32.223  -5.318 -16.917  0.00  0.00     0.081 C 
BRANCH  17  18
HETATM   18  C           1     -30.728  -5.290 -16.835  0.00  0.00    -0.056 A 
HETATM   19  C           1     -30.099  -5.239 -15.592  0.00  0.00     0.010 A 
HETATM   20  C           1     -28.706  -5.214 -15.517  0.00  0.00     0.038 A 
HETATM   21  C           1     -27.943  -5.240 -16.684  0.00  0.00     0.081 A 
HETATM   22  C           1     -28.573  -5.292 -17.928  0.00  0.00     0.038 A 
HETATM   23  C           1     -29.966  -5.317 -18.003  0.00  0.00     0.010 A 
BRANCH  21  24
HETATM   24  O           1     -26.591  -5.216 -16.611  0.00  0.00    -0.247 OA
BRANCH  24  25
HETATM   25  P           1     -25.841  -6.511 -16.004  0.00  0.00     0.411 P 
HETATM   26  O           1     -26.847  -7.501 -15.560  0.00  0.00    -0.624 OA
HETATM   27  O           1     -24.979  -7.115 -17.046  0.00  0.00    -0.624 OA
BRANCH  25  28
HETATM   28  O           1     -24.930  -6.067 -14.746  0.00  0.00    -0.300 OA
HETATM   29  H           1     -24.586  -5.223 -14.981  0.00  0.00     0.223 HD
ENDBRANCH  25  28
ENDBRANCH  24  25
ENDBRANCH  21  24
ENDBRANCH  17  18
ENDBRANCH   1  17
BRANCH   1  30
HETATM   30  N           1     -31.608  -2.967 -17.346  0.00  0.00    -0.066 N 
HETATM   31  H           1     -31.949  -2.067 -16.937  0.00  0.00     0.275 HD
HETATM   32  H           1     -30.829  -3.343 -16.759  0.00  0.00     0.275 HD
HETATM   33  H           1     -31.262  -2.798 -18.317  0.00  0.00     0.275 HD
ENDBRANCH   1  30
TORSDOF 13
ENDMDL
MODEL 4
REMARK VINA RESULT:      -6.7      1.843      2.922
REMARK  13 active torsions:
REMARK  status: ('A' for Active; 'I' for Inactive)
REMARK    1  A    between atoms: C_2  and  C_4 
REMARK    2  A    between atoms: C_4  and  C_5 
REMARK    3  A    between atoms: C_4  and  N_11 
REMARK    4  A    between atoms: C_5  and  O_6 
REMARK    5  A    between atoms: O_6  and  P_7 
REMARK    6  A    between atoms: P_7  and  O_9 
REMARK       I    between atoms: N_11  and  C_12 
REMARK    7  A    between atoms: C_12  and  C_13 
REMARK    8  A    between atoms: C_13  and  C_14 
REMARK    9  A    between atoms: C_13  and  N_26 
REMARK   10  A    between atoms: C_14  and  C_15 
REMARK   11  A    between atoms: C_18  and  O_19 
REMARK   12  A    between atoms: O_19  and  P_20 
REMARK   13  A    between atoms: P_20  and  O_21 
ROOT
HETATM    1  C           1     -21.537  -6.515  -4.833  0.00  0.00     0.278 C 
ENDROOT
BRANCH   1   2
HETATM    2  C           1     -21.144  -7.968  -4.728  0.00  0.00     0.249 C 
HETATM    3  N           1     -21.308  -8.638  -3.546  0.00  0.00    -0.343 N 
HETATM    4  H           1     -21.694  -8.159  -2.742  0.00  0.00     0.163 HD
HETATM    5  O           1     -20.683  -8.540  -5.687  0.00  0.00    -0.271 OA
BRANCH   3   6
HETATM    6  C           1     -20.930 -10.034  -3.445  0.00  0.00     0.210 C 
BRANCH   6   7
HETATM    7  C           1     -22.143 -10.860  -3.092  0.00  0.00     0.198 C 
HETATM    8  O           1     -22.735 -11.513  -3.979  0.00  0.00    -0.646 OA
HETATM    9  O           1     -22.557 -10.891  -1.913  0.00  0.00    -0.646 OA
ENDBRANCH   6   7
BRANCH   6  10
HETATM   10  C           1     -19.874 -10.196  -2.360  0.00  0.00     0.217 C 
BRANCH  10  11
HETATM   11  O           1     -18.828  -9.291  -2.586  0.00  0.00    -0.287 OA
BRANCH  11  12
HETATM   12  P           1     -17.544  -9.876  -3.371  0.00  0.00     0.406 P 
HETATM   13  O           1     -16.308  -9.298  -2.799  0.00  0.00    -0.624 OA
HETATM   14  O           1     -17.637  -9.519  -4.804  0.00  0.00    -0.624 OA
BRANCH  12  15
HETATM   15  O           1     -17.506 -11.484  -3.217  0.00  0.00    -0.300 OA
HETATM   16  H           1     -17.715 -11.647  -2.312  0.00  0.00     0.223 HD
ENDBRANCH  12  15
ENDBRANCH  11  12
ENDBRANCH  10  11
ENDBRANCH   6  10
ENDBRANCH   3   6
ENDBRANCH   1   2
BRANCH   1  17
HETATM   17  C           1     -20.431  -5.737  -5.534  0.00  0.00     0.081 C 
BRANCH  17  18
HETATM   18  C           1     -20.950  -5.183  -6.823  0.00  0.00    -0.056 A 
HETATM   19  C           1     -20.169  -5.253  -7.977  0.00  0.00     0.010 A 
HETATM   20  C           1     -20.655  -4.736  -9.179  0.00  0.00     0.038 A 
HETATM   21  C           1     -21.919  -4.150  -9.227  0.00  0.00     0.081 A 
HETATM   22  C           1     -22.700  -4.081  -8.073  0.00  0.00     0.038 A 
HETATM   23  C           1     -22.215  -4.598  -6.871  0.00  0.00     0.010 A 
BRANCH  21  24
HETATM   24  O           1     -22.390  -3.649 -10.394  0.00  0.00    -0.247 OA
BRANCH  24  25
HETATM   25  P           1     -23.744  -4.286 -11.002  0.00  0.00     0.411 P 
HETATM   26  O           1     -23.541  -4.601 -12.433  0.00  0.00    -0.624 OA
HETATM   27  O           1     -24.080  -5.525 -10.265  0.00  0.00    -0.624 OA
BRANCH  25  28
HETATM   28  O           1     -24.954  -3.226 -10.850  0.00  0.00    -0.300 OA
HETATM   29  H           1     -25.731  -3.752 -10.777  0.00  0.00     0.223 HD
ENDBRANCH  25  28
ENDBRANCH  24  25
ENDBRANCH  21  24
ENDBRANCH  17  18
ENDBRANCH   1  17
BRANCH   1  30
HETATM   30  N           1     -21.748  -5.954  -3.458  0.00  0.00    -0.066 N 
HETATM   31  H           1     -20.991  -5.266  -3.241  0.00  0.00     0.275 HD
HETATM   32  H           1     -22.675  -5.475  -3.416  0.00  0.00     0.275 HD
HETATM   33  H           1     -21.723  -6.729  -2.758  0.00  0.00     0.275 HD
ENDBRANCH   1  30
TORSDOF 13
ENDMDL
MODEL 5
REMARK VINA RESULT:      -6.7      1.631      2.073
REMARK  13 active torsions:
REMARK  status: ('A' for Active; 'I' for Inactive)
REMARK    1  A    between atoms: C_2  and  C_4 
REMARK    2  A    between atoms: C_4  and  C_5 
REMARK    3  A    between atoms: C_4  and  N_11 
REMARK    4  A    between atoms: C_5  and  O_6 
REMARK    5  A    between atoms: O_6  and  P_7 
REMARK    6  A    between atoms: P_7  and  O_9 
REMARK       I    between atoms: N_11  and  C_12 
REMARK    7  A    between atoms: C_12  and  C_13 
REMARK    8  A    between atoms: C_13  and  C_14 
REMARK    9  A    between atoms: C_13  and  N_26 
REMARK   10  A    between atoms: C_14  and  C_15 
REMARK   11  A    between atoms: C_18  and  O_19 
REMARK   12  A    between atoms: O_19  and  P_20 
REMARK   13  A    between atoms: P_20  and  O_21 
ROOT
HETATM    1  C           1     -20.139  -6.652  -5.842  0.00  0.00     0.278 C 
ENDROOT
BRANCH   1   2
HETATM    2  C           1     -20.371  -7.022  -4.398  0.00  0.00     0.249 C 
HETATM    3  N           1     -19.966  -8.243  -3.930  0.00  0.00    -0.343 N 
HETATM    4  H           1     -19.511  -8.898  -4.553  0.00  0.00     0.163 HD
HETATM    5  O           1     -20.915  -6.241  -3.654  0.00  0.00    -0.271 OA
BRANCH   3   6
HETATM    6  C           1     -20.190  -8.599  -2.542  0.00  0.00     0.210 C 
BRANCH   6   7
HETATM    7  C           1     -19.252  -9.716  -2.152  0.00  0.00     0.198 C 
HETATM    8  O           1     -19.623 -10.587  -1.336  0.00  0.00    -0.646 OA
HETATM    9  O           1     -18.105  -9.770  -2.644  0.00  0.00    -0.646 OA
ENDBRANCH   6   7
BRANCH   6  10
HETATM   10  C           1     -21.630  -9.061  -2.363  0.00  0.00     0.217 C 
BRANCH  10  11
HETATM   11  O           1     -22.269  -8.245  -1.420  0.00  0.00    -0.287 OA
BRANCH  11  12
HETATM   12  P           1     -22.624  -8.942  -0.007  0.00  0.00     0.406 P 
HETATM   13  O           1     -23.309 -10.232  -0.250  0.00  0.00    -0.624 OA
HETATM   14  O           1     -23.513  -8.051   0.773  0.00  0.00    -0.624 OA
BRANCH  12  15
HETATM   15  O           1     -21.262  -9.204   0.820  0.00  0.00    -0.300 OA
HETATM   16  H           1     -21.530  -9.254   1.722  0.00  0.00     0.223 HD
ENDBRANCH  12  15
ENDBRANCH  11  12
ENDBRANCH  10  11
ENDBRANCH   6  10
ENDBRANCH   3   6
ENDBRANCH   1   2
BRANCH   1  17
HETATM   17  C           1     -20.023  -5.138  -5.967  0.00  0.00     0.081 C 
BRANCH  17  18
HETATM   18  C           1     -20.682  -4.690  -7.234  0.00  0.00    -0.056 A 
HETATM   19  C           1     -21.949  -4.108  -7.192  0.00  0.00     0.010 A 
HETATM   20  C           1     -22.563  -3.690  -8.373  0.00  0.00     0.038 A 
HETATM   21  C           1     -21.910  -3.853  -9.595  0.00  0.00     0.081 A 
HETATM   22  C           1     -20.642  -4.434  -9.636  0.00  0.00     0.038 A 
HETATM   23  C           1     -20.028  -4.852  -8.455  0.00  0.00     0.010 A 
BRANCH  21  24
HETATM   24  O           1     -22.506  -3.446 -10.741  0.00  0.00    -0.247 OA
BRANCH  24  25
HETATM   25  P           1     -23.810  -4.253 -11.246  0.00  0.00     0.411 P 
HETATM   26  O           1     -24.026  -5.433 -10.380  0.00  0.00    -0.624 OA
HETATM   27  O           1     -24.994  -3.367 -11.178  0.00  0.00    -0.624 OA
BRANCH  25  28
HETATM   28  O           1     -23.589  -4.737 -12.771  0.00  0.00    -0.300 OA
HETATM   29  H           1     -23.094  -5.535 -12.703  0.00  0.00     0.223 HD
ENDBRANCH  25  28
ENDBRANCH  24  25
ENDBRANCH  21  24
ENDBRANCH  17  18
ENDBRANCH   1  17
BRANCH   1  30
HETATM   30  N           1     -21.289  -7.135  -6.673  0.00  0.00    -0.066 N 
HETATM   31  H           1     -22.154  -6.609  -6.412  0.00  0.00     0.275 HD
HETATM   32  H           1     -21.079  -6.978  -7.684  0.00  0.00     0.275 HD
HETATM   33  H           1     -21.439  -8.155  -6.502  0.00  0.00     0.275 HD
ENDBRANCH   1  30
TORSDOF 13
ENDMDL
MODEL 6
REMARK VINA RESULT:      -6.7      2.560      4.095
REMARK  13 active torsions:
REMARK  status: ('A' for Active; 'I' for Inactive)
REMARK    1  A    between atoms: C_2  and  C_4 
REMARK    2  A    between atoms: C_4  and  C_5 
REMARK    3  A    between atoms: C_4  and  N_11 
REMARK    4  A    between atoms: C_5  and  O_6 
REMARK    5  A    between atoms: O_6  and  P_7 
REMARK    6  A    between atoms: P_7  and  O_9 
REMARK       I    between atoms: N_11  and  C_12 
REMARK    7  A    between atoms: C_12  and  C_13 
REMARK    8  A    between atoms: C_13  and  C_14 
REMARK    9  A    between atoms: C_13  and  N_26 
REMARK   10  A    between atoms: C_14  and  C_15 
REMARK   11  A    between atoms: C_18  and  O_19 
REMARK   12  A    between atoms: O_19  and  P_20 
REMARK   13  A    between atoms: P_20  and  O_21 
ROOT
HETATM    1  C           1     -21.363  -6.934  -5.001  0.00  0.00     0.278 C 
ENDROOT
BRANCH   1   2
HETATM    2  C           1     -20.753  -8.266  -4.641  0.00  0.00     0.249 C 
HETATM    3  N           1     -19.457  -8.542  -4.985  0.00  0.00    -0.343 N 
HETATM    4  H           1     -18.908  -7.852  -5.482  0.00  0.00     0.163 HD
HETATM    5  O           1     -21.409  -9.091  -4.049  0.00  0.00    -0.271 OA
BRANCH   3   6
HETATM    6  C           1     -18.871  -9.822  -4.639  0.00  0.00     0.210 C 
BRANCH   6   7
HETATM    7  C           1     -17.578  -9.599  -3.894  0.00  0.00     0.198 C 
HETATM    8  O           1     -17.598  -9.286  -2.684  0.00  0.00    -0.646 OA
HETATM    9  O           1     -16.485  -9.726  -4.488  0.00  0.00    -0.646 OA
ENDBRANCH   6   7
BRANCH   6  10
HETATM   10  C           1     -18.594 -10.613  -5.911  0.00  0.00     0.217 C 
BRANCH  10  11
HETATM   11  O           1     -19.078 -11.920  -5.764  0.00  0.00    -0.287 OA
BRANCH  11  12
HETATM   12  P           1     -20.545 -12.203  -6.378  0.00  0.00     0.406 P 
HETATM   13  O           1     -21.321 -13.042  -5.437  0.00  0.00    -0.624 OA
HETATM   14  O           1     -20.411 -12.909  -7.672  0.00  0.00    -0.624 OA
BRANCH  12  15
HETATM   15  O           1     -21.312 -10.800  -6.606  0.00  0.00    -0.300 OA
HETATM   16  H           1     -21.651 -10.847  -7.484  0.00  0.00     0.223 HD
ENDBRANCH  12  15
ENDBRANCH  11  12
ENDBRANCH  10  11
ENDBRANCH   6  10
ENDBRANCH   3   6
ENDBRANCH   1   2
BRANCH   1  17
HETATM   17  C           1     -20.303  -6.046  -5.640  0.00  0.00     0.081 C 
BRANCH  17  18
HETATM   18  C           1     -20.883  -5.358  -6.837  0.00  0.00    -0.056 A 
HETATM   19  C           1     -20.153  -5.289  -8.023  0.00  0.00     0.010 A 
HETATM   20  C           1     -20.695  -4.649  -9.138  0.00  0.00     0.038 A 
HETATM   21  C           1     -21.966  -4.079  -9.067  0.00  0.00     0.081 A 
HETATM   22  C           1     -22.696  -4.149  -7.881  0.00  0.00     0.038 A 
HETATM   23  C           1     -22.155  -4.789  -6.766  0.00  0.00     0.010 A 
BRANCH  21  24
HETATM   24  O           1     -22.491  -3.457 -10.150  0.00  0.00    -0.247 OA
BRANCH  24  25
HETATM   25  P           1     -23.673  -4.207 -10.956  0.00  0.00     0.411 P 
HETATM   26  O           1     -24.016  -5.470 -10.265  0.00  0.00    -0.624 OA
HETATM   27  O           1     -24.866  -3.332 -11.009  0.00  0.00    -0.624 OA
BRANCH  25  28
HETATM   28  O           1     -23.178  -4.533 -12.459  0.00  0.00    -0.300 OA
HETATM   29  H           1     -22.338  -4.114 -12.534  0.00  0.00     0.223 HD
ENDBRANCH  25  28
ENDBRANCH  24  25
ENDBRANCH  21  24
ENDBRANCH  17  18
ENDBRANCH   1  17
BRANCH   1  30
HETATM   30  N           1     -21.887  -6.273  -3.762  0.00  0.00    -0.066 N 
HETATM   31  H           1     -21.101  -5.805  -3.256  0.00  0.00     0.275 HD
HETATM   32  H           1     -22.605  -5.560  -4.024  0.00  0.00     0.275 HD
HETATM   33  H           1     -22.322  -6.992  -3.141  0.00  0.00     0.275 HD
ENDBRANCH   1  30
TORSDOF 13
ENDMDL
MODEL 7
REMARK VINA RESULT:      -6.4      1.914      3.162
REMARK  13 active torsions:
REMARK  status: ('A' for Active; 'I' for Inactive)
REMARK    1  A    between atoms: C_2  and  C_4 
REMARK    2  A    between atoms: C_4  and  C_5 
REMARK    3  A    between atoms: C_4  and  N_11 
REMARK    4  A    between atoms: C_5  and  O_6 
REMARK    5  A    between atoms: O_6  and  P_7 
REMARK    6  A    between atoms: P_7  and  O_9 
REMARK       I    between atoms: N_11  and  C_12 
REMARK    7  A    between atoms: C_12  and  C_13 
REMARK    8  A    between atoms: C_13  and  C_14 
REMARK    9  A    between atoms: C_13  and  N_26 
REMARK   10  A    between atoms: C_14  and  C_15 
REMARK   11  A    between atoms: C_18  and  O_19 
REMARK   12  A    between atoms: O_19  and  P_20 
REMARK   13  A    between atoms: P_20  and  O_21 
ROOT
HETATM    1  C           1     -21.562  -6.655  -3.213  0.00  0.00     0.278 C 
ENDROOT
BRANCH   1   2
HETATM    2  C           1     -20.832  -7.760  -2.488  0.00  0.00     0.249 C 
HETATM    3  N           1     -20.114  -8.685  -3.196  0.00  0.00    -0.343 N 
HETATM    4  H           1     -20.071  -8.629  -4.205  0.00  0.00     0.163 HD
HETATM    5  O           1     -20.883  -7.828  -1.282  0.00  0.00    -0.271 OA
BRANCH   3   6
HETATM    6  C           1     -19.412  -9.747  -2.499  0.00  0.00     0.210 C 
BRANCH   6   7
HETATM    7  C           1     -17.989  -9.819  -2.995  0.00  0.00     0.198 C 
HETATM    8  O           1     -17.698  -9.379  -4.128  0.00  0.00    -0.646 OA
HETATM    9  O           1     -17.100 -10.319  -2.273  0.00  0.00    -0.646 OA
ENDBRANCH   6   7
BRANCH   6  10
HETATM   10  C           1     -20.110 -11.074  -2.766  0.00  0.00     0.217 C 
BRANCH  10  11
HETATM   11  O           1     -20.953 -11.384  -1.690  0.00  0.00    -0.287 OA
BRANCH  11  12
HETATM   12  P           1     -22.530 -11.139  -1.934  0.00  0.00     0.406 P 
HETATM   13  O           1     -23.267 -12.403  -1.715  0.00  0.00    -0.624 OA
HETATM   14  O           1     -22.748 -10.675  -3.322  0.00  0.00    -0.624 OA
BRANCH  12  15
HETATM   15  O           1     -23.066 -10.019  -0.900  0.00  0.00    -0.300 OA
HETATM   16  H           1     -23.108 -10.457  -0.067  0.00  0.00     0.223 HD
ENDBRANCH  12  15
ENDBRANCH  11  12
ENDBRANCH  10  11
ENDBRANCH   6  10
ENDBRANCH   3   6
ENDBRANCH   1   2
BRANCH   1  17
HETATM   17  C           1     -20.552  -5.669  -3.785  0.00  0.00     0.081 C 
BRANCH  17  18
HETATM   18  C           1     -20.842  -5.442  -5.236  0.00  0.00    -0.056 A 
HETATM   19  C           1     -20.368  -4.295  -5.870  0.00  0.00     0.010 A 
HETATM   20  C           1     -20.638  -4.085  -7.223  0.00  0.00     0.038 A 
HETATM   21  C           1     -21.382  -5.022  -7.940  0.00  0.00     0.081 A 
HETATM   22  C           1     -21.855  -6.171  -7.305  0.00  0.00     0.038 A 
HETATM   23  C           1     -21.585  -6.380  -5.952  0.00  0.00     0.010 A 
BRANCH  21  24
HETATM   24  O           1     -21.644  -4.818  -9.253  0.00  0.00    -0.247 OA
BRANCH  24  25
HETATM   25  P           1     -23.106  -4.267  -9.659  0.00  0.00     0.411 P 
HETATM   26  O           1     -22.962  -3.117 -10.578  0.00  0.00    -0.624 OA
HETATM   27  O           1     -23.870  -5.344 -10.330  0.00  0.00    -0.624 OA
BRANCH  25  28
HETATM   28  O           1     -23.895  -3.799  -8.329  0.00  0.00    -0.300 OA
HETATM   29  H           1     -23.754  -2.869  -8.277  0.00  0.00     0.223 HD
ENDBRANCH  25  28
ENDBRANCH  24  25
ENDBRANCH  21  24
ENDBRANCH  17  18
ENDBRANCH   1  17
BRANCH   1  30
HETATM   30  N           1     -22.468  -5.943  -2.254  0.00  0.00    -0.066 N 
HETATM   31  H           1     -23.164  -5.374  -2.788  0.00  0.00     0.275 HD
HETATM   32  H           1     -22.972  -6.644  -1.665  0.00  0.00     0.275 HD
HETATM   33  H           1     -21.902  -5.314  -1.641  0.00  0.00     0.275 HD
ENDBRANCH   1  30
TORSDOF 13
ENDMDL
MODEL 8
REMARK VINA RESULT:      -6.3      1.732      2.225
REMARK  13 active torsions:
REMARK  status: ('A' for Active; 'I' for Inactive)
REMARK    1  A    between atoms: C_2  and  C_4 
REMARK    2  A    between atoms: C_4  and  C_5 
REMARK    3  A    between atoms: C_4  and  N_11 
REMARK    4  A    between atoms: C_5  and  O_6 
REMARK    5  A    between atoms: O_6  and  P_7 
REMARK    6  A    between atoms: P_7  and  O_9 
REMARK       I    between atoms: N_11  and  C_12 
REMARK    7  A    between atoms: C_12  and  C_13 
REMARK    8  A    between atoms: C_13  and  C_14 
REMARK    9  A    between atoms: C_13  and  N_26 
REMARK   10  A    between atoms: C_14  and  C_15 
REMARK   11  A    between atoms: C_18  and  O_19 
REMARK   12  A    between atoms: O_19  and  P_20 
REMARK   13  A    between atoms: P_20  and  O_21 
ROOT
HETATM    1  C           1     -20.179  -7.998  -4.926  0.00  0.00     0.278 C 
ENDROOT
BRANCH   1   2
HETATM    2  C           1     -19.765  -8.847  -3.749  0.00  0.00     0.249 C 
HETATM    3  N           1     -20.713  -9.503  -3.011  0.00  0.00    -0.343 N 
HETATM    4  H           1     -21.692  -9.419  -3.254  0.00  0.00     0.163 HD
HETATM    5  O           1     -18.597  -8.947  -3.456  0.00  0.00    -0.271 OA
BRANCH   3   6
HETATM    6  C           1     -20.315 -10.318  -1.879  0.00  0.00     0.210 C 
BRANCH   6   7
HETATM    7  C           1     -20.166 -11.753  -2.320  0.00  0.00     0.198 C 
HETATM    8  O           1     -21.181 -12.443  -2.559  0.00  0.00    -0.646 OA
HETATM    9  O           1     -19.028 -12.253  -2.448  0.00  0.00    -0.646 OA
ENDBRANCH   6   7
BRANCH   6  10
HETATM   10  C           1     -21.379 -10.230  -0.793  0.00  0.00     0.217 C 
BRANCH  10  11
HETATM   11  O           1     -22.300  -9.224  -1.119  0.00  0.00    -0.287 OA
BRANCH  11  12
HETATM   12  P           1     -22.401  -7.993  -0.078  0.00  0.00     0.406 P 
HETATM   13  O           1     -22.303  -6.714  -0.816  0.00  0.00    -0.624 OA
HETATM   14  O           1     -21.295  -8.083   0.901  0.00  0.00    -0.624 OA
BRANCH  12  15
HETATM   15  O           1     -23.816  -8.061   0.697  0.00  0.00    -0.300 OA
HETATM   16  H           1     -24.011  -8.980   0.769  0.00  0.00     0.223 HD
ENDBRANCH  12  15
ENDBRANCH  11  12
ENDBRANCH  10  11
ENDBRANCH   6  10
ENDBRANCH   3   6
ENDBRANCH   1   2
BRANCH   1  17
HETATM   17  C           1     -20.826  -6.714  -4.425  0.00  0.00     0.081 C 
BRANCH  17  18
HETATM   18  C           1     -21.090  -5.803  -5.583  0.00  0.00    -0.056 A 
HETATM   19  C           1     -20.035  -5.125  -6.192  0.00  0.00     0.010 A 
HETATM   20  C           1     -20.282  -4.277  -7.272  0.00  0.00     0.038 A 
HETATM   21  C           1     -21.584  -4.108  -7.743  0.00  0.00     0.081 A 
HETATM   22  C           1     -22.640  -4.787  -7.135  0.00  0.00     0.038 A 
HETATM   23  C           1     -22.392  -5.635  -6.055  0.00  0.00     0.010 A 
BRANCH  21  24
HETATM   24  O           1     -21.823  -3.284  -8.791  0.00  0.00    -0.247 OA
BRANCH  24  25
HETATM   25  P           1     -21.878  -3.934 -10.269  0.00  0.00     0.411 P 
HETATM   26  O           1     -22.972  -4.928 -10.330  0.00  0.00    -0.624 OA
HETATM   27  O           1     -22.122  -2.868 -11.267  0.00  0.00    -0.624 OA
BRANCH  25  28
HETATM   28  O           1     -20.472  -4.660 -10.592  0.00  0.00    -0.300 OA
HETATM   29  H           1     -20.598  -5.073 -11.428  0.00  0.00     0.223 HD
ENDBRANCH  25  28
ENDBRANCH  24  25
ENDBRANCH  21  24
ENDBRANCH  17  18
ENDBRANCH   1  17
BRANCH   1  30
HETATM   30  N           1     -21.160  -8.757  -5.767  0.00  0.00    -0.066 N 
HETATM   31  H           1     -20.648  -9.297  -6.502  0.00  0.00     0.275 HD
HETATM   32  H           1     -21.700  -9.417  -5.164  0.00  0.00     0.275 HD
HETATM   33  H           1     -21.819  -8.087  -6.225  0.00  0.00     0.275 HD
ENDBRANCH   1  30
TORSDOF 13
ENDMDL
MODEL 9
REMARK VINA RESULT:      -6.0      2.411      4.048
REMARK  13 active torsions:
REMARK  status: ('A' for Active; 'I' for Inactive)
REMARK    1  A    between atoms: C_2  and  C_4 
REMARK    2  A    between atoms: C_4  and  C_5 
REMARK    3  A    between atoms: C_4  and  N_11 
REMARK    4  A    between atoms: C_5  and  O_6 
REMARK    5  A    between atoms: O_6  and  P_7 
REMARK    6  A    between atoms: P_7  and  O_9 
REMARK       I    between atoms: N_11  and  C_12 
REMARK    7  A    between atoms: C_12  and  C_13 
REMARK    8  A    between atoms: C_13  and  C_14 
REMARK    9  A    between atoms: C_13  and  N_26 
REMARK   10  A    between atoms: C_14  and  C_15 
REMARK   11  A    between atoms: C_18  and  O_19 
REMARK   12  A    between atoms: O_19  and  P_20 
REMARK   13  A    between atoms: P_20  and  O_21 
ROOT
HETATM    1  C           1     -21.772  -6.619  -3.169  0.00  0.00     0.278 C 
ENDROOT
BRANCH   1   2
HETATM    2  C           1     -21.272  -7.925  -2.603  0.00  0.00     0.249 C 
HETATM    3  N           1     -20.381  -8.683  -3.314  0.00  0.00    -0.343 N 
HETATM    4  H           1     -20.057  -8.367  -4.220  0.00  0.00     0.163 HD
HETATM    5  O           1     -21.658  -8.303  -1.523  0.00  0.00    -0.271 OA
BRANCH   3   6
HETATM    6  C           1     -19.901  -9.939  -2.771  0.00  0.00     0.210 C 
BRANCH   6   7
HETATM    7  C           1     -18.391  -9.942  -2.770  0.00  0.00     0.198 C 
HETATM    8  O           1     -17.764  -9.203  -3.559  0.00  0.00    -0.646 OA
HETATM    9  O           1     -17.768 -10.683  -1.979  0.00  0.00    -0.646 OA
ENDBRANCH   6   7
BRANCH   6  10
HETATM   10  C           1     -20.409 -11.090  -3.629  0.00  0.00     0.217 C 
BRANCH  10  11
HETATM   11  O           1     -19.376 -11.546  -4.459  0.00  0.00    -0.287 OA
BRANCH  11  12
HETATM   12  P           1     -19.682 -11.526  -6.045  0.00  0.00     0.406 P 
HETATM   13  O           1     -18.628 -10.754  -6.741  0.00  0.00    -0.624 OA
HETATM   14  O           1     -20.997 -10.893  -6.285  0.00  0.00    -0.624 OA
BRANCH  12  15
HETATM   15  O           1     -19.700 -13.040  -6.608  0.00  0.00    -0.300 OA
HETATM   16  H           1     -18.795 -13.302  -6.631  0.00  0.00     0.223 HD
ENDBRANCH  12  15
ENDBRANCH  11  12
ENDBRANCH  10  11
ENDBRANCH   6  10
ENDBRANCH   3   6
ENDBRANCH   1   2
BRANCH   1  17
HETATM   17  C           1     -20.602  -5.836  -3.752  0.00  0.00     0.081 C 
BRANCH  17  18
HETATM   18  C           1     -20.860  -5.556  -5.199  0.00  0.00    -0.056 A 
HETATM   19  C           1     -20.399  -4.372  -5.774  0.00  0.00     0.010 A 
HETATM   20  C           1     -20.639  -4.113  -7.123  0.00  0.00     0.038 A 
HETATM   21  C           1     -21.340  -5.037  -7.898  0.00  0.00     0.081 A 
HETATM   22  C           1     -21.800  -6.222  -7.324  0.00  0.00     0.038 A 
HETATM   23  C           1     -21.560  -6.482  -5.974  0.00  0.00     0.010 A 
BRANCH  21  24
HETATM   24  O           1     -21.573  -4.785  -9.208  0.00  0.00    -0.247 OA
BRANCH  24  25
HETATM   25  P           1     -23.028  -4.223  -9.626  0.00  0.00     0.411 P 
HETATM   26  O           1     -22.867  -3.067 -10.535  0.00  0.00    -0.624 OA
HETATM   27  O           1     -23.789  -5.290 -10.314  0.00  0.00    -0.624 OA
BRANCH  25  28
HETATM   28  O           1     -23.828  -3.759  -8.302  0.00  0.00    -0.300 OA
HETATM   29  H           1     -23.682  -2.831  -8.242  0.00  0.00     0.223 HD
ENDBRANCH  25  28
ENDBRANCH  24  25
ENDBRANCH  21  24
ENDBRANCH  17  18
ENDBRANCH   1  17
BRANCH   1  30
HETATM   30  N           1     -22.416  -5.816  -2.079  0.00  0.00    -0.066 N 
HETATM   31  H           1     -22.995  -5.055  -2.501  0.00  0.00     0.275 HD
HETATM   32  H           1     -23.027  -6.438  -1.503  0.00  0.00     0.275 HD
HETATM   33  H           1     -21.677  -5.395  -1.472  0.00  0.00     0.275 HD
ENDBRANCH   1  30
TORSDOF 13
ENDMDL
