MODEL 1
REMARK VINA RESULT:      -5.7      0.000      0.000
REMARK  7 active torsions:
REMARK  status: ('A' for Active; 'I' for Inactive)
REMARK    1  A    between atoms: C_1  and  C_15 
REMARK    2  A    between atoms: C_1  and  C_8 
REMARK    3  A    between atoms: C_1  and  N_18 
REMARK    4  A    between atoms: C_2  and  C_9 
REMARK    5  A    between atoms: C_2  and  C_3 
REMARK    6  A    between atoms: C_2  and  N_5 
REMARK       I    between atoms: C_9  and  N_18 
REMARK    7  A    between atoms: C_15  and  S_17 
ROOT
HETATM    1  C           1     -34.434  -2.282 -12.014  0.00  0.00     0.249 C 
HETATM    2  H           1     -35.674  -1.849 -13.614  0.00  0.00     0.163 HD
HETATM    3  O           1     -33.848  -1.822 -11.063  0.00  0.00    -0.271 OA
HETATM    4  N           1     -35.183  -1.464 -12.818  0.00  0.00    -0.344 N 
ENDROOT
BRANCH   1   5
HETATM    5  C           1     -34.339  -3.757 -12.318  0.00  0.00     0.278 C 
BRANCH   5   6
HETATM    6  C           1     -33.337  -4.407 -11.373  0.00  0.00     0.017 C 
HETATM    7  C           1     -33.917  -5.706 -10.832  0.00  0.00     0.012 C 
HETATM    8  C           1     -32.047  -4.701 -12.126  0.00  0.00     0.012 C 
ENDBRANCH   5   6
BRANCH   5   9
HETATM    9  N           1     -33.884  -3.947 -13.735  0.00  0.00    -0.066 N 
HETATM   10  H           1     -34.596  -4.506 -14.257  0.00  0.00     0.275 HD
HETATM   11  H           1     -33.772  -3.014 -14.192  0.00  0.00     0.275 HD
HETATM   12  H           1     -32.969  -4.452 -13.742  0.00  0.00     0.275 HD
ENDBRANCH   5   9
ENDBRANCH   1   5
BRANCH   4  13
HETATM   13  C           1     -35.274  -0.047 -12.525  0.00  0.00     0.194 C 
BRANCH  13  14
HETATM   14  C           1     -35.397   0.733 -13.828  0.00  0.00     0.106 C 
BRANCH  14  15
HETATM   15  S           1     -35.711  -0.418 -15.196  0.00  0.00    -0.180 SA
HETATM   16  H           1     -34.920   0.205 -16.087  0.00  0.00     0.101 HD
ENDBRANCH  14  15
ENDBRANCH  13  14
BRANCH  13  17
HETATM   17  C           1     -36.487   0.213 -11.667  0.00  0.00     0.197 C 
HETATM   18  O           1     -36.349   0.502 -10.459  0.00  0.00    -0.646 OA
HETATM   19  O           1     -37.632   0.138 -12.164  0.00  0.00    -0.646 OA
ENDBRANCH  13  17
ENDBRANCH   4  13
TORSDOF 7
ENDMDL
MODEL 2
REMARK VINA RESULT:      -5.5      2.379      2.738
REMARK  7 active torsions:
REMARK  status: ('A' for Active; 'I' for Inactive)
REMARK    1  A    between atoms: C_1  and  C_15 
REMARK    2  A    between atoms: C_1  and  C_8 
REMARK    3  A    between atoms: C_1  and  N_18 
REMARK    4  A    between atoms: C_2  and  C_9 
REMARK    5  A    between atoms: C_2  and  C_3 
REMARK    6  A    between atoms: C_2  and  N_5 
REMARK       I    between atoms: C_9  and  N_18 
REMARK    7  A    between atoms: C_15  and  S_17 
ROOT
HETATM    1  C           1     -34.365  -2.405 -12.427  0.00  0.00     0.249 C 
HETATM    2  H           1     -35.010  -0.678 -11.487  0.00  0.00     0.163 HD
HETATM    3  O           1     -34.446  -3.077 -13.428  0.00  0.00    -0.271 OA
HETATM    4  N           1     -35.078  -1.241 -12.325  0.00  0.00    -0.344 N 
ENDROOT
BRANCH   1   5
HETATM    5  C           1     -33.478  -2.849 -11.291  0.00  0.00     0.278 C 
BRANCH   5   6
HETATM    6  C           1     -34.078  -4.083 -10.631  0.00  0.00     0.017 C 
HETATM    7  C           1     -35.586  -4.088 -10.837  0.00  0.00     0.012 C 
HETATM    8  C           1     -33.476  -5.335 -11.255  0.00  0.00     0.012 C 
ENDBRANCH   5   6
BRANCH   5   9
HETATM    9  N           1     -33.369  -1.746 -10.281  0.00  0.00    -0.066 N 
HETATM   10  H           1     -33.021  -0.878 -10.748  0.00  0.00     0.275 HD
HETATM   11  H           1     -34.310  -1.562  -9.864  0.00  0.00     0.275 HD
HETATM   12  H           1     -32.702  -2.027  -9.527  0.00  0.00     0.275 HD
ENDBRANCH   5   9
ENDBRANCH   1   5
BRANCH   4  13
HETATM   13  C           1     -35.931  -0.814 -13.418  0.00  0.00     0.194 C 
BRANCH  13  14
HETATM   14  C           1     -37.178  -0.143 -12.856  0.00  0.00     0.106 C 
BRANCH  14  15
HETATM   15  S           1     -37.146  -0.225 -11.043  0.00  0.00    -0.180 SA
HETATM   16  H           1     -38.301   0.437 -10.853  0.00  0.00     0.101 HD
ENDBRANCH  14  15
ENDBRANCH  13  14
BRANCH  13  17
HETATM   17  C           1     -35.181   0.163 -14.288  0.00  0.00     0.197 C 
HETATM   18  O           1     -34.874   1.290 -13.843  0.00  0.00    -0.646 OA
HETATM   19  O           1     -34.866  -0.154 -15.456  0.00  0.00    -0.646 OA
ENDBRANCH  13  17
ENDBRANCH   4  13
TORSDOF 7
ENDMDL
MODEL 3
REMARK VINA RESULT:      -5.4      2.653      3.462
REMARK  7 active torsions:
REMARK  status: ('A' for Active; 'I' for Inactive)
REMARK    1  A    between atoms: C_1  and  C_15 
REMARK    2  A    between atoms: C_1  and  C_8 
REMARK    3  A    between atoms: C_1  and  N_18 
REMARK    4  A    between atoms: C_2  and  C_9 
REMARK    5  A    between atoms: C_2  and  C_3 
REMARK    6  A    between atoms: C_2  and  N_5 
REMARK       I    between atoms: C_9  and  N_18 
REMARK    7  A    between atoms: C_15  and  S_17 
ROOT
HETATM    1  C           1     -35.283  -1.570 -12.825  0.00  0.00     0.249 C 
HETATM    2  H           1     -33.968  -1.181 -14.377  0.00  0.00     0.163 HD
HETATM    3  O           1     -36.434  -1.506 -12.463  0.00  0.00    -0.271 OA
HETATM    4  N           1     -34.932  -1.128 -14.073  0.00  0.00    -0.344 N 
ENDROOT
BRANCH   1   5
HETATM    5  C           1     -34.232  -2.134 -11.901  0.00  0.00     0.278 C 
BRANCH   5   6
HETATM    6  C           1     -34.201  -3.650 -12.032  0.00  0.00     0.017 C 
HETATM    7  C           1     -32.770  -4.145 -11.884  0.00  0.00     0.012 C 
HETATM    8  C           1     -35.067  -4.271 -10.944  0.00  0.00     0.012 C 
ENDBRANCH   5   6
BRANCH   5   9
HETATM    9  N           1     -34.560  -1.761 -10.486  0.00  0.00    -0.066 N 
HETATM   10  H           1     -35.595  -1.663 -10.382  0.00  0.00     0.275 HD
HETATM   11  H           1     -34.215  -2.508  -9.841  0.00  0.00     0.275 HD
HETATM   12  H           1     -34.098  -0.854 -10.248  0.00  0.00     0.275 HD
ENDBRANCH   5   9
ENDBRANCH   1   5
BRANCH   4  13
HETATM   13  C           1     -35.943  -0.586 -14.961  0.00  0.00     0.194 C 
BRANCH  13  14
HETATM   14  C           1     -35.828   0.933 -14.993  0.00  0.00     0.106 C 
BRANCH  14  15
HETATM   15  S           1     -34.578   1.472 -13.792  0.00  0.00    -0.180 SA
HETATM   16  H           1     -34.980   0.660 -12.798  0.00  0.00     0.101 HD
ENDBRANCH  14  15
ENDBRANCH  13  14
BRANCH  13  17
HETATM   17  C           1     -35.740  -1.136 -16.350  0.00  0.00     0.197 C 
HETATM   18  O           1     -36.581  -0.903 -17.245  0.00  0.00    -0.646 OA
HETATM   19  O           1     -34.728  -1.825 -16.608  0.00  0.00    -0.646 OA
ENDBRANCH  13  17
ENDBRANCH   4  13
TORSDOF 7
ENDMDL
MODEL 4
REMARK VINA RESULT:      -5.3     11.755     13.601
REMARK  7 active torsions:
REMARK  status: ('A' for Active; 'I' for Inactive)
REMARK    1  A    between atoms: C_1  and  C_15 
REMARK    2  A    between atoms: C_1  and  C_8 
REMARK    3  A    between atoms: C_1  and  N_18 
REMARK    4  A    between atoms: C_2  and  C_9 
REMARK    5  A    between atoms: C_2  and  C_3 
REMARK    6  A    between atoms: C_2  and  N_5 
REMARK       I    between atoms: C_9  and  N_18 
REMARK    7  A    between atoms: C_15  and  S_17 
ROOT
HETATM    1  C           1     -22.084  -4.179  -7.535  0.00  0.00     0.249 C 
HETATM    2  H           1     -23.173  -5.496  -8.703  0.00  0.00     0.163 HD
HETATM    3  O           1     -21.571  -3.086  -7.491  0.00  0.00    -0.271 OA
HETATM    4  N           1     -22.743  -4.580  -8.666  0.00  0.00    -0.344 N 
ENDROOT
BRANCH   1   5
HETATM    5  C           1     -21.995  -5.102  -6.345  0.00  0.00     0.278 C 
BRANCH   5   6
HETATM    6  C           1     -21.188  -6.338  -6.719  0.00  0.00     0.017 C 
HETATM    7  C           1     -19.735  -5.946  -6.951  0.00  0.00     0.012 C 
HETATM    8  C           1     -21.264  -7.355  -5.589  0.00  0.00     0.012 C 
ENDBRANCH   5   6
BRANCH   5   9
HETATM    9  N           1     -23.375  -5.515  -5.928  0.00  0.00    -0.066 N 
HETATM   10  H           1     -23.319  -6.378  -5.342  0.00  0.00     0.275 HD
HETATM   11  H           1     -23.815  -4.746  -5.373  0.00  0.00     0.275 HD
HETATM   12  H           1     -23.953  -5.706  -6.778  0.00  0.00     0.275 HD
ENDBRANCH   5   9
ENDBRANCH   1   5
BRANCH   4  13
HETATM   13  C           1     -22.828  -3.692  -9.809  0.00  0.00     0.194 C 
BRANCH  13  14
HETATM   14  C           1     -22.155  -4.345 -11.009  0.00  0.00     0.106 C 
BRANCH  14  15
HETATM   15  S           1     -20.354  -4.171 -10.863  0.00  0.00    -0.180 SA
HETATM   16  H           1     -20.378  -2.966 -10.268  0.00  0.00     0.101 HD
ENDBRANCH  14  15
ENDBRANCH  13  14
BRANCH  13  17
HETATM   17  C           1     -24.277  -3.422 -10.130  0.00  0.00     0.197 C 
HETATM   18  O           1     -24.752  -3.781 -11.229  0.00  0.00    -0.646 OA
HETATM   19  O           1     -25.004  -2.839  -9.295  0.00  0.00    -0.646 OA
ENDBRANCH  13  17
ENDBRANCH   4  13
TORSDOF 7
ENDMDL
MODEL 5
REMARK VINA RESULT:      -5.1     10.387     12.490
REMARK  7 active torsions:
REMARK  status: ('A' for Active; 'I' for Inactive)
REMARK    1  A    between atoms: C_1  and  C_15 
REMARK    2  A    between atoms: C_1  and  C_8 
REMARK    3  A    between atoms: C_1  and  N_18 
REMARK    4  A    between atoms: C_2  and  C_9 
REMARK    5  A    between atoms: C_2  and  C_3 
REMARK    6  A    between atoms: C_2  and  N_5 
REMARK       I    between atoms: C_9  and  N_18 
REMARK    7  A    between atoms: C_15  and  S_17 
ROOT
HETATM    1  C           1     -25.126  -6.958 -18.871  0.00  0.00     0.249 C 
HETATM    2  H           1     -27.180  -7.054 -18.634  0.00  0.00     0.163 HD
HETATM    3  O           1     -24.091  -6.558 -18.391  0.00  0.00    -0.271 OA
HETATM    4  N           1     -26.314  -6.719 -18.232  0.00  0.00    -0.344 N 
ENDROOT
BRANCH   1   5
HETATM    5  C           1     -25.108  -7.717 -20.174  0.00  0.00     0.278 C 
BRANCH   5   6
HETATM    6  C           1     -24.395  -6.890 -21.235  0.00  0.00     0.017 C 
HETATM    7  C           1     -24.085  -7.766 -22.440  0.00  0.00     0.012 C 
HETATM    8  C           1     -25.291  -5.736 -21.664  0.00  0.00     0.012 C 
ENDBRANCH   5   6
BRANCH   5   9
HETATM    9  N           1     -26.517  -7.987 -20.614  0.00  0.00    -0.066 N 
HETATM   10  H           1     -26.955  -7.098 -20.944  0.00  0.00     0.275 HD
HETATM   11  H           1     -26.510  -8.681 -21.395  0.00  0.00     0.275 HD
HETATM   12  H           1     -27.065  -8.370 -19.811  0.00  0.00     0.275 HD
ENDBRANCH   5   9
ENDBRANCH   1   5
BRANCH   4  13
HETATM   13  C           1     -26.329  -5.989 -16.980  0.00  0.00     0.194 C 
BRANCH  13  14
HETATM   14  C           1     -27.587  -5.132 -16.908  0.00  0.00     0.106 C 
BRANCH  14  15
HETATM   15  S           1     -28.649  -5.493 -18.335  0.00  0.00    -0.180 SA
HETATM   16  H           1     -28.342  -6.800 -18.411  0.00  0.00     0.101 HD
ENDBRANCH  14  15
ENDBRANCH  13  14
BRANCH  13  17
HETATM   17  C           1     -26.318  -6.963 -15.829  0.00  0.00     0.197 C 
HETATM   18  O           1     -27.394  -7.405 -15.371  0.00  0.00    -0.646 OA
HETATM   19  O           1     -25.231  -7.331 -15.332  0.00  0.00    -0.646 OA
ENDBRANCH  13  17
ENDBRANCH   4  13
TORSDOF 7
ENDMDL
MODEL 6
REMARK VINA RESULT:      -5.1      9.572     11.426
REMARK  7 active torsions:
REMARK  status: ('A' for Active; 'I' for Inactive)
REMARK    1  A    between atoms: C_1  and  C_15 
REMARK    2  A    between atoms: C_1  and  C_8 
REMARK    3  A    between atoms: C_1  and  N_18 
REMARK    4  A    between atoms: C_2  and  C_9 
REMARK    5  A    between atoms: C_2  and  C_3 
REMARK    6  A    between atoms: C_2  and  N_5 
REMARK       I    between atoms: C_9  and  N_18 
REMARK    7  A    between atoms: C_15  and  S_17 
ROOT
HETATM    1  C           1     -26.279  -6.327 -18.154  0.00  0.00     0.249 C 
HETATM    2  H           1     -27.575  -6.933 -19.650  0.00  0.00     0.163 HD
HETATM    3  O           1     -26.199  -5.875 -17.036  0.00  0.00    -0.271 OA
HETATM    4  N           1     -27.508  -6.555 -18.714  0.00  0.00    -0.344 N 
ENDROOT
BRANCH   1   5
HETATM    5  C           1     -25.025  -6.638 -18.933  0.00  0.00     0.278 C 
BRANCH   5   6
HETATM    6  C           1     -25.400  -7.161 -20.313  0.00  0.00     0.017 C 
HETATM    7  C           1     -25.493  -5.997 -21.290  0.00  0.00     0.012 C 
HETATM    8  C           1     -24.337  -8.141 -20.790  0.00  0.00     0.012 C 
ENDBRANCH   5   6
BRANCH   5   9
HETATM    9  N           1     -24.229  -7.679 -18.204  0.00  0.00    -0.066 N 
HETATM   10  H           1     -24.845  -8.171 -17.517  0.00  0.00     0.275 HD
HETATM   11  H           1     -23.851  -8.371 -18.889  0.00  0.00     0.275 HD
HETATM   12  H           1     -23.438  -7.222 -17.697  0.00  0.00     0.275 HD
ENDBRANCH   5   9
ENDBRANCH   1   5
BRANCH   4  13
HETATM   13  C           1     -28.713  -6.256 -17.964  0.00  0.00     0.194 C 
BRANCH  13  14
HETATM   14  C           1     -29.322  -4.958 -18.481  0.00  0.00     0.106 C 
BRANCH  14  15
HETATM   15  S           1     -28.988  -3.620 -17.300  0.00  0.00    -0.180 SA
HETATM   16  H           1     -28.751  -2.674 -18.225  0.00  0.00     0.101 HD
ENDBRANCH  14  15
ENDBRANCH  13  14
BRANCH  13  17
HETATM   17  C           1     -29.703  -7.380 -18.135  0.00  0.00     0.197 C 
HETATM   18  O           1     -30.734  -7.419 -17.429  0.00  0.00    -0.646 OA
HETATM   19  O           1     -29.494  -8.274 -18.985  0.00  0.00    -0.646 OA
ENDBRANCH  13  17
ENDBRANCH   4  13
TORSDOF 7
ENDMDL
MODEL 7
REMARK VINA RESULT:      -5.0      2.506      5.048
REMARK  7 active torsions:
REMARK  status: ('A' for Active; 'I' for Inactive)
REMARK    1  A    between atoms: C_1  and  C_15 
REMARK    2  A    between atoms: C_1  and  C_8 
REMARK    3  A    between atoms: C_1  and  N_18 
REMARK    4  A    between atoms: C_2  and  C_9 
REMARK    5  A    between atoms: C_2  and  C_3 
REMARK    6  A    between atoms: C_2  and  N_5 
REMARK       I    between atoms: C_9  and  N_18 
REMARK    7  A    between atoms: C_15  and  S_17 
ROOT
HETATM    1  C           1     -36.023  -0.886 -13.324  0.00  0.00     0.249 C 
HETATM    2  H           1     -34.056  -1.418 -13.687  0.00  0.00     0.163 HD
HETATM    3  O           1     -36.988  -1.080 -12.624  0.00  0.00    -0.271 OA
HETATM    4  N           1     -34.865  -1.581 -13.101  0.00  0.00    -0.344 N 
ENDROOT
BRANCH   1   5
HETATM    5  C           1     -36.094   0.123 -14.444  0.00  0.00     0.278 C 
BRANCH   5   6
HETATM    6  C           1     -37.052  -0.377 -15.517  0.00  0.00     0.017 C 
HETATM    7  C           1     -38.037   0.727 -15.875  0.00  0.00     0.012 C 
HETATM    8  C           1     -36.261  -0.773 -16.757  0.00  0.00     0.012 C 
ENDBRANCH   5   6
BRANCH   5   9
HETATM    9  N           1     -34.729   0.307 -15.039  0.00  0.00    -0.066 N 
HETATM   10  H           1     -34.773   1.026 -15.796  0.00  0.00     0.275 HD
HETATM   11  H           1     -34.067   0.624 -14.296  0.00  0.00     0.275 HD
HETATM   12  H           1     -34.398  -0.601 -15.437  0.00  0.00     0.275 HD
ENDBRANCH   5   9
ENDBRANCH   1   5
BRANCH   4  13
HETATM   13  C           1     -34.797  -2.550 -12.024  0.00  0.00     0.194 C 
BRANCH  13  14
HETATM   14  C           1     -33.845  -3.674 -12.413  0.00  0.00     0.106 C 
BRANCH  14  15
HETATM   15  S           1     -34.256  -5.170 -11.470  0.00  0.00    -0.180 SA
HETATM   16  H           1     -35.096  -4.567 -10.611  0.00  0.00     0.101 HD
ENDBRANCH  14  15
ENDBRANCH  13  14
BRANCH  13  17
HETATM   17  C           1     -34.296  -1.876 -10.772  0.00  0.00     0.197 C 
HETATM   18  O           1     -33.068  -1.810 -10.545  0.00  0.00    -0.646 OA
HETATM   19  O           1     -35.108  -1.382  -9.960  0.00  0.00    -0.646 OA
ENDBRANCH  13  17
ENDBRANCH   4  13
TORSDOF 7
ENDMDL
MODEL 8
REMARK VINA RESULT:      -4.9     10.373     12.462
REMARK  7 active torsions:
REMARK  status: ('A' for Active; 'I' for Inactive)
REMARK    1  A    between atoms: C_1  and  C_15 
REMARK    2  A    between atoms: C_1  and  C_8 
REMARK    3  A    between atoms: C_1  and  N_18 
REMARK    4  A    between atoms: C_2  and  C_9 
REMARK    5  A    between atoms: C_2  and  C_3 
REMARK    6  A    between atoms: C_2  and  N_5 
REMARK       I    between atoms: C_9  and  N_18 
REMARK    7  A    between atoms: C_15  and  S_17 
ROOT
HETATM    1  C           1     -27.619  -6.237 -19.243  0.00  0.00     0.249 C 
HETATM    2  H           1     -26.379  -7.655 -18.384  0.00  0.00     0.163 HD
HETATM    3  O           1     -27.750  -5.461 -20.160  0.00  0.00    -0.271 OA
HETATM    4  N           1     -26.489  -7.004 -19.152  0.00  0.00    -0.344 N 
ENDROOT
BRANCH   1   5
HETATM    5  C           1     -28.700  -6.358 -18.198  0.00  0.00     0.278 C 
BRANCH   5   6
HETATM    6  C           1     -29.253  -4.976 -17.877  0.00  0.00     0.017 C 
HETATM    7  C           1     -30.609  -5.116 -17.198  0.00  0.00     0.012 C 
HETATM    8  C           1     -28.292  -4.249 -16.946  0.00  0.00     0.012 C 
ENDBRANCH   5   6
BRANCH   5   9
HETATM    9  N           1     -28.126  -6.968 -16.954  0.00  0.00    -0.066 N 
HETATM   10  H           1     -28.859  -7.538 -16.475  0.00  0.00     0.275 HD
HETATM   11  H           1     -27.320  -7.582 -17.208  0.00  0.00     0.275 HD
HETATM   12  H           1     -27.800  -6.210 -16.313  0.00  0.00     0.275 HD
ENDBRANCH   5   9
ENDBRANCH   1   5
BRANCH   4  13
HETATM   13  C           1     -25.450  -6.887 -20.157  0.00  0.00     0.194 C 
BRANCH  13  14
HETATM   14  C           1     -24.086  -7.048 -19.498  0.00  0.00     0.106 C 
BRANCH  14  15
HETATM   15  S           1     -24.293  -7.178 -17.699  0.00  0.00    -0.180 SA
HETATM   16  H           1     -23.024  -6.861 -17.389  0.00  0.00     0.101 HD
ENDBRANCH  14  15
ENDBRANCH  13  14
BRANCH  13  17
HETATM   17  C           1     -25.635  -7.962 -21.199  0.00  0.00     0.197 C 
HETATM   18  O           1     -26.713  -8.591 -21.265  0.00  0.00    -0.646 OA
HETATM   19  O           1     -24.710  -8.223 -21.999  0.00  0.00    -0.646 OA
ENDBRANCH  13  17
ENDBRANCH   4  13
TORSDOF 7
ENDMDL
MODEL 9
REMARK VINA RESULT:      -4.7      9.658     11.403
REMARK  7 active torsions:
REMARK  status: ('A' for Active; 'I' for Inactive)
REMARK    1  A    between atoms: C_1  and  C_15 
REMARK    2  A    between atoms: C_1  and  C_8 
REMARK    3  A    between atoms: C_1  and  N_18 
REMARK    4  A    between atoms: C_2  and  C_9 
REMARK    5  A    between atoms: C_2  and  C_3 
REMARK    6  A    between atoms: C_2  and  N_5 
REMARK       I    between atoms: C_9  and  N_18 
REMARK    7  A    between atoms: C_15  and  S_17 
ROOT
HETATM    1  C           1     -27.185  -6.406 -19.789  0.00  0.00     0.249 C 
HETATM    2  H           1     -27.710  -7.064 -17.898  0.00  0.00     0.163 HD
HETATM    3  O           1     -27.337  -5.535 -20.612  0.00  0.00    -0.271 OA
HETATM    4  N           1     -27.837  -6.334 -18.588  0.00  0.00    -0.344 N 
ENDROOT
BRANCH   1   5
HETATM    5  C           1     -26.277  -7.574 -20.087  0.00  0.00     0.278 C 
BRANCH   5   6
HETATM    6  C           1     -24.920  -7.059 -20.548  0.00  0.00     0.017 C 
HETATM    7  C           1     -23.923  -7.156 -19.403  0.00  0.00     0.012 C 
HETATM    8  C           1     -24.431  -7.899 -21.720  0.00  0.00     0.012 C 
ENDBRANCH   5   6
BRANCH   5   9
HETATM    9  N           1     -26.885  -8.417 -21.168  0.00  0.00    -0.066 N 
HETATM   10  H           1     -26.441  -8.182 -22.084  0.00  0.00     0.275 HD
HETATM   11  H           1     -26.725  -9.427 -20.953  0.00  0.00     0.275 HD
HETATM   12  H           1     -27.912  -8.229 -21.220  0.00  0.00     0.275 HD
ENDBRANCH   5   9
ENDBRANCH   1   5
BRANCH   4  13
HETATM   13  C           1     -28.709  -5.211 -18.303  0.00  0.00     0.194 C 
BRANCH  13  14
HETATM   14  C           1     -30.080  -5.727 -17.883  0.00  0.00     0.106 C 
BRANCH  14  15
HETATM   15  S           1     -30.013  -7.530 -17.679  0.00  0.00    -0.180 SA
HETATM   16  H           1     -28.852  -7.702 -18.334  0.00  0.00     0.101 HD
ENDBRANCH  14  15
ENDBRANCH  13  14
BRANCH  13  17
HETATM   17  C           1     -28.119  -4.387 -17.187  0.00  0.00     0.197 C 
HETATM   18  O           1     -28.491  -3.205 -17.017  0.00  0.00    -0.646 OA
HETATM   19  O           1     -27.256  -4.884 -16.431  0.00  0.00    -0.646 OA
ENDBRANCH  13  17
ENDBRANCH   4  13
TORSDOF 7
ENDMDL
