MODEL 1
REMARK VINA RESULT:      -7.6      0.000      0.000
REMARK  11 active torsions:
REMARK  status: ('A' for Active; 'I' for Inactive)
REMARK       I    between atoms: C_1  and  N_15 
REMARK    1  A    between atoms: C_1  and  C_13 
REMARK    2  A    between atoms: C_3  and  C_4 
REMARK    3  A    between atoms: C_4  and  C_5 
REMARK    4  A    between atoms: C_5  and  C_7 
REMARK    5  A    between atoms: C_5  and  N_15 
REMARK    6  A    between atoms: C_13  and  C_23 
REMARK    7  A    between atoms: C_13  and  N_30 
REMARK    8  A    between atoms: O_14  and  P_20 
REMARK    9  A    between atoms: C_18  and  O_19 
REMARK   10  A    between atoms: O_19  and  P_20 
REMARK   11  A    between atoms: C_23  and  C_25 
ROOT
HETATM    1  C           1     -20.955  -6.148  -5.008  0.00  0.00     0.189 C 
ENDROOT
BRANCH   1   2
HETATM    2  C           1     -20.133  -5.025  -5.627  0.00  0.00     0.074 C 
BRANCH   2   3
HETATM    3  C           1     -20.720  -4.648  -6.951  0.00  0.00    -0.056 A 
HETATM    4  C           1     -19.951  -4.751  -8.110  0.00  0.00     0.010 A 
HETATM    5  C           1     -20.498  -4.399  -9.343  0.00  0.00     0.038 A 
HETATM    6  C           1     -21.814  -3.943  -9.419  0.00  0.00     0.081 A 
HETATM    7  C           1     -22.584  -3.840  -8.260  0.00  0.00     0.038 A 
HETATM    8  C           1     -22.036  -4.192  -7.026  0.00  0.00     0.010 A 
BRANCH   6   9
HETATM    9  O           1     -22.346  -3.602 -10.617  0.00  0.00    -0.247 OA
BRANCH   9  10
HETATM   10  P           1     -23.719  -4.321 -11.071  0.00  0.00     0.411 P 
HETATM   11  O           1     -24.849  -3.380 -10.903  0.00  0.00    -0.624 OA
HETATM   12  O           1     -23.948  -5.521 -10.236  0.00  0.00    -0.624 OA
BRANCH  10  13
HETATM   13  O           1     -23.610  -4.756 -12.622  0.00  0.00    -0.300 OA
HETATM   14  H           1     -24.398  -4.430 -13.023  0.00  0.00     0.223 HD
ENDBRANCH  10  13
ENDBRANCH   9  10
ENDBRANCH   6   9
ENDBRANCH   2   3
ENDBRANCH   1   2
BRANCH   1  15
HETATM   15  C           1     -20.614  -7.453  -5.683  0.00  0.00     0.197 C 
HETATM   16  O           1     -19.434  -7.694  -6.019  0.00  0.00    -0.646 OA
HETATM   17  O           1     -21.512  -8.294  -5.907  0.00  0.00    -0.646 OA
ENDBRANCH   1  15
BRANCH   1  18
HETATM   18  N           1     -20.655  -6.243  -3.593  0.00  0.00    -0.344 N 
HETATM   19  C           1     -20.789  -7.440  -2.943  0.00  0.00     0.249 C 
HETATM   20  O           1     -19.855  -8.203  -2.883  0.00  0.00    -0.271 OA
HETATM   21  H           1     -20.345  -5.424  -3.086  0.00  0.00     0.163 HD
BRANCH  19  22
HETATM   22  C           1     -22.105  -7.806  -2.301  0.00  0.00     0.284 C 
BRANCH  22  23
HETATM   23  C           1     -22.338  -6.924  -1.081  0.00  0.00     0.155 C 
BRANCH  23  24
HETATM   24  C           1     -22.354  -7.780   0.162  0.00  0.00     0.175 C 
HETATM   25  O           1     -23.443  -8.077   0.702  0.00  0.00    -0.648 OA
HETATM   26  O           1     -21.281  -8.192   0.653  0.00  0.00    -0.648 OA
ENDBRANCH  23  24
ENDBRANCH  22  23
BRANCH  22  27
HETATM   27  N           1     -22.072  -9.245  -1.878  0.00  0.00    -0.066 N 
HETATM   28  H           1     -21.277  -9.730  -2.351  0.00  0.00     0.275 HD
HETATM   29  H           1     -21.947  -9.299  -0.843  0.00  0.00     0.275 HD
HETATM   30  H           1     -22.970  -9.707  -2.147  0.00  0.00     0.275 HD
ENDBRANCH  22  27
ENDBRANCH  19  22
ENDBRANCH   1  18
TORSDOF 11
ENDMDL
MODEL 2
REMARK VINA RESULT:      -7.5      1.220      1.590
REMARK  11 active torsions:
REMARK  status: ('A' for Active; 'I' for Inactive)
REMARK       I    between atoms: C_1  and  N_15 
REMARK    1  A    between atoms: C_1  and  C_13 
REMARK    2  A    between atoms: C_3  and  C_4 
REMARK    3  A    between atoms: C_4  and  C_5 
REMARK    4  A    between atoms: C_5  and  C_7 
REMARK    5  A    between atoms: C_5  and  N_15 
REMARK    6  A    between atoms: C_13  and  C_23 
REMARK    7  A    between atoms: C_13  and  N_30 
REMARK    8  A    between atoms: O_14  and  P_20 
REMARK    9  A    between atoms: C_18  and  O_19 
REMARK   10  A    between atoms: O_19  and  P_20 
REMARK   11  A    between atoms: C_23  and  C_25 
ROOT
HETATM    1  C           1     -21.716  -7.023  -5.098  0.00  0.00     0.189 C 
ENDROOT
BRANCH   1   2
HETATM    2  C           1     -20.837  -5.825  -5.428  0.00  0.00     0.074 C 
BRANCH   2   3
HETATM    3  C           1     -21.250  -5.249  -6.747  0.00  0.00    -0.056 A 
HETATM    4  C           1     -22.484  -4.614  -6.875  0.00  0.00     0.010 A 
HETATM    5  C           1     -22.869  -4.078  -8.103  0.00  0.00     0.038 A 
HETATM    6  C           1     -22.019  -4.179  -9.205  0.00  0.00     0.081 A 
HETATM    7  C           1     -20.784  -4.814  -9.077  0.00  0.00     0.038 A 
HETATM    8  C           1     -20.399  -5.350  -7.847  0.00  0.00     0.010 A 
BRANCH   6   9
HETATM    9  O           1     -22.392  -3.658 -10.398  0.00  0.00    -0.247 OA
BRANCH   9  10
HETATM   10  P           1     -23.673  -4.304 -11.141  0.00  0.00     0.411 P 
HETATM   11  O           1     -24.802  -3.348 -11.100  0.00  0.00    -0.624 OA
HETATM   12  O           1     -24.061  -5.558 -10.457  0.00  0.00    -0.624 OA
BRANCH  10  13
HETATM   13  O           1     -23.297  -4.623 -12.679  0.00  0.00    -0.300 OA
HETATM   14  H           1     -23.491  -5.538 -12.794  0.00  0.00     0.223 HD
ENDBRANCH  10  13
ENDBRANCH   9  10
ENDBRANCH   6   9
ENDBRANCH   2   3
ENDBRANCH   1   2
BRANCH   1  15
HETATM   15  C           1     -20.848  -8.232  -4.848  0.00  0.00     0.197 C 
HETATM   16  O           1     -19.620  -8.091  -4.662  0.00  0.00    -0.646 OA
HETATM   17  O           1     -21.357  -9.373  -4.827  0.00  0.00    -0.646 OA
ENDBRANCH   1  15
BRANCH   1  18
HETATM   18  N           1     -22.499  -6.736  -3.912  0.00  0.00    -0.344 N 
HETATM   19  C           1     -21.877  -6.585  -2.702  0.00  0.00     0.249 C 
HETATM   20  O           1     -21.500  -5.494  -2.348  0.00  0.00    -0.271 OA
HETATM   21  H           1     -23.505  -6.647  -3.979  0.00  0.00     0.163 HD
BRANCH  19  22
HETATM   22  C           1     -21.663  -7.784  -1.810  0.00  0.00     0.284 C 
BRANCH  22  23
HETATM   23  C           1     -22.384  -7.567  -0.485  0.00  0.00     0.155 C 
BRANCH  23  24
HETATM   24  C           1     -21.915  -8.593   0.517  0.00  0.00     0.175 C 
HETATM   25  O           1     -22.159  -9.806   0.331  0.00  0.00    -0.648 OA
HETATM   26  O           1     -21.284  -8.232   1.534  0.00  0.00    -0.648 OA
ENDBRANCH  23  24
ENDBRANCH  22  23
BRANCH  22  27
HETATM   27  N           1     -20.196  -7.962  -1.555  0.00  0.00    -0.066 N 
HETATM   28  H           1     -20.036  -8.862  -1.049  0.00  0.00     0.275 HD
HETATM   29  H           1     -19.685  -7.979  -2.465  0.00  0.00     0.275 HD
HETATM   30  H           1     -19.845  -7.168  -0.972  0.00  0.00     0.275 HD
ENDBRANCH  22  27
ENDBRANCH  19  22
ENDBRANCH   1  18
TORSDOF 11
ENDMDL
MODEL 3
REMARK VINA RESULT:      -7.4      3.350      8.575
REMARK  11 active torsions:
REMARK  status: ('A' for Active; 'I' for Inactive)
REMARK       I    between atoms: C_1  and  N_15 
REMARK    1  A    between atoms: C_1  and  C_13 
REMARK    2  A    between atoms: C_3  and  C_4 
REMARK    3  A    between atoms: C_4  and  C_5 
REMARK    4  A    between atoms: C_5  and  C_7 
REMARK    5  A    between atoms: C_5  and  N_15 
REMARK    6  A    between atoms: C_13  and  C_23 
REMARK    7  A    between atoms: C_13  and  N_30 
REMARK    8  A    between atoms: O_14  and  P_20 
REMARK    9  A    between atoms: C_18  and  O_19 
REMARK   10  A    between atoms: O_19  and  P_20 
REMARK   11  A    between atoms: C_23  and  C_25 
ROOT
HETATM    1  C           1     -20.679  -5.070  -6.131  0.00  0.00     0.189 C 
ENDROOT
BRANCH   1   2
HETATM    2  C           1     -21.535  -6.309  -5.904  0.00  0.00     0.074 C 
BRANCH   2   3
HETATM    3  C           1     -21.327  -6.811  -4.509  0.00  0.00    -0.056 A 
HETATM    4  C           1     -21.961  -6.182  -3.439  0.00  0.00     0.010 A 
HETATM    5  C           1     -21.767  -6.650  -2.140  0.00  0.00     0.038 A 
HETATM    6  C           1     -20.937  -7.747  -1.910  0.00  0.00     0.081 A 
HETATM    7  C           1     -20.302  -8.377  -2.981  0.00  0.00     0.038 A 
HETATM    8  C           1     -20.496  -7.908  -4.280  0.00  0.00     0.010 A 
BRANCH   6   9
HETATM    9  O           1     -20.748  -8.202  -0.648  0.00  0.00    -0.247 OA
BRANCH   9  10
HETATM   10  P           1     -21.904  -9.118   0.010  0.00  0.00     0.411 P 
HETATM   11  O           1     -22.857  -8.258   0.746  0.00  0.00    -0.624 OA
HETATM   12  O           1     -21.293 -10.090   0.943  0.00  0.00    -0.624 OA
BRANCH  10  13
HETATM   13  O           1     -22.690  -9.911  -1.158  0.00  0.00    -0.300 OA
HETATM   14  H           1     -22.603 -10.823  -0.935  0.00  0.00     0.223 HD
ENDBRANCH  10  13
ENDBRANCH   9  10
ENDBRANCH   6   9
ENDBRANCH   2   3
ENDBRANCH   1   2
BRANCH   1  15
HETATM   15  C           1     -19.502  -5.423  -7.006  0.00  0.00     0.197 C 
HETATM   16  O           1     -18.690  -4.537  -7.348  0.00  0.00    -0.646 OA
HETATM   17  O           1     -19.340  -6.602  -7.388  0.00  0.00    -0.646 OA
ENDBRANCH   1  15
BRANCH   1  18
HETATM   18  N           1     -21.475  -4.047  -6.781  0.00  0.00    -0.344 N 
HETATM   19  C           1     -22.601  -4.394  -7.476  0.00  0.00     0.249 C 
HETATM   20  O           1     -23.669  -4.439  -6.914  0.00  0.00    -0.271 OA
HETATM   21  H           1     -21.197  -3.075  -6.720  0.00  0.00     0.163 HD
BRANCH  19  22
HETATM   22  C           1     -22.508  -4.721  -8.946  0.00  0.00     0.284 C 
BRANCH  22  23
HETATM   23  C           1     -21.404  -3.888  -9.584  0.00  0.00     0.155 C 
BRANCH  23  24
HETATM   24  C           1     -21.704  -3.692 -11.050  0.00  0.00     0.175 C 
HETATM   25  O           1     -21.851  -2.538 -11.509  0.00  0.00    -0.648 OA
HETATM   26  O           1     -21.807  -4.682 -11.806  0.00  0.00    -0.648 OA
ENDBRANCH  23  24
ENDBRANCH  22  23
BRANCH  22  27
HETATM   27  N           1     -23.816  -4.409  -9.612  0.00  0.00    -0.066 N 
HETATM   28  H           1     -23.940  -3.373  -9.669  0.00  0.00     0.275 HD
HETATM   29  H           1     -23.821  -4.814 -10.575  0.00  0.00     0.275 HD
HETATM   30  H           1     -24.597  -4.823  -9.055  0.00  0.00     0.275 HD
ENDBRANCH  22  27
ENDBRANCH  19  22
ENDBRANCH   1  18
TORSDOF 11
ENDMDL
MODEL 4
REMARK VINA RESULT:      -6.8      2.137      2.947
REMARK  11 active torsions:
REMARK  status: ('A' for Active; 'I' for Inactive)
REMARK       I    between atoms: C_1  and  N_15 
REMARK    1  A    between atoms: C_1  and  C_13 
REMARK    2  A    between atoms: C_3  and  C_4 
REMARK    3  A    between atoms: C_4  and  C_5 
REMARK    4  A    between atoms: C_5  and  C_7 
REMARK    5  A    between atoms: C_5  and  N_15 
REMARK    6  A    between atoms: C_13  and  C_23 
REMARK    7  A    between atoms: C_13  and  N_30 
REMARK    8  A    between atoms: O_14  and  P_20 
REMARK    9  A    between atoms: C_18  and  O_19 
REMARK   10  A    between atoms: O_19  and  P_20 
REMARK   11  A    between atoms: C_23  and  C_25 
ROOT
HETATM    1  C           1     -20.437  -9.354  -4.777  0.00  0.00     0.189 C 
ENDROOT
BRANCH   1   2
HETATM    2  C           1     -19.484  -8.258  -5.237  0.00  0.00     0.074 C 
BRANCH   2   3
HETATM    3  C           1     -20.272  -7.109  -5.784  0.00  0.00    -0.056 A 
HETATM    4  C           1     -19.690  -6.238  -6.703  0.00  0.00     0.010 A 
HETATM    5  C           1     -20.424  -5.167  -7.212  0.00  0.00     0.038 A 
HETATM    6  C           1     -21.742  -4.968  -6.802  0.00  0.00     0.081 A 
HETATM    7  C           1     -22.326  -5.840  -5.883  0.00  0.00     0.038 A 
HETATM    8  C           1     -21.591  -6.910  -5.374  0.00  0.00     0.010 A 
BRANCH   6   9
HETATM    9  O           1     -22.456  -3.928  -7.297  0.00  0.00    -0.247 OA
BRANCH   9  10
HETATM   10  P           1     -22.964  -4.016  -8.827  0.00  0.00     0.411 P 
HETATM   11  O           1     -23.054  -5.435  -9.238  0.00  0.00    -0.624 OA
HETATM   12  O           1     -22.008  -3.307  -9.707  0.00  0.00    -0.624 OA
BRANCH  10  13
HETATM   13  O           1     -24.421  -3.329  -8.949  0.00  0.00    -0.300 OA
HETATM   14  H           1     -24.683  -3.470  -9.844  0.00  0.00     0.223 HD
ENDBRANCH  10  13
ENDBRANCH   9  10
ENDBRANCH   6   9
ENDBRANCH   2   3
ENDBRANCH   1   2
BRANCH   1  15
HETATM   15  C           1     -20.292 -10.558  -5.675  0.00  0.00     0.197 C 
HETATM   16  O           1     -21.267 -11.318  -5.861  0.00  0.00    -0.646 OA
HETATM   17  O           1     -19.199 -10.794  -6.232  0.00  0.00    -0.646 OA
ENDBRANCH   1  15
BRANCH   1  18
HETATM   18  N           1     -20.119  -9.728  -3.412  0.00  0.00    -0.344 N 
HETATM   19  C           1     -21.097 -10.216  -2.590  0.00  0.00     0.249 C 
HETATM   20  O           1     -21.311 -11.403  -2.545  0.00  0.00    -0.271 OA
HETATM   21  H           1     -19.172  -9.628  -3.068  0.00  0.00     0.163 HD
BRANCH  19  22
HETATM   22  C           1     -21.909  -9.270  -1.740  0.00  0.00     0.284 C 
BRANCH  22  23
HETATM   23  C           1     -21.202  -7.923  -1.660  0.00  0.00     0.155 C 
BRANCH  23  24
HETATM   24  C           1     -22.206  -6.845  -1.334  0.00  0.00     0.175 C 
HETATM   25  O           1     -22.927  -6.949  -0.318  0.00  0.00    -0.648 OA
HETATM   26  O           1     -22.317  -5.848  -2.080  0.00  0.00    -0.648 OA
ENDBRANCH  23  24
ENDBRANCH  22  23
BRANCH  22  27
HETATM   27  N           1     -22.057  -9.838  -0.360  0.00  0.00    -0.066 N 
HETATM   28  H           1     -22.630 -10.711  -0.401  0.00  0.00     0.275 HD
HETATM   29  H           1     -21.113 -10.059   0.028  0.00  0.00     0.275 HD
HETATM   30  H           1     -22.532  -9.139   0.255  0.00  0.00     0.275 HD
ENDBRANCH  22  27
ENDBRANCH  19  22
ENDBRANCH   1  18
TORSDOF 11
ENDMDL
MODEL 5
REMARK VINA RESULT:      -6.7      3.546      8.639
REMARK  11 active torsions:
REMARK  status: ('A' for Active; 'I' for Inactive)
REMARK       I    between atoms: C_1  and  N_15 
REMARK    1  A    between atoms: C_1  and  C_13 
REMARK    2  A    between atoms: C_3  and  C_4 
REMARK    3  A    between atoms: C_4  and  C_5 
REMARK    4  A    between atoms: C_5  and  C_7 
REMARK    5  A    between atoms: C_5  and  N_15 
REMARK    6  A    between atoms: C_13  and  C_23 
REMARK    7  A    between atoms: C_13  and  N_30 
REMARK    8  A    between atoms: O_14  and  P_20 
REMARK    9  A    between atoms: C_18  and  O_19 
REMARK   10  A    between atoms: O_19  and  P_20 
REMARK   11  A    between atoms: C_23  and  C_25 
ROOT
HETATM    1  C           1     -21.147  -6.855  -6.271  0.00  0.00     0.189 C 
ENDROOT
BRANCH   1   2
HETATM    2  C           1     -19.923  -7.557  -5.696  0.00  0.00     0.074 C 
BRANCH   2   3
HETATM    3  C           1     -20.357  -8.545  -4.657  0.00  0.00    -0.056 A 
HETATM    4  C           1     -19.647  -8.658  -3.463  0.00  0.00     0.010 A 
HETATM    5  C           1     -20.051  -9.578  -2.496  0.00  0.00     0.038 A 
HETATM    6  C           1     -21.165 -10.385  -2.723  0.00  0.00     0.081 A 
HETATM    7  C           1     -21.876 -10.272  -3.918  0.00  0.00     0.038 A 
HETATM    8  C           1     -21.471  -9.352  -4.886  0.00  0.00     0.010 A 
BRANCH   6   9
HETATM    9  O           1     -21.558 -11.279  -1.784  0.00  0.00    -0.247 OA
BRANCH   9  10
HETATM   10  P           1     -22.324 -10.719  -0.478  0.00  0.00     0.411 P 
HETATM   11  O           1     -22.821  -9.350  -0.744  0.00  0.00    -0.624 OA
HETATM   12  O           1     -21.390 -10.691   0.670  0.00  0.00    -0.624 OA
BRANCH  10  13
HETATM   13  O           1     -23.573 -11.684  -0.133  0.00  0.00    -0.300 OA
HETATM   14  H           1     -24.263 -11.103   0.139  0.00  0.00     0.223 HD
ENDBRANCH  10  13
ENDBRANCH   9  10
ENDBRANCH   6   9
ENDBRANCH   2   3
ENDBRANCH   1   2
BRANCH   1  15
HETATM   15  C           1     -21.810  -6.034  -5.193  0.00  0.00     0.197 C 
HETATM   16  O           1     -23.056  -5.941  -5.157  0.00  0.00    -0.646 OA
HETATM   17  O           1     -21.114  -5.448  -4.337  0.00  0.00    -0.646 OA
ENDBRANCH   1  15
BRANCH   1  18
HETATM   18  N           1     -20.738  -5.987  -7.358  0.00  0.00    -0.344 N 
HETATM   19  C           1     -21.384  -4.798  -7.564  0.00  0.00     0.249 C 
HETATM   20  O           1     -20.993  -3.795  -7.017  0.00  0.00    -0.271 OA
HETATM   21  H           1     -19.974  -6.259  -7.963  0.00  0.00     0.163 HD
BRANCH  19  22
HETATM   22  C           1     -22.586  -4.741  -8.475  0.00  0.00     0.284 C 
BRANCH  22  23
HETATM   23  C           1     -22.284  -3.832  -9.659  0.00  0.00     0.155 C 
BRANCH  23  24
HETATM   24  C           1     -23.464  -3.823 -10.600  0.00  0.00     0.175 C 
HETATM   25  O           1     -24.411  -3.030 -10.407  0.00  0.00    -0.648 OA
HETATM   26  O           1     -23.495  -4.608 -11.573  0.00  0.00    -0.648 OA
ENDBRANCH  23  24
ENDBRANCH  22  23
BRANCH  22  27
HETATM   27  N           1     -23.762  -4.199  -7.718  0.00  0.00    -0.066 N 
HETATM   28  H           1     -23.512  -3.276  -7.297  0.00  0.00     0.275 HD
HETATM   29  H           1     -24.568  -4.078  -8.370  0.00  0.00     0.275 HD
HETATM   30  H           1     -24.025  -4.867  -6.958  0.00  0.00     0.275 HD
ENDBRANCH  22  27
ENDBRANCH  19  22
ENDBRANCH   1  18
TORSDOF 11
ENDMDL
MODEL 6
REMARK VINA RESULT:      -6.7     11.694     14.342
REMARK  11 active torsions:
REMARK  status: ('A' for Active; 'I' for Inactive)
REMARK       I    between atoms: C_1  and  N_15 
REMARK    1  A    between atoms: C_1  and  C_13 
REMARK    2  A    between atoms: C_3  and  C_4 
REMARK    3  A    between atoms: C_4  and  C_5 
REMARK    4  A    between atoms: C_5  and  C_7 
REMARK    5  A    between atoms: C_5  and  N_15 
REMARK    6  A    between atoms: C_13  and  C_23 
REMARK    7  A    between atoms: C_13  and  N_30 
REMARK    8  A    between atoms: O_14  and  P_20 
REMARK    9  A    between atoms: C_18  and  O_19 
REMARK   10  A    between atoms: O_19  and  P_20 
REMARK   11  A    between atoms: C_23  and  C_25 
ROOT
HETATM    1  C           1     -26.620  -6.993 -19.590  0.00  0.00     0.189 C 
ENDROOT
BRANCH   1   2
HETATM    2  C           1     -27.739  -6.095 -20.102  0.00  0.00     0.074 C 
BRANCH   2   3
HETATM    3  C           1     -28.681  -5.784 -18.981  0.00  0.00    -0.056 A 
HETATM    4  C           1     -29.311  -6.818 -18.291  0.00  0.00     0.010 A 
HETATM    5  C           1     -30.189  -6.528 -17.247  0.00  0.00     0.038 A 
HETATM    6  C           1     -30.437  -5.202 -16.893  0.00  0.00     0.081 A 
HETATM    7  C           1     -29.807  -4.166 -17.583  0.00  0.00     0.038 A 
HETATM    8  C           1     -28.929  -4.457 -18.627  0.00  0.00     0.010 A 
BRANCH   6   9
HETATM    9  O           1     -31.289  -4.920 -15.879  0.00  0.00    -0.247 OA
BRANCH   9  10
HETATM   10  P           1     -32.824  -4.578 -16.249  0.00  0.00     0.411 P 
HETATM   11  O           1     -32.858  -3.556 -17.319  0.00  0.00    -0.624 OA
HETATM   12  O           1     -33.518  -4.060 -15.049  0.00  0.00    -0.624 OA
BRANCH  10  13
HETATM   13  O           1     -33.563  -5.918 -16.764  0.00  0.00    -0.300 OA
HETATM   14  H           1     -34.433  -5.642 -17.000  0.00  0.00     0.223 HD
ENDBRANCH  10  13
ENDBRANCH   9  10
ENDBRANCH   6   9
ENDBRANCH   2   3
ENDBRANCH   1   2
BRANCH   1  15
HETATM   15  C           1     -25.778  -7.461 -20.752  0.00  0.00     0.197 C 
HETATM   16  O           1     -25.928  -8.616 -21.206  0.00  0.00    -0.646 OA
HETATM   17  O           1     -24.932  -6.694 -21.260  0.00  0.00    -0.646 OA
ENDBRANCH   1  15
BRANCH   1  18
HETATM   18  N           1     -25.791  -6.249 -18.662  0.00  0.00    -0.344 N 
HETATM   19  C           1     -24.699  -6.844 -18.090  0.00  0.00     0.249 C 
HETATM   20  O           1     -23.622  -6.780 -18.632  0.00  0.00    -0.271 OA
HETATM   21  H           1     -26.019  -5.289 -18.438  0.00  0.00     0.163 HD
BRANCH  19  22
HETATM   22  C           1     -24.843  -7.582 -16.781  0.00  0.00     0.284 C 
BRANCH  22  23
HETATM   23  C           1     -25.205  -6.595 -15.678  0.00  0.00     0.155 C 
BRANCH  23  24
HETATM   24  C           1     -26.706  -6.465 -15.593  0.00  0.00     0.175 C 
HETATM   25  O           1     -27.249  -5.356 -15.793  0.00  0.00    -0.648 OA
HETATM   26  O           1     -27.407  -7.464 -15.322  0.00  0.00    -0.648 OA
ENDBRANCH  23  24
ENDBRANCH  22  23
BRANCH  22  27
HETATM   27  N           1     -23.546  -8.255 -16.441  0.00  0.00    -0.066 N 
HETATM   28  H           1     -23.334  -8.113 -15.428  0.00  0.00     0.275 HD
HETATM   29  H           1     -23.622  -9.277 -16.642  0.00  0.00     0.275 HD
HETATM   30  H           1     -22.778  -7.843 -17.018  0.00  0.00     0.275 HD
ENDBRANCH  22  27
ENDBRANCH  19  22
ENDBRANCH   1  18
TORSDOF 11
ENDMDL
MODEL 7
REMARK VINA RESULT:      -6.7     12.585     15.242
REMARK  11 active torsions:
REMARK  status: ('A' for Active; 'I' for Inactive)
REMARK       I    between atoms: C_1  and  N_15 
REMARK    1  A    between atoms: C_1  and  C_13 
REMARK    2  A    between atoms: C_3  and  C_4 
REMARK    3  A    between atoms: C_4  and  C_5 
REMARK    4  A    between atoms: C_5  and  C_7 
REMARK    5  A    between atoms: C_5  and  N_15 
REMARK    6  A    between atoms: C_13  and  C_23 
REMARK    7  A    between atoms: C_13  and  N_30 
REMARK    8  A    between atoms: O_14  and  P_20 
REMARK    9  A    between atoms: C_18  and  O_19 
REMARK   10  A    between atoms: O_19  and  P_20 
REMARK   11  A    between atoms: C_23  and  C_25 
ROOT
HETATM    1  C           1     -27.566  -6.081 -17.316  0.00  0.00     0.189 C 
ENDROOT
BRANCH   1   2
HETATM    2  C           1     -28.766  -6.573 -18.115  0.00  0.00     0.074 C 
BRANCH   2   3
HETATM    3  C           1     -29.956  -5.718 -17.807  0.00  0.00    -0.056 A 
HETATM    4  C           1     -29.887  -4.337 -17.984  0.00  0.00     0.010 A 
HETATM    5  C           1     -30.996  -3.541 -17.697  0.00  0.00     0.038 A 
HETATM    6  C           1     -32.173  -4.127 -17.232  0.00  0.00     0.081 A 
HETATM    7  C           1     -32.242  -5.509 -17.055  0.00  0.00     0.038 A 
HETATM    8  C           1     -31.133  -6.305 -17.343  0.00  0.00     0.010 A 
BRANCH   6   9
HETATM    9  O           1     -33.250  -3.354 -16.953  0.00  0.00    -0.247 OA
BRANCH   9  10
HETATM   10  P           1     -34.113  -3.702 -15.633  0.00  0.00     0.411 P 
HETATM   11  O           1     -34.921  -2.524 -15.246  0.00  0.00    -0.624 OA
HETATM   12  O           1     -33.198  -4.058 -14.525  0.00  0.00    -0.624 OA
BRANCH  10  13
HETATM   13  O           1     -35.094  -4.946 -15.944  0.00  0.00    -0.300 OA
HETATM   14  H           1     -34.739  -5.666 -15.450  0.00  0.00     0.223 HD
ENDBRANCH  10  13
ENDBRANCH   9  10
ENDBRANCH   6   9
ENDBRANCH   2   3
ENDBRANCH   1   2
BRANCH   1  15
HETATM   15  C           1     -27.971  -5.870 -15.878  0.00  0.00     0.197 C 
HETATM   16  O           1     -27.926  -4.726 -15.377  0.00  0.00    -0.646 OA
HETATM   17  O           1     -28.352  -6.840 -15.187  0.00  0.00    -0.646 OA
ENDBRANCH   1  15
BRANCH   1  18
HETATM   18  N           1     -26.506  -7.068 -17.380  0.00  0.00    -0.344 N 
HETATM   19  C           1     -25.222  -6.677 -17.644  0.00  0.00     0.249 C 
HETATM   20  O           1     -24.481  -6.384 -16.738  0.00  0.00    -0.271 OA
HETATM   21  H           1     -26.716  -8.047 -17.228  0.00  0.00     0.163 HD
BRANCH  19  22
HETATM   22  C           1     -24.732  -6.614 -19.071  0.00  0.00     0.284 C 
BRANCH  22  23
HETATM   23  C           1     -25.918  -6.726 -20.021  0.00  0.00     0.155 C 
BRANCH  23  24
HETATM   24  C           1     -25.543  -7.601 -21.192  0.00  0.00     0.175 C 
HETATM   25  O           1     -24.610  -7.260 -21.953  0.00  0.00    -0.648 OA
HETATM   26  O           1     -26.164  -8.665 -21.403  0.00  0.00    -0.648 OA
ENDBRANCH  23  24
ENDBRANCH  22  23
BRANCH  22  27
HETATM   27  N           1     -23.781  -7.746 -19.324  0.00  0.00    -0.066 N 
HETATM   28  H           1     -23.484  -7.735 -20.326  0.00  0.00     0.275 HD
HETATM   29  H           1     -22.943  -7.638 -18.711  0.00  0.00     0.275 HD
HETATM   30  H           1     -24.255  -8.652 -19.112  0.00  0.00     0.275 HD
ENDBRANCH  22  27
ENDBRANCH  19  22
ENDBRANCH   1  18
TORSDOF 11
ENDMDL
MODEL 8
REMARK VINA RESULT:      -6.6      3.789      7.573
REMARK  11 active torsions:
REMARK  status: ('A' for Active; 'I' for Inactive)
REMARK       I    between atoms: C_1  and  N_15 
REMARK    1  A    between atoms: C_1  and  C_13 
REMARK    2  A    between atoms: C_3  and  C_4 
REMARK    3  A    between atoms: C_4  and  C_5 
REMARK    4  A    between atoms: C_5  and  C_7 
REMARK    5  A    between atoms: C_5  and  N_15 
REMARK    6  A    between atoms: C_13  and  C_23 
REMARK    7  A    between atoms: C_13  and  N_30 
REMARK    8  A    between atoms: O_14  and  P_20 
REMARK    9  A    between atoms: C_18  and  O_19 
REMARK   10  A    between atoms: O_19  and  P_20 
REMARK   11  A    between atoms: C_23  and  C_25 
ROOT
HETATM    1  C           1     -21.509  -8.627  -1.307  0.00  0.00     0.189 C 
ENDROOT
BRANCH   1   2
HETATM    2  C           1     -20.407  -9.669  -1.167  0.00  0.00     0.074 C 
BRANCH   2   3
HETATM    3  C           1     -19.820  -9.959  -2.513  0.00  0.00    -0.056 A 
HETATM    4  C           1     -20.582 -10.614  -3.480  0.00  0.00     0.010 A 
HETATM    5  C           1     -20.035 -10.884  -4.734  0.00  0.00     0.038 A 
HETATM    6  C           1     -18.725 -10.501  -5.021  0.00  0.00     0.081 A 
HETATM    7  C           1     -17.963  -9.845  -4.054  0.00  0.00     0.038 A 
HETATM    8  C           1     -18.510  -9.575  -2.800  0.00  0.00     0.010 A 
BRANCH   6   9
HETATM    9  O           1     -18.194 -10.763  -6.239  0.00  0.00    -0.247 OA
BRANCH   9  10
HETATM   10  P           1     -17.121 -11.964  -6.357  0.00  0.00     0.411 P 
HETATM   11  O           1     -17.297 -12.659  -7.651  0.00  0.00    -0.624 OA
HETATM   12  O           1     -17.329 -12.922  -5.249  0.00  0.00    -0.624 OA
BRANCH  10  13
HETATM   13  O           1     -15.626 -11.358  -6.273  0.00  0.00    -0.300 OA
HETATM   14  H           1     -15.471 -10.972  -7.119  0.00  0.00     0.223 HD
ENDBRANCH  10  13
ENDBRANCH   9  10
ENDBRANCH   6   9
ENDBRANCH   2   3
ENDBRANCH   1   2
BRANCH   1  15
HETATM   15  C           1     -21.996  -8.222   0.062  0.00  0.00     0.197 C 
HETATM   16  O           1     -21.230  -8.302   1.047  0.00  0.00    -0.646 OA
HETATM   17  O           1     -23.165  -7.806   0.212  0.00  0.00    -0.646 OA
ENDBRANCH   1  15
BRANCH   1  18
HETATM   18  N           1     -20.989  -7.464  -1.999  0.00  0.00    -0.344 N 
HETATM   19  C           1     -21.789  -6.766  -2.862  0.00  0.00     0.249 C 
HETATM   20  O           1     -22.459  -5.848  -2.456  0.00  0.00    -0.271 OA
HETATM   21  H           1     -20.034  -7.169  -1.843  0.00  0.00     0.163 HD
BRANCH  19  22
HETATM   22  C           1     -21.833  -7.144  -4.322  0.00  0.00     0.284 C 
BRANCH  22  23
HETATM   23  C           1     -20.424  -7.111  -4.899  0.00  0.00     0.155 C 
BRANCH  23  24
HETATM   24  C           1     -20.342  -6.048  -5.967  0.00  0.00     0.175 C 
HETATM   25  O           1     -20.514  -6.353  -7.167  0.00  0.00    -0.648 OA
HETATM   26  O           1     -20.102  -4.862  -5.652  0.00  0.00    -0.648 OA
ENDBRANCH  23  24
ENDBRANCH  22  23
BRANCH  22  27
HETATM   27  N           1     -22.699  -6.170  -5.065  0.00  0.00    -0.066 N 
HETATM   28  H           1     -22.209  -5.251  -5.136  0.00  0.00     0.275 HD
HETATM   29  H           1     -22.891  -6.538  -6.024  0.00  0.00     0.275 HD
HETATM   30  H           1     -23.601  -6.045  -4.553  0.00  0.00     0.275 HD
ENDBRANCH  22  27
ENDBRANCH  19  22
ENDBRANCH   1  18
TORSDOF 11
ENDMDL
MODEL 9
REMARK VINA RESULT:      -6.5      3.718      9.005
REMARK  11 active torsions:
REMARK  status: ('A' for Active; 'I' for Inactive)
REMARK       I    between atoms: C_1  and  N_15 
REMARK    1  A    between atoms: C_1  and  C_13 
REMARK    2  A    between atoms: C_3  and  C_4 
REMARK    3  A    between atoms: C_4  and  C_5 
REMARK    4  A    between atoms: C_5  and  C_7 
REMARK    5  A    between atoms: C_5  and  N_15 
REMARK    6  A    between atoms: C_13  and  C_23 
REMARK    7  A    between atoms: C_13  and  N_30 
REMARK    8  A    between atoms: O_14  and  P_20 
REMARK    9  A    between atoms: C_18  and  O_19 
REMARK   10  A    between atoms: O_19  and  P_20 
REMARK   11  A    between atoms: C_23  and  C_25 
ROOT
HETATM    1  C           1     -21.095  -7.209  -5.814  0.00  0.00     0.189 C 
ENDROOT
BRANCH   1   2
HETATM    2  C           1     -20.030  -7.894  -4.968  0.00  0.00     0.074 C 
BRANCH   2   3
HETATM    3  C           1     -20.684  -8.636  -3.845  0.00  0.00    -0.056 A 
HETATM    4  C           1     -21.588  -9.661  -4.119  0.00  0.00     0.010 A 
HETATM    5  C           1     -22.198 -10.352  -3.073  0.00  0.00     0.038 A 
HETATM    6  C           1     -21.904 -10.017  -1.751  0.00  0.00     0.081 A 
HETATM    7  C           1     -20.999  -8.992  -1.476  0.00  0.00     0.038 A 
HETATM    8  C           1     -20.390  -8.301  -2.523  0.00  0.00     0.010 A 
BRANCH   6   9
HETATM    9  O           1     -22.496 -10.688  -0.734  0.00  0.00    -0.247 OA
BRANCH   9  10
HETATM   10  P           1     -21.584 -11.684   0.151  0.00  0.00     0.411 P 
HETATM   11  O           1     -20.681 -12.450  -0.738  0.00  0.00    -0.624 OA
HETATM   12  O           1     -22.454 -12.621   0.896  0.00  0.00    -0.624 OA
BRANCH  10  13
HETATM   13  O           1     -20.703 -10.820   1.194  0.00  0.00    -0.300 OA
HETATM   14  H           1     -20.014 -10.440   0.675  0.00  0.00     0.223 HD
ENDBRANCH  10  13
ENDBRANCH   9  10
ENDBRANCH   6   9
ENDBRANCH   2   3
ENDBRANCH   1   2
BRANCH   1  15
HETATM   15  C           1     -21.826  -6.190  -4.976  0.00  0.00     0.197 C 
HETATM   16  O           1     -23.064  -6.056  -5.093  0.00  0.00    -0.646 OA
HETATM   17  O           1     -21.195  -5.480  -4.164  0.00  0.00    -0.646 OA
ENDBRANCH   1  15
BRANCH   1  18
HETATM   18  N           1     -20.466  -6.547  -6.940  0.00  0.00    -0.344 N 
HETATM   19  C           1     -20.819  -5.266  -7.266  0.00  0.00     0.249 C 
HETATM   20  O           1     -20.230  -4.333  -6.777  0.00  0.00    -0.271 OA
HETATM   21  H           1     -19.764  -7.033  -7.484  0.00  0.00     0.163 HD
BRANCH  19  22
HETATM   22  C           1     -21.947  -5.020  -8.238  0.00  0.00     0.284 C 
BRANCH  22  23
HETATM   23  C           1     -21.400  -4.355  -9.495  0.00  0.00     0.155 C 
BRANCH  23  24
HETATM   24  C           1     -22.531  -4.096 -10.460  0.00  0.00     0.175 C 
HETATM   25  O           1     -22.515  -3.074 -11.181  0.00  0.00    -0.648 OA
HETATM   26  O           1     -23.483  -4.902 -10.540  0.00  0.00    -0.648 OA
ENDBRANCH  23  24
ENDBRANCH  22  23
BRANCH  22  27
HETATM   27  N           1     -22.968  -4.122  -7.604  0.00  0.00    -0.066 N 
HETATM   28  H           1     -22.497  -3.268  -7.229  0.00  0.00     0.275 HD
HETATM   29  H           1     -23.677  -3.844  -8.317  0.00  0.00     0.275 HD
HETATM   30  H           1     -23.440  -4.630  -6.822  0.00  0.00     0.275 HD
ENDBRANCH  22  27
ENDBRANCH  19  22
ENDBRANCH   1  18
TORSDOF 11
ENDMDL
