MODEL 1
REMARK VINA RESULT:      -5.7      0.000      0.000
REMARK  8 active torsions:
REMARK  status: ('A' for Active; 'I' for Inactive)
REMARK    1  A    between atoms: C_1  and  C_8 
REMARK    2  A    between atoms: C_1  and  N_10 
REMARK    3  A    between atoms: C_2  and  C_3 
REMARK    4  A    between atoms: C_2  and  C_19 
REMARK    5  A    between atoms: C_2  and  N_9 
REMARK    6  A    between atoms: C_3  and  C_4 
REMARK    7  A    between atoms: C_4  and  C_5 
REMARK    8  A    between atoms: C_5  and  N_6 
REMARK       I    between atoms: C_8  and  N_9 
ROOT
HETATM    1  C           1     -35.228  -0.159 -12.903  0.00  0.00     0.185 C 
ENDROOT
BRANCH   1   2
HETATM    2  C           1     -35.394   0.579 -14.224  0.00  0.00     0.038 C 
BRANCH   2   3
HETATM    3  C           1     -35.448  -0.428 -15.366  0.00  0.00     0.030 C 
BRANCH   3   4
HETATM    4  C           1     -36.818  -0.370 -16.030  0.00  0.00     0.230 C 
BRANCH   4   5
HETATM    5  N           1     -37.509   0.905 -15.644  0.00  0.00    -0.079 N 
HETATM    6  H           1     -38.542   0.751 -15.627  0.00  0.00     0.274 HD
HETATM    7  H           1     -37.186   1.202 -14.695  0.00  0.00     0.274 HD
HETATM    8  H           1     -37.279   1.650 -16.340  0.00  0.00     0.274 HD
ENDBRANCH   4   5
ENDBRANCH   3   4
ENDBRANCH   2   3
ENDBRANCH   1   2
BRANCH   1   9
HETATM    9  C           1     -36.494  -0.031 -12.091  0.00  0.00     0.196 C 
HETATM   10  O           1     -36.439   0.373 -10.909  0.00  0.00    -0.646 OA
HETATM   11  O           1     -37.595  -0.328 -12.601  0.00  0.00    -0.646 OA
ENDBRANCH   1   9
BRANCH   1  12
HETATM   12  N           1     -34.962  -1.561 -13.163  0.00  0.00    -0.345 N 
HETATM   13  C           1     -34.281  -2.310 -12.243  0.00  0.00     0.248 C 
HETATM   14  O           1     -33.901  -1.805 -11.214  0.00  0.00    -0.271 OA
HETATM   15  H           1     -35.280  -1.984 -14.025  0.00  0.00     0.163 HD
BRANCH  13  16
HETATM   16  C           1     -34.005  -3.769 -12.514  0.00  0.00     0.270 C 
HETATM   17  C           1     -32.699  -4.172 -11.842  0.00  0.00     0.050 C 
BRANCH  16  18
HETATM   18  N           1     -33.892  -3.990 -13.993  0.00  0.00    -0.067 N 
HETATM   19  H           1     -34.134  -3.107 -14.497  0.00  0.00     0.275 HD
HETATM   20  H           1     -32.912  -4.267 -14.229  0.00  0.00     0.275 HD
HETATM   21  H           1     -34.549  -4.748 -14.284  0.00  0.00     0.275 HD
ENDBRANCH  16  18
ENDBRANCH  13  16
ENDBRANCH   1  12
TORSDOF 8
ENDMDL
MODEL 2
REMARK VINA RESULT:      -5.5      1.640      4.485
REMARK  8 active torsions:
REMARK  status: ('A' for Active; 'I' for Inactive)
REMARK    1  A    between atoms: C_1  and  C_8 
REMARK    2  A    between atoms: C_1  and  N_10 
REMARK    3  A    between atoms: C_2  and  C_3 
REMARK    4  A    between atoms: C_2  and  C_19 
REMARK    5  A    between atoms: C_2  and  N_9 
REMARK    6  A    between atoms: C_3  and  C_4 
REMARK    7  A    between atoms: C_4  and  C_5 
REMARK    8  A    between atoms: C_5  and  N_6 
REMARK       I    between atoms: C_8  and  N_9 
ROOT
HETATM    1  C           1     -35.367  -1.649 -11.661  0.00  0.00     0.185 C 
ENDROOT
BRANCH   1   2
HETATM    2  C           1     -34.007  -1.872 -11.013  0.00  0.00     0.038 C 
BRANCH   2   3
HETATM    3  C           1     -33.789  -3.364 -10.791  0.00  0.00     0.030 C 
BRANCH   3   4
HETATM    4  C           1     -32.792  -3.890 -11.816  0.00  0.00     0.230 C 
BRANCH   4   5
HETATM    5  N           1     -33.531  -4.385 -13.024  0.00  0.00    -0.079 N 
HETATM    6  H           1     -32.910  -4.322 -13.863  0.00  0.00     0.274 HD
HETATM    7  H           1     -33.814  -5.380 -12.875  0.00  0.00     0.274 HD
HETATM    8  H           1     -34.382  -3.799 -13.176  0.00  0.00     0.274 HD
ENDBRANCH   4   5
ENDBRANCH   3   4
ENDBRANCH   2   3
ENDBRANCH   1   2
BRANCH   1   9
HETATM    9  C           1     -36.364  -1.229 -10.608  0.00  0.00     0.196 C 
HETATM   10  O           1     -37.588  -1.383 -10.811  0.00  0.00    -0.646 OA
HETATM   11  O           1     -35.965  -0.728  -9.535  0.00  0.00    -0.646 OA
ENDBRANCH   1   9
BRANCH   1  12
HETATM   12  N           1     -35.258  -0.608 -12.665  0.00  0.00    -0.345 N 
HETATM   13  C           1     -35.128  -0.943 -13.986  0.00  0.00     0.248 C 
HETATM   14  O           1     -35.104  -2.105 -14.315  0.00  0.00    -0.271 OA
HETATM   15  H           1     -35.278   0.365 -12.389  0.00  0.00     0.163 HD
BRANCH  13  16
HETATM   16  C           1     -35.015   0.140 -15.030  0.00  0.00     0.270 C 
HETATM   17  C           1     -34.974   1.502 -14.348  0.00  0.00     0.050 C 
BRANCH  16  18
HETATM   18  N           1     -36.201   0.077 -15.946  0.00  0.00    -0.067 N 
HETATM   19  H           1     -37.038  -0.244 -15.410  0.00  0.00     0.275 HD
HETATM   20  H           1     -36.385   1.027 -16.342  0.00  0.00     0.275 HD
HETATM   21  H           1     -36.006  -0.593 -16.724  0.00  0.00     0.275 HD
ENDBRANCH  16  18
ENDBRANCH  13  16
ENDBRANCH   1  12
TORSDOF 8
ENDMDL
MODEL 3
REMARK VINA RESULT:      -5.3      2.355      4.290
REMARK  8 active torsions:
REMARK  status: ('A' for Active; 'I' for Inactive)
REMARK    1  A    between atoms: C_1  and  C_8 
REMARK    2  A    between atoms: C_1  and  N_10 
REMARK    3  A    between atoms: C_2  and  C_3 
REMARK    4  A    between atoms: C_2  and  C_19 
REMARK    5  A    between atoms: C_2  and  N_9 
REMARK    6  A    between atoms: C_3  and  C_4 
REMARK    7  A    between atoms: C_4  and  C_5 
REMARK    8  A    between atoms: C_5  and  N_6 
REMARK       I    between atoms: C_8  and  N_9 
ROOT
HETATM    1  C           1     -35.402  -1.014 -12.019  0.00  0.00     0.185 C 
ENDROOT
BRANCH   1   2
HETATM    2  C           1     -34.976   0.090 -12.977  0.00  0.00     0.038 C 
BRANCH   2   3
HETATM    3  C           1     -36.064   0.306 -14.021  0.00  0.00     0.030 C 
BRANCH   3   4
HETATM    4  C           1     -35.494   1.097 -15.192  0.00  0.00     0.230 C 
BRANCH   4   5
HETATM    5  N           1     -36.617   1.603 -16.048  0.00  0.00    -0.079 N 
HETATM    6  H           1     -37.257   2.195 -15.471  0.00  0.00     0.274 HD
HETATM    7  H           1     -36.227   2.175 -16.832  0.00  0.00     0.274 HD
HETATM    8  H           1     -37.150   0.793 -16.439  0.00  0.00     0.274 HD
ENDBRANCH   4   5
ENDBRANCH   3   4
ENDBRANCH   2   3
ENDBRANCH   1   2
BRANCH   1   9
HETATM    9  C           1     -34.272  -2.002 -11.854  0.00  0.00     0.196 C 
HETATM   10  O           1     -33.552  -1.961 -10.833  0.00  0.00    -0.646 OA
HETATM   11  O           1     -34.058  -2.859 -12.737  0.00  0.00    -0.646 OA
ENDBRANCH   1   9
BRANCH   1  12
HETATM   12  N           1     -35.730  -0.436 -10.731  0.00  0.00    -0.345 N 
HETATM   13  C           1     -37.024  -0.448 -10.285  0.00  0.00     0.248 C 
HETATM   14  O           1     -37.893  -0.940 -10.965  0.00  0.00    -0.271 OA
HETATM   15  H           1     -35.002  -0.023 -10.161  0.00  0.00     0.163 HD
BRANCH  13  16
HETATM   16  C           1     -37.365   0.154  -8.944  0.00  0.00     0.270 C 
HETATM   17  C           1     -37.933   1.553  -9.144  0.00  0.00     0.050 C 
BRANCH  16  18
HETATM   18  N           1     -36.125   0.236  -8.103  0.00  0.00    -0.067 N 
HETATM   19  H           1     -35.510   1.000  -8.463  0.00  0.00     0.275 HD
HETATM   20  H           1     -36.391   0.441  -7.113  0.00  0.00     0.275 HD
HETATM   21  H           1     -35.614  -0.674  -8.146  0.00  0.00     0.275 HD
ENDBRANCH  16  18
ENDBRANCH  13  16
ENDBRANCH   1  12
TORSDOF 8
ENDMDL
MODEL 4
REMARK VINA RESULT:      -5.2      1.633      5.012
REMARK  8 active torsions:
REMARK  status: ('A' for Active; 'I' for Inactive)
REMARK    1  A    between atoms: C_1  and  C_8 
REMARK    2  A    between atoms: C_1  and  N_10 
REMARK    3  A    between atoms: C_2  and  C_3 
REMARK    4  A    between atoms: C_2  and  C_19 
REMARK    5  A    between atoms: C_2  and  N_9 
REMARK    6  A    between atoms: C_3  and  C_4 
REMARK    7  A    between atoms: C_4  and  C_5 
REMARK    8  A    between atoms: C_5  and  N_6 
REMARK       I    between atoms: C_8  and  N_9 
ROOT
HETATM    1  C           1     -35.181  -2.397 -12.079  0.00  0.00     0.185 C 
ENDROOT
BRANCH   1   2
HETATM    2  C           1     -34.527  -3.751 -12.322  0.00  0.00     0.038 C 
BRANCH   2   3
HETATM    3  C           1     -34.890  -4.702 -11.188  0.00  0.00     0.030 C 
BRANCH   3   4
HETATM    4  C           1     -33.836  -5.798 -11.088  0.00  0.00     0.230 C 
BRANCH   4   5
HETATM    5  N           1     -32.561  -5.327 -11.722  0.00  0.00    -0.079 N 
HETATM    6  H           1     -31.750  -5.813 -11.278  0.00  0.00     0.274 HD
HETATM    7  H           1     -32.580  -5.545 -12.744  0.00  0.00     0.274 HD
HETATM    8  H           1     -32.465  -4.295 -11.587  0.00  0.00     0.274 HD
ENDBRANCH   4   5
ENDBRANCH   3   4
ENDBRANCH   2   3
ENDBRANCH   1   2
BRANCH   1   9
HETATM    9  C           1     -34.581  -1.761 -10.849  0.00  0.00     0.196 C 
HETATM   10  O           1     -33.340  -1.748 -10.695  0.00  0.00    -0.646 OA
HETATM   11  O           1     -35.324  -1.248  -9.986  0.00  0.00    -0.646 OA
ENDBRANCH   1   9
BRANCH   1  12
HETATM   12  N           1     -34.954  -1.539 -13.226  0.00  0.00    -0.345 N 
HETATM   13  C           1     -35.991  -0.821 -13.759  0.00  0.00     0.248 C 
HETATM   14  O           1     -37.094  -0.902 -13.273  0.00  0.00    -0.271 OA
HETATM   15  H           1     -34.030  -1.471 -13.632  0.00  0.00     0.163 HD
BRANCH  13  16
HETATM   16  C           1     -35.755   0.072 -14.952  0.00  0.00     0.270 C 
HETATM   17  C           1     -35.859  -0.750 -16.230  0.00  0.00     0.050 C 
BRANCH  16  18
HETATM   18  N           1     -34.386   0.678 -14.859  0.00  0.00    -0.067 N 
HETATM   19  H           1     -33.910   0.334 -13.995  0.00  0.00     0.275 HD
HETATM   20  H           1     -33.826   0.402 -15.698  0.00  0.00     0.275 HD
HETATM   21  H           1     -34.468   1.719 -14.822  0.00  0.00     0.275 HD
ENDBRANCH  16  18
ENDBRANCH  13  16
ENDBRANCH   1  12
TORSDOF 8
ENDMDL
MODEL 5
REMARK VINA RESULT:      -5.2      2.470      3.633
REMARK  8 active torsions:
REMARK  status: ('A' for Active; 'I' for Inactive)
REMARK    1  A    between atoms: C_1  and  C_8 
REMARK    2  A    between atoms: C_1  and  N_10 
REMARK    3  A    between atoms: C_2  and  C_3 
REMARK    4  A    between atoms: C_2  and  C_19 
REMARK    5  A    between atoms: C_2  and  N_9 
REMARK    6  A    between atoms: C_3  and  C_4 
REMARK    7  A    between atoms: C_4  and  C_5 
REMARK    8  A    between atoms: C_5  and  N_6 
REMARK       I    between atoms: C_8  and  N_9 
ROOT
HETATM    1  C           1     -35.977  -1.354 -12.272  0.00  0.00     0.185 C 
ENDROOT
BRANCH   1   2
HETATM    2  C           1     -35.791  -0.249 -11.241  0.00  0.00     0.038 C 
BRANCH   2   3
HETATM    3  C           1     -37.096  -0.037 -10.482  0.00  0.00     0.030 C 
BRANCH   3   4
HETATM    4  C           1     -36.830  -0.115  -8.984  0.00  0.00     0.230 C 
BRANCH   4   5
HETATM    5  N           1     -36.323   1.209  -8.495  0.00  0.00    -0.079 N 
HETATM    6  H           1     -36.024   1.791  -9.310  0.00  0.00     0.274 HD
HETATM    7  H           1     -37.083   1.703  -7.976  0.00  0.00     0.274 HD
HETATM    8  H           1     -35.508   1.056  -7.859  0.00  0.00     0.274 HD
ENDBRANCH   4   5
ENDBRANCH   3   4
ENDBRANCH   2   3
ENDBRANCH   1   2
BRANCH   1   9
HETATM    9  C           1     -35.909  -0.764 -13.660  0.00  0.00     0.196 C 
HETATM   10  O           1     -34.811  -0.391 -14.127  0.00  0.00    -0.646 OA
HETATM   11  O           1     -36.951  -0.650 -14.341  0.00  0.00    -0.646 OA
ENDBRANCH   1   9
BRANCH   1  12
HETATM   12  N           1     -34.926  -2.341 -12.115  0.00  0.00    -0.345 N 
HETATM   13  C           1     -35.145  -3.457 -11.354  0.00  0.00     0.248 C 
HETATM   14  O           1     -36.213  -3.621 -10.813  0.00  0.00    -0.271 OA
HETATM   15  H           1     -34.032  -2.204 -12.569  0.00  0.00     0.163 HD
BRANCH  13  16
HETATM   16  C           1     -34.051  -4.485 -11.192  0.00  0.00     0.270 C 
HETATM   17  C           1     -32.742  -3.922 -11.729  0.00  0.00     0.050 C 
BRANCH  16  18
HETATM   18  N           1     -34.412  -5.724 -11.956  0.00  0.00    -0.067 N 
HETATM   19  H           1     -35.146  -6.254 -11.434  0.00  0.00     0.275 HD
HETATM   20  H           1     -34.781  -5.456 -12.897  0.00  0.00     0.275 HD
HETATM   21  H           1     -33.564  -6.322 -12.071  0.00  0.00     0.275 HD
ENDBRANCH  16  18
ENDBRANCH  13  16
ENDBRANCH   1  12
TORSDOF 8
ENDMDL
MODEL 6
REMARK VINA RESULT:      -5.1     12.220     14.349
REMARK  8 active torsions:
REMARK  status: ('A' for Active; 'I' for Inactive)
REMARK    1  A    between atoms: C_1  and  C_8 
REMARK    2  A    between atoms: C_1  and  N_10 
REMARK    3  A    between atoms: C_2  and  C_3 
REMARK    4  A    between atoms: C_2  and  C_19 
REMARK    5  A    between atoms: C_2  and  N_9 
REMARK    6  A    between atoms: C_3  and  C_4 
REMARK    7  A    between atoms: C_4  and  C_5 
REMARK    8  A    between atoms: C_5  and  N_6 
REMARK       I    between atoms: C_8  and  N_9 
ROOT
HETATM    1  C           1     -23.233  -3.506  -9.322  0.00  0.00     0.185 C 
ENDROOT
BRANCH   1   2
HETATM    2  C           1     -22.469  -3.284 -10.619  0.00  0.00     0.038 C 
BRANCH   2   3
HETATM    3  C           1     -21.703  -4.550 -10.982  0.00  0.00     0.030 C 
BRANCH   3   4
HETATM    4  C           1     -20.229  -4.214 -11.176  0.00  0.00     0.230 C 
BRANCH   4   5
HETATM    5  N           1     -20.085  -2.755 -11.490  0.00  0.00    -0.079 N 
HETATM    6  H           1     -19.072  -2.515 -11.577  0.00  0.00     0.274 HD
HETATM    7  H           1     -20.571  -2.543 -12.391  0.00  0.00     0.274 HD
HETATM    8  H           1     -20.512  -2.189 -10.722  0.00  0.00     0.274 HD
ENDBRANCH   4   5
ENDBRANCH   3   4
ENDBRANCH   2   3
ENDBRANCH   1   2
BRANCH   1   9
HETATM    9  C           1     -24.661  -3.881  -9.636  0.00  0.00     0.196 C 
HETATM   10  O           1     -24.983  -5.086  -9.735  0.00  0.00    -0.646 OA
HETATM   11  O           1     -25.521  -2.989  -9.796  0.00  0.00    -0.646 OA
ENDBRANCH   1   9
BRANCH   1  12
HETATM   12  N           1     -22.607  -4.577  -8.570  0.00  0.00    -0.345 N 
HETATM   13  C           1     -21.777  -4.282  -7.523  0.00  0.00     0.248 C 
HETATM   14  O           1     -21.566  -3.130  -7.224  0.00  0.00    -0.271 OA
HETATM   15  H           1     -22.785  -5.541  -8.820  0.00  0.00     0.163 HD
BRANCH  13  16
HETATM   16  C           1     -21.126  -5.396  -6.740  0.00  0.00     0.270 C 
HETATM   17  C           1     -20.378  -4.811  -5.549  0.00  0.00     0.050 C 
BRANCH  16  18
HETATM   18  N           1     -20.161  -6.129  -7.624  0.00  0.00    -0.067 N 
HETATM   19  H           1     -19.305  -5.546  -7.764  0.00  0.00     0.275 HD
HETATM   20  H           1     -19.894  -7.034  -7.172  0.00  0.00     0.275 HD
HETATM   21  H           1     -20.609  -6.320  -8.548  0.00  0.00     0.275 HD
ENDBRANCH  16  18
ENDBRANCH  13  16
ENDBRANCH   1  12
TORSDOF 8
ENDMDL
MODEL 7
REMARK VINA RESULT:      -5.0      3.204      5.544
REMARK  8 active torsions:
REMARK  status: ('A' for Active; 'I' for Inactive)
REMARK    1  A    between atoms: C_1  and  C_8 
REMARK    2  A    between atoms: C_1  and  N_10 
REMARK    3  A    between atoms: C_2  and  C_3 
REMARK    4  A    between atoms: C_2  and  C_19 
REMARK    5  A    between atoms: C_2  and  N_9 
REMARK    6  A    between atoms: C_3  and  C_4 
REMARK    7  A    between atoms: C_4  and  C_5 
REMARK    8  A    between atoms: C_5  and  N_6 
REMARK       I    between atoms: C_8  and  N_9 
ROOT
HETATM    1  C           1     -34.250  -4.034 -13.006  0.00  0.00     0.185 C 
ENDROOT
BRANCH   1   2
HETATM    2  C           1     -33.437  -4.729 -11.924  0.00  0.00     0.038 C 
BRANCH   2   3
HETATM    3  C           1     -34.374  -5.278 -10.856  0.00  0.00     0.030 C 
BRANCH   3   4
HETATM    4  C           1     -34.030  -6.736 -10.578  0.00  0.00     0.230 C 
BRANCH   4   5
HETATM    5  N           1     -35.039  -7.319  -9.634  0.00  0.00    -0.079 N 
HETATM    6  H           1     -35.006  -6.803  -8.726  0.00  0.00     0.274 HD
HETATM    7  H           1     -35.994  -7.232 -10.048  0.00  0.00     0.274 HD
HETATM    8  H           1     -34.820  -8.327  -9.470  0.00  0.00     0.274 HD
ENDBRANCH   4   5
ENDBRANCH   3   4
ENDBRANCH   2   3
ENDBRANCH   1   2
BRANCH   1   9
HETATM    9  C           1     -34.599  -2.636 -12.556  0.00  0.00     0.196 C 
HETATM   10  O           1     -35.607  -2.063 -13.022  0.00  0.00    -0.646 OA
HETATM   11  O           1     -33.879  -2.053 -11.717  0.00  0.00    -0.646 OA
ENDBRANCH   1   9
BRANCH   1  12
HETATM   12  N           1     -33.471  -3.967 -14.228  0.00  0.00    -0.345 N 
HETATM   13  C           1     -33.964  -4.508 -15.384  0.00  0.00     0.248 C 
HETATM   14  O           1     -35.048  -5.042 -15.387  0.00  0.00    -0.271 OA
HETATM   15  H           1     -32.564  -3.519 -14.225  0.00  0.00     0.163 HD
BRANCH  13  16
HETATM   16  C           1     -33.153  -4.438 -16.655  0.00  0.00     0.270 C 
HETATM   17  C           1     -31.684  -4.676 -16.333  0.00  0.00     0.050 C 
BRANCH  16  18
HETATM   18  N           1     -33.315  -3.083 -17.276  0.00  0.00    -0.067 N 
HETATM   19  H           1     -33.055  -2.348 -16.582  0.00  0.00     0.275 HD
HETATM   20  H           1     -32.691  -3.008 -18.112  0.00  0.00     0.275 HD
HETATM   21  H           1     -34.309  -2.950 -17.570  0.00  0.00     0.275 HD
ENDBRANCH  16  18
ENDBRANCH  13  16
ENDBRANCH   1  12
TORSDOF 8
ENDMDL
MODEL 8
REMARK VINA RESULT:      -4.9      2.274      3.408
REMARK  8 active torsions:
REMARK  status: ('A' for Active; 'I' for Inactive)
REMARK    1  A    between atoms: C_1  and  C_8 
REMARK    2  A    between atoms: C_1  and  N_10 
REMARK    3  A    between atoms: C_2  and  C_3 
REMARK    4  A    between atoms: C_2  and  C_19 
REMARK    5  A    between atoms: C_2  and  N_9 
REMARK    6  A    between atoms: C_3  and  C_4 
REMARK    7  A    between atoms: C_4  and  C_5 
REMARK    8  A    between atoms: C_5  and  N_6 
REMARK       I    between atoms: C_8  and  N_9 
ROOT
HETATM    1  C           1     -35.955  -0.985 -13.676  0.00  0.00     0.185 C 
ENDROOT
BRANCH   1   2
HETATM    2  C           1     -36.566   0.192 -12.929  0.00  0.00     0.038 C 
BRANCH   2   3
HETATM    3  C           1     -37.895  -0.230 -12.314  0.00  0.00     0.030 C 
BRANCH   3   4
HETATM    4  C           1     -37.866   0.034 -10.813  0.00  0.00     0.230 C 
BRANCH   4   5
HETATM    5  N           1     -36.444   0.078 -10.339  0.00  0.00    -0.079 N 
HETATM    6  H           1     -35.819  -0.329 -11.071  0.00  0.00     0.274 HD
HETATM    7  H           1     -36.168   1.071 -10.160  0.00  0.00     0.274 HD
HETATM    8  H           1     -36.354  -0.474  -9.457  0.00  0.00     0.274 HD
ENDBRANCH   4   5
ENDBRANCH   3   4
ENDBRANCH   2   3
ENDBRANCH   1   2
BRANCH   1   9
HETATM    9  C           1     -35.631  -0.571 -15.091  0.00  0.00     0.196 C 
HETATM   10  O           1     -36.338  -0.978 -16.038  0.00  0.00    -0.646 OA
HETATM   11  O           1     -34.656   0.178 -15.314  0.00  0.00    -0.646 OA
ENDBRANCH   1   9
BRANCH   1  12
HETATM   12  N           1     -34.739  -1.404 -13.005  0.00  0.00    -0.345 N 
HETATM   13  C           1     -34.786  -2.391 -12.059  0.00  0.00     0.248 C 
HETATM   14  O           1     -35.839  -2.915 -11.783  0.00  0.00    -0.271 OA
HETATM   15  H           1     -33.857  -0.965 -13.237  0.00  0.00     0.163 HD
BRANCH  13  16
HETATM   16  C           1     -33.521  -2.827 -11.361  0.00  0.00     0.270 C 
HETATM   17  C           1     -33.755  -4.165 -10.672  0.00  0.00     0.050 C 
BRANCH  16  18
HETATM   18  N           1     -33.135  -1.800 -10.338  0.00  0.00    -0.067 N 
HETATM   19  H           1     -32.219  -1.373 -10.601  0.00  0.00     0.275 HD
HETATM   20  H           1     -33.868  -1.055 -10.302  0.00  0.00     0.275 HD
HETATM   21  H           1     -33.053  -2.255  -9.401  0.00  0.00     0.275 HD
ENDBRANCH  16  18
ENDBRANCH  13  16
ENDBRANCH   1  12
TORSDOF 8
ENDMDL
MODEL 9
REMARK VINA RESULT:      -4.8     14.024     16.562
REMARK  8 active torsions:
REMARK  status: ('A' for Active; 'I' for Inactive)
REMARK    1  A    between atoms: C_1  and  C_8 
REMARK    2  A    between atoms: C_1  and  N_10 
REMARK    3  A    between atoms: C_2  and  C_3 
REMARK    4  A    between atoms: C_2  and  C_19 
REMARK    5  A    between atoms: C_2  and  N_9 
REMARK    6  A    between atoms: C_3  and  C_4 
REMARK    7  A    between atoms: C_4  and  C_5 
REMARK    8  A    between atoms: C_5  and  N_6 
REMARK       I    between atoms: C_8  and  N_9 
ROOT
HETATM    1  C           1     -21.188  -5.549  -6.390  0.00  0.00     0.185 C 
ENDROOT
BRANCH   1   2
HETATM    2  C           1     -21.767  -4.222  -6.861  0.00  0.00     0.038 C 
BRANCH   2   3
HETATM    3  C           1     -23.161  -4.449  -7.431  0.00  0.00     0.030 C 
BRANCH   3   4
HETATM    4  C           1     -23.225  -3.901  -8.851  0.00  0.00     0.230 C 
BRANCH   4   5
HETATM    5  N           1     -24.582  -3.313  -9.101  0.00  0.00    -0.079 N 
HETATM    6  H           1     -25.244  -4.070  -9.385  0.00  0.00     0.274 HD
HETATM    7  H           1     -24.929  -2.857  -8.228  0.00  0.00     0.274 HD
HETATM    8  H           1     -24.517  -2.602  -9.864  0.00  0.00     0.274 HD
ENDBRANCH   4   5
ENDBRANCH   3   4
ENDBRANCH   2   3
ENDBRANCH   1   2
BRANCH   1   9
HETATM    9  C           1     -19.822  -5.749  -7.002  0.00  0.00     0.196 C 
HETATM   10  O           1     -19.188  -4.767  -7.446  0.00  0.00    -0.646 OA
HETATM   11  O           1     -19.328  -6.894  -7.064  0.00  0.00    -0.646 OA
ENDBRANCH   1   9
BRANCH   1  12
HETATM   12  N           1     -21.072  -5.539  -4.944  0.00  0.00    -0.345 N 
HETATM   13  C           1     -21.434  -6.643  -4.222  0.00  0.00     0.248 C 
HETATM   14  O           1     -21.851  -7.626  -4.788  0.00  0.00    -0.271 OA
HETATM   15  H           1     -20.723  -4.716  -4.470  0.00  0.00     0.163 HD
BRANCH  13  16
HETATM   16  C           1     -21.314  -6.633  -2.717  0.00  0.00     0.270 C 
HETATM   17  C           1     -21.356  -8.063  -2.195  0.00  0.00     0.050 C 
BRANCH  16  18
HETATM   18  N           1     -22.452  -5.854  -2.130  0.00  0.00    -0.067 N 
HETATM   19  H           1     -22.948  -5.334  -2.889  0.00  0.00     0.275 HD
HETATM   20  H           1     -23.120  -6.512  -1.667  0.00  0.00     0.275 HD
HETATM   21  H           1     -22.084  -5.176  -1.425  0.00  0.00     0.275 HD
ENDBRANCH  16  18
ENDBRANCH  13  16
ENDBRANCH   1  12
TORSDOF 8
ENDMDL
