MODEL 1
REMARK VINA RESULT:      -6.2      0.000      0.000
REMARK  8 active torsions:
REMARK  status: ('A' for Active; 'I' for Inactive)
REMARK    1  A    between atoms: C_1  and  C_20 
REMARK    2  A    between atoms: C_5  and  C_6 
REMARK    3  A    between atoms: C_5  and  C_16 
REMARK    4  A    between atoms: C_6  and  C_7 
REMARK    5  A    between atoms: C_6  and  N_13 
REMARK       I    between atoms: C_7  and  N_8 
REMARK    6  A    between atoms: N_8  and  C_20 
REMARK    7  A    between atoms: C_20  and  C_21 
REMARK    8  A    between atoms: C_21  and  C_22 
ROOT
HETATM    1  H           1     -19.319  -7.152  -3.347  0.00  0.00     0.163 HD
HETATM    2  C           1     -19.737  -8.391  -4.952  0.00  0.00     0.249 C 
HETATM    3  N           1     -20.023  -7.730  -3.787  0.00  0.00    -0.344 N 
HETATM    4  O           1     -19.943  -7.857  -6.016  0.00  0.00    -0.271 OA
ENDROOT
BRANCH   3   5
HETATM    5  C           1     -21.337  -7.857  -3.186  0.00  0.00     0.189 C 
BRANCH   5   6
HETATM    6  C           1     -22.050  -6.529  -3.252  0.00  0.00     0.197 C 
HETATM    7  O           1     -22.409  -5.959  -2.198  0.00  0.00    -0.646 OA
HETATM    8  O           1     -22.281  -5.998  -4.360  0.00  0.00    -0.646 OA
ENDBRANCH   5   6
BRANCH   5   9
HETATM    9  C           1     -21.189  -8.282  -1.731  0.00  0.00     0.074 C 
BRANCH   9  10
HETATM   10  C           1     -22.141  -9.400  -1.438  0.00  0.00    -0.056 A 
HETATM   11  C           1     -22.268 -10.461  -2.335  0.00  0.00     0.007 A 
HETATM   12  C           1     -23.155 -11.502  -2.061  0.00  0.00     0.001 A 
HETATM   13  C           1     -23.914 -11.484  -0.892  0.00  0.00     0.000 A 
HETATM   14  C           1     -23.787 -10.423   0.005  0.00  0.00     0.001 A 
HETATM   15  C           1     -22.901  -9.381  -0.268  0.00  0.00     0.007 A 
ENDBRANCH   9  10
ENDBRANCH   5   9
ENDBRANCH   3   5
BRANCH   2  16
HETATM   16  C           1     -19.164  -9.786  -4.907  0.00  0.00     0.278 C 
BRANCH  16  17
HETATM   17  C           1     -18.299  -9.940  -3.663  0.00  0.00     0.021 C 
HETATM   18  C           1     -18.583 -11.288  -3.012  0.00  0.00     0.012 C 
BRANCH  17  19
HETATM   19  C           1     -16.830  -9.865  -4.055  0.00  0.00     0.002 C 
HETATM   20  C           1     -15.990  -9.561  -2.820  0.00  0.00     0.005 C 
ENDBRANCH  17  19
ENDBRANCH  16  17
BRANCH  16  21
HETATM   21  N           1     -18.328 -10.023  -6.129  0.00  0.00    -0.066 N 
HETATM   22  H           1     -17.924  -9.116  -6.456  0.00  0.00     0.275 HD
HETATM   23  H           1     -17.553 -10.685  -5.897  0.00  0.00     0.275 HD
HETATM   24  H           1     -18.923 -10.433  -6.884  0.00  0.00     0.275 HD
ENDBRANCH  16  21
ENDBRANCH   2  16
TORSDOF 8
ENDMDL
MODEL 2
REMARK VINA RESULT:      -6.2      1.551      5.572
REMARK  8 active torsions:
REMARK  status: ('A' for Active; 'I' for Inactive)
REMARK    1  A    between atoms: C_1  and  C_20 
REMARK    2  A    between atoms: C_5  and  C_6 
REMARK    3  A    between atoms: C_5  and  C_16 
REMARK    4  A    between atoms: C_6  and  C_7 
REMARK    5  A    between atoms: C_6  and  N_13 
REMARK       I    between atoms: C_7  and  N_8 
REMARK    6  A    between atoms: N_8  and  C_20 
REMARK    7  A    between atoms: C_20  and  C_21 
REMARK    8  A    between atoms: C_21  and  C_22 
ROOT
HETATM    1  H           1     -22.498  -8.258  -4.048  0.00  0.00     0.163 HD
HETATM    2  C           1     -21.853  -7.149  -2.422  0.00  0.00     0.249 C 
HETATM    3  N           1     -21.717  -7.759  -3.642  0.00  0.00    -0.344 N 
HETATM    4  O           1     -22.227  -6.002  -2.359  0.00  0.00    -0.271 OA
ENDROOT
BRANCH   3   5
HETATM    5  C           1     -20.453  -7.688  -4.350  0.00  0.00     0.189 C 
BRANCH   5   6
HETATM    6  C           1     -20.564  -6.686  -5.472  0.00  0.00     0.197 C 
HETATM    7  O           1     -20.462  -5.463  -5.230  0.00  0.00    -0.646 OA
HETATM    8  O           1     -20.757  -7.076  -6.644  0.00  0.00    -0.646 OA
ENDBRANCH   5   6
BRANCH   5   9
HETATM    9  C           1     -20.118  -9.058  -4.925  0.00  0.00     0.074 C 
BRANCH   9  10
HETATM   10  C           1     -18.663  -9.345  -4.713  0.00  0.00    -0.056 A 
HETATM   11  C           1     -18.125  -9.305  -3.426  0.00  0.00     0.007 A 
HETATM   12  C           1     -16.770  -9.573  -3.229  0.00  0.00     0.001 A 
HETATM   13  C           1     -15.954  -9.881  -4.317  0.00  0.00     0.000 A 
HETATM   14  C           1     -16.492  -9.920  -5.603  0.00  0.00     0.001 A 
HETATM   15  C           1     -17.847  -9.653  -5.801  0.00  0.00     0.007 A 
ENDBRANCH   9  10
ENDBRANCH   5   9
ENDBRANCH   3   5
BRANCH   2  16
HETATM   16  C           1     -21.534  -7.910  -1.159  0.00  0.00     0.278 C 
BRANCH  16  17
HETATM   17  C           1     -21.985  -9.356  -1.309  0.00  0.00     0.021 C 
HETATM   18  C           1     -20.796 -10.284  -1.094  0.00  0.00     0.012 C 
BRANCH  17  19
HETATM   19  C           1     -23.060  -9.661  -0.274  0.00  0.00     0.002 C 
HETATM   20  C           1     -23.792 -10.939  -0.664  0.00  0.00     0.005 C 
ENDBRANCH  17  19
ENDBRANCH  16  17
BRANCH  16  21
HETATM   21  N           1     -22.251  -7.280  -0.003  0.00  0.00    -0.066 N 
HETATM   22  H           1     -21.775  -6.386   0.259  0.00  0.00     0.275 HD
HETATM   23  H           1     -23.241  -7.080  -0.274  0.00  0.00     0.275 HD
HETATM   24  H           1     -22.238  -7.933   0.813  0.00  0.00     0.275 HD
ENDBRANCH  16  21
ENDBRANCH   2  16
TORSDOF 8
ENDMDL
MODEL 3
REMARK VINA RESULT:      -6.2      3.083      6.663
REMARK  8 active torsions:
REMARK  status: ('A' for Active; 'I' for Inactive)
REMARK    1  A    between atoms: C_1  and  C_20 
REMARK    2  A    between atoms: C_5  and  C_6 
REMARK    3  A    between atoms: C_5  and  C_16 
REMARK    4  A    between atoms: C_6  and  C_7 
REMARK    5  A    between atoms: C_6  and  N_13 
REMARK       I    between atoms: C_7  and  N_8 
REMARK    6  A    between atoms: N_8  and  C_20 
REMARK    7  A    between atoms: C_20  and  C_21 
REMARK    8  A    between atoms: C_21  and  C_22 
ROOT
HETATM    1  H           1     -22.018  -8.828  -4.652  0.00  0.00     0.163 HD
HETATM    2  C           1     -22.157  -6.921  -3.856  0.00  0.00     0.249 C 
HETATM    3  N           1     -21.664  -7.881  -4.701  0.00  0.00    -0.344 N 
HETATM    4  O           1     -23.112  -6.259  -4.186  0.00  0.00    -0.271 OA
ENDROOT
BRANCH   3   5
HETATM    5  C           1     -20.636  -7.538  -5.665  0.00  0.00     0.189 C 
BRANCH   5   6
HETATM    6  C           1     -19.393  -8.343  -5.378  0.00  0.00     0.197 C 
HETATM    7  O           1     -18.616  -8.647  -6.310  0.00  0.00    -0.646 OA
HETATM    8  O           1     -19.138  -8.705  -4.209  0.00  0.00    -0.646 OA
ENDBRANCH   5   6
BRANCH   5   9
HETATM    9  C           1     -20.316  -6.054  -5.559  0.00  0.00     0.074 C 
BRANCH   9  10
HETATM   10  C           1     -20.682  -5.371  -6.841  0.00  0.00    -0.056 A 
HETATM   11  C           1     -21.935  -4.774  -6.979  0.00  0.00     0.007 A 
HETATM   12  C           1     -22.276  -4.138  -8.174  0.00  0.00     0.001 A 
HETATM   13  C           1     -21.365  -4.100  -9.228  0.00  0.00     0.000 A 
HETATM   14  C           1     -20.112  -4.698  -9.090  0.00  0.00     0.001 A 
HETATM   15  C           1     -19.771  -5.334  -7.896  0.00  0.00     0.007 A 
ENDBRANCH   9  10
ENDBRANCH   5   9
ENDBRANCH   3   5
BRANCH   2  16
HETATM   16  C           1     -21.506  -6.692  -2.514  0.00  0.00     0.278 C 
BRANCH  16  17
HETATM   17  C           1     -21.819  -7.861  -1.590  0.00  0.00     0.021 C 
HETATM   18  C           1     -20.530  -8.595  -1.245  0.00  0.00     0.012 C 
BRANCH  17  19
HETATM   19  C           1     -22.463  -7.339  -0.313  0.00  0.00     0.002 C 
HETATM   20  C           1     -23.155  -8.486   0.413  0.00  0.00     0.005 C 
ENDBRANCH  17  19
ENDBRANCH  16  17
BRANCH  16  21
HETATM   21  N           1     -22.035  -5.424  -1.913  0.00  0.00    -0.066 N 
HETATM   22  H           1     -21.437  -4.620  -2.210  0.00  0.00     0.275 HD
HETATM   23  H           1     -23.016  -5.267  -2.239  0.00  0.00     0.275 HD
HETATM   24  H           1     -22.023  -5.501  -0.871  0.00  0.00     0.275 HD
ENDBRANCH  16  21
ENDBRANCH   2  16
TORSDOF 8
ENDMDL
MODEL 4
REMARK VINA RESULT:      -6.0      2.447      4.243
REMARK  8 active torsions:
REMARK  status: ('A' for Active; 'I' for Inactive)
REMARK    1  A    between atoms: C_1  and  C_20 
REMARK    2  A    between atoms: C_5  and  C_6 
REMARK    3  A    between atoms: C_5  and  C_16 
REMARK    4  A    between atoms: C_6  and  C_7 
REMARK    5  A    between atoms: C_6  and  N_13 
REMARK       I    between atoms: C_7  and  N_8 
REMARK    6  A    between atoms: N_8  and  C_20 
REMARK    7  A    between atoms: C_20  and  C_21 
REMARK    8  A    between atoms: C_21  and  C_22 
ROOT
HETATM    1  H           1     -22.855  -8.677  -4.563  0.00  0.00     0.163 HD
HETATM    2  C           1     -21.133  -7.744  -3.890  0.00  0.00     0.249 C 
HETATM    3  N           1     -21.934  -8.820  -4.168  0.00  0.00    -0.344 N 
HETATM    4  O           1     -20.375  -7.323  -4.731  0.00  0.00    -0.271 OA
ENDROOT
BRANCH   3   5
HETATM    5  C           1     -21.462 -10.164  -3.897  0.00  0.00     0.189 C 
BRANCH   5   6
HETATM    6  C           1     -20.688 -10.673  -5.087  0.00  0.00     0.197 C 
HETATM    7  O           1     -21.180 -10.593  -6.234  0.00  0.00    -0.646 OA
HETATM    8  O           1     -19.554 -11.174  -4.928  0.00  0.00    -0.646 OA
ENDBRANCH   5   6
BRANCH   5   9
HETATM    9  C           1     -22.653 -11.077  -3.638  0.00  0.00     0.074 C 
BRANCH   9  10
HETATM   10  C           1     -22.692 -11.448  -2.188  0.00  0.00    -0.056 A 
HETATM   11  C           1     -21.589 -12.062  -1.595  0.00  0.00     0.007 A 
HETATM   12  C           1     -21.626 -12.407  -0.244  0.00  0.00     0.001 A 
HETATM   13  C           1     -22.765 -12.139   0.514  0.00  0.00     0.000 A 
HETATM   14  C           1     -23.869 -11.527  -0.079  0.00  0.00     0.001 A 
HETATM   15  C           1     -23.833 -11.181  -1.430  0.00  0.00     0.007 A 
ENDBRANCH   9  10
ENDBRANCH   5   9
ENDBRANCH   3   5
BRANCH   2  16
HETATM   16  C           1     -21.197  -7.087  -2.534  0.00  0.00     0.278 C 
BRANCH  16  17
HETATM   17  C           1     -21.717  -8.085  -1.508  0.00  0.00     0.021 C 
HETATM   18  C           1     -20.542  -8.700  -0.757  0.00  0.00     0.012 C 
BRANCH  17  19
HETATM   19  C           1     -22.631  -7.369  -0.522  0.00  0.00     0.002 C 
HETATM   20  C           1     -22.683  -8.153   0.782  0.00  0.00     0.005 C 
ENDBRANCH  17  19
ENDBRANCH  16  17
BRANCH  16  21
HETATM   21  N           1     -22.119  -5.906  -2.594  0.00  0.00    -0.066 N 
HETATM   22  H           1     -22.161  -5.447  -1.656  0.00  0.00     0.275 HD
HETATM   23  H           1     -21.764  -5.222  -3.300  0.00  0.00     0.275 HD
HETATM   24  H           1     -23.076  -6.225  -2.869  0.00  0.00     0.275 HD
ENDBRANCH  16  21
ENDBRANCH   2  16
TORSDOF 8
ENDMDL
MODEL 5
REMARK VINA RESULT:      -6.0      1.463      2.266
REMARK  8 active torsions:
REMARK  status: ('A' for Active; 'I' for Inactive)
REMARK    1  A    between atoms: C_1  and  C_20 
REMARK    2  A    between atoms: C_5  and  C_6 
REMARK    3  A    between atoms: C_5  and  C_16 
REMARK    4  A    between atoms: C_6  and  C_7 
REMARK    5  A    between atoms: C_6  and  N_13 
REMARK       I    between atoms: C_7  and  N_8 
REMARK    6  A    between atoms: N_8  and  C_20 
REMARK    7  A    between atoms: C_20  and  C_21 
REMARK    8  A    between atoms: C_21  and  C_22 
ROOT
HETATM    1  H           1     -19.023  -7.135  -4.896  0.00  0.00     0.163 HD
HETATM    2  C           1     -19.087  -9.204  -4.907  0.00  0.00     0.249 C 
HETATM    3  N           1     -19.595  -7.948  -4.704  0.00  0.00    -0.344 N 
HETATM    4  O           1     -19.218  -9.742  -5.981  0.00  0.00    -0.271 OA
ENDROOT
BRANCH   3   5
HETATM    5  C           1     -20.950  -7.784  -4.215  0.00  0.00     0.189 C 
BRANCH   5   6
HETATM    6  C           1     -21.774  -7.064  -5.254  0.00  0.00     0.197 C 
HETATM    7  O           1     -21.458  -7.137  -6.462  0.00  0.00    -0.646 OA
HETATM    8  O           1     -22.772  -6.396  -4.908  0.00  0.00    -0.646 OA
ENDBRANCH   5   6
BRANCH   5   9
HETATM    9  C           1     -20.930  -6.969  -2.929  0.00  0.00     0.074 C 
BRANCH   9  10
HETATM   10  C           1     -21.646  -7.720  -1.850  0.00  0.00    -0.056 A 
HETATM   11  C           1     -21.670  -9.115  -1.869  0.00  0.00     0.007 A 
HETATM   12  C           1     -22.338  -9.814  -0.863  0.00  0.00     0.001 A 
HETATM   13  C           1     -22.981  -9.120   0.160  0.00  0.00     0.000 A 
HETATM   14  C           1     -22.959  -7.725   0.179  0.00  0.00     0.001 A 
HETATM   15  C           1     -22.291  -7.025  -0.826  0.00  0.00     0.007 A 
ENDBRANCH   9  10
ENDBRANCH   5   9
ENDBRANCH   3   5
BRANCH   2  16
HETATM   16  C           1     -18.367  -9.917  -3.789  0.00  0.00     0.278 C 
BRANCH  16  17
HETATM   17  C           1     -16.863  -9.798  -3.997  0.00  0.00     0.021 C 
HETATM   18  C           1     -16.188  -9.507  -2.662  0.00  0.00     0.012 C 
BRANCH  17  19
HETATM   19  C           1     -16.325 -11.106  -4.563  0.00  0.00     0.002 C 
HETATM   20  C           1     -15.724 -10.853  -5.940  0.00  0.00     0.005 C 
ENDBRANCH  17  19
ENDBRANCH  16  17
BRANCH  16  21
HETATM   21  N           1     -18.758 -11.364  -3.786  0.00  0.00    -0.066 N 
HETATM   22  H           1     -18.179 -11.884  -4.483  0.00  0.00     0.275 HD
HETATM   23  H           1     -18.599 -11.766  -2.833  0.00  0.00     0.275 HD
HETATM   24  H           1     -19.769 -11.453  -4.036  0.00  0.00     0.275 HD
ENDBRANCH  16  21
ENDBRANCH   2  16
TORSDOF 8
ENDMDL
MODEL 6
REMARK VINA RESULT:      -5.8      3.528      4.831
REMARK  8 active torsions:
REMARK  status: ('A' for Active; 'I' for Inactive)
REMARK    1  A    between atoms: C_1  and  C_20 
REMARK    2  A    between atoms: C_5  and  C_6 
REMARK    3  A    between atoms: C_5  and  C_16 
REMARK    4  A    between atoms: C_6  and  C_7 
REMARK    5  A    between atoms: C_6  and  N_13 
REMARK       I    between atoms: C_7  and  N_8 
REMARK    6  A    between atoms: N_8  and  C_20 
REMARK    7  A    between atoms: C_20  and  C_21 
REMARK    8  A    between atoms: C_21  and  C_22 
ROOT
HETATM    1  H           1     -20.015 -12.080  -2.230  0.00  0.00     0.163 HD
HETATM    2  C           1     -18.536 -10.658  -2.509  0.00  0.00     0.249 C 
HETATM    3  N           1     -19.370 -11.453  -1.767  0.00  0.00    -0.344 N 
HETATM    4  O           1     -17.442 -11.062  -2.826  0.00  0.00    -0.271 OA
ENDROOT
BRANCH   3   5
HETATM    5  C           1     -19.329 -11.393  -0.319  0.00  0.00     0.189 C 
BRANCH   5   6
HETATM    6  C           1     -18.309 -12.380   0.194  0.00  0.00     0.197 C 
HETATM    7  O           1     -18.616 -13.586   0.323  0.00  0.00    -0.646 OA
HETATM    8  O           1     -17.158 -11.993   0.488  0.00  0.00    -0.646 OA
ENDBRANCH   5   6
BRANCH   5   9
HETATM    9  C           1     -20.700 -11.743   0.242  0.00  0.00     0.074 C 
BRANCH   9  10
HETATM   10  C           1     -21.512 -10.493   0.390  0.00  0.00    -0.056 A 
HETATM   11  C           1     -22.823 -10.453  -0.086  0.00  0.00     0.007 A 
HETATM   12  C           1     -23.579  -9.289   0.053  0.00  0.00     0.001 A 
HETATM   13  C           1     -23.025  -8.166   0.666  0.00  0.00     0.000 A 
HETATM   14  C           1     -21.715  -8.206   1.142  0.00  0.00     0.001 A 
HETATM   15  C           1     -20.958  -9.369   1.004  0.00  0.00     0.007 A 
ENDBRANCH   9  10
ENDBRANCH   5   9
ENDBRANCH   3   5
BRANCH   2  16
HETATM   16  C           1     -18.983  -9.280  -2.930  0.00  0.00     0.278 C 
BRANCH  16  17
HETATM   17  C           1     -20.486  -9.148  -2.723  0.00  0.00     0.021 C 
HETATM   18  C           1     -20.822  -7.710  -2.347  0.00  0.00     0.012 C 
BRANCH  17  19
HETATM   19  C           1     -21.210  -9.518  -4.011  0.00  0.00     0.002 C 
HETATM   20  C           1     -22.299 -10.537  -3.706  0.00  0.00     0.005 C 
ENDBRANCH  17  19
ENDBRANCH  16  17
BRANCH  16  21
HETATM   21  N           1     -18.658  -9.071  -4.379  0.00  0.00    -0.066 N 
HETATM   22  H           1     -19.399  -8.481  -4.821  0.00  0.00     0.275 HD
HETATM   23  H           1     -17.735  -8.588  -4.462  0.00  0.00     0.275 HD
HETATM   24  H           1     -18.613  -9.996  -4.863  0.00  0.00     0.275 HD
ENDBRANCH  16  21
ENDBRANCH   2  16
TORSDOF 8
ENDMDL
MODEL 7
REMARK VINA RESULT:      -5.6     19.113     20.884
REMARK  8 active torsions:
REMARK  status: ('A' for Active; 'I' for Inactive)
REMARK    1  A    between atoms: C_1  and  C_20 
REMARK    2  A    between atoms: C_5  and  C_6 
REMARK    3  A    between atoms: C_5  and  C_16 
REMARK    4  A    between atoms: C_6  and  C_7 
REMARK    5  A    between atoms: C_6  and  N_13 
REMARK       I    between atoms: C_7  and  N_8 
REMARK    6  A    between atoms: N_8  and  C_20 
REMARK    7  A    between atoms: C_20  and  C_21 
REMARK    8  A    between atoms: C_21  and  C_22 
ROOT
HETATM    1  H           1     -18.328  11.340   4.067  0.00  0.00     0.163 HD
HETATM    2  C           1     -17.448  10.337   2.484  0.00  0.00     0.249 C 
HETATM    3  N           1     -17.993  10.444   3.736  0.00  0.00    -0.344 N 
HETATM    4  O           1     -18.154  10.081   1.538  0.00  0.00    -0.271 OA
ENDROOT
BRANCH   3   5
HETATM    5  C           1     -18.091   9.273   4.587  0.00  0.00     0.189 C 
BRANCH   5   6
HETATM    6  C           1     -19.488   8.709   4.504  0.00  0.00     0.197 C 
HETATM    7  O           1     -19.809   7.974   3.544  0.00  0.00    -0.646 OA
HETATM    8  O           1     -20.324   8.975   5.393  0.00  0.00    -0.646 OA
ENDBRANCH   5   6
BRANCH   5   9
HETATM    9  C           1     -17.787   9.666   6.026  0.00  0.00     0.074 C 
BRANCH   9  10
HETATM   10  C           1     -16.304   9.708   6.230  0.00  0.00    -0.056 A 
HETATM   11  C           1     -15.688  10.895   6.624  0.00  0.00     0.007 A 
HETATM   12  C           1     -14.306  10.933   6.814  0.00  0.00     0.001 A 
HETATM   13  C           1     -13.541   9.786   6.609  0.00  0.00     0.000 A 
HETATM   14  C           1     -14.157   8.599   6.213  0.00  0.00     0.001 A 
HETATM   15  C           1     -15.539   8.559   6.023  0.00  0.00     0.007 A 
ENDBRANCH   9  10
ENDBRANCH   5   9
ENDBRANCH   3   5
BRANCH   2  16
HETATM   16  C           1     -15.965  10.536   2.287  0.00  0.00     0.278 C 
BRANCH  16  17
HETATM   17  C           1     -15.225   9.261   2.667  0.00  0.00     0.021 C 
HETATM   18  C           1     -15.462   8.200   1.600  0.00  0.00     0.012 C 
BRANCH  17  19
HETATM   19  C           1     -13.734   9.552   2.771  0.00  0.00     0.002 C 
HETATM   20  C           1     -13.162   9.774   1.377  0.00  0.00     0.005 C 
ENDBRANCH  17  19
ENDBRANCH  16  17
BRANCH  16  21
HETATM   21  N           1     -15.494  11.665   3.155  0.00  0.00    -0.066 N 
HETATM   22  H           1     -15.229  11.294   4.096  0.00  0.00     0.275 HD
HETATM   23  H           1     -14.662  12.120   2.714  0.00  0.00     0.275 HD
HETATM   24  H           1     -16.261  12.367   3.260  0.00  0.00     0.275 HD
ENDBRANCH  16  21
ENDBRANCH   2  16
TORSDOF 8
ENDMDL
MODEL 8
REMARK VINA RESULT:      -5.5     19.288     21.185
REMARK  8 active torsions:
REMARK  status: ('A' for Active; 'I' for Inactive)
REMARK    1  A    between atoms: C_1  and  C_20 
REMARK    2  A    between atoms: C_5  and  C_6 
REMARK    3  A    between atoms: C_5  and  C_16 
REMARK    4  A    between atoms: C_6  and  C_7 
REMARK    5  A    between atoms: C_6  and  N_13 
REMARK       I    between atoms: C_7  and  N_8 
REMARK    6  A    between atoms: N_8  and  C_20 
REMARK    7  A    between atoms: C_20  and  C_21 
REMARK    8  A    between atoms: C_21  and  C_22 
ROOT
HETATM    1  H           1     -15.545  10.340   3.956  0.00  0.00     0.163 HD
HETATM    2  C           1     -17.382  10.255   4.909  0.00  0.00     0.249 C 
HETATM    3  N           1     -16.023  10.104   4.817  0.00  0.00    -0.344 N 
HETATM    4  O           1     -17.848  11.301   5.292  0.00  0.00    -0.271 OA
ENDROOT
BRANCH   3   5
HETATM    5  C           1     -15.271   9.606   5.952  0.00  0.00     0.189 C 
BRANCH   5   6
HETATM    6  C           1     -14.547  10.752   6.614  0.00  0.00     0.197 C 
HETATM    7  O           1     -15.086  11.879   6.678  0.00  0.00    -0.646 OA
HETATM    8  O           1     -13.409  10.576   7.101  0.00  0.00    -0.646 OA
ENDBRANCH   5   6
BRANCH   5   9
HETATM    9  C           1     -14.258   8.574   5.476  0.00  0.00     0.074 C 
BRANCH   9  10
HETATM   10  C           1     -14.125   8.655   3.986  0.00  0.00    -0.056 A 
HETATM   11  C           1     -13.301   9.623   3.412  0.00  0.00     0.007 A 
HETATM   12  C           1     -13.177   9.698   2.024  0.00  0.00     0.001 A 
HETATM   13  C           1     -13.877   8.808   1.211  0.00  0.00     0.000 A 
HETATM   14  C           1     -14.703   7.841   1.786  0.00  0.00     0.001 A 
HETATM   15  C           1     -14.827   7.764   3.173  0.00  0.00     0.007 A 
ENDBRANCH   9  10
ENDBRANCH   5   9
ENDBRANCH   3   5
BRANCH   2  16
HETATM   16  C           1     -18.295   9.114   4.533  0.00  0.00     0.278 C 
BRANCH  16  17
HETATM   17  C           1     -18.960   9.414   3.196  0.00  0.00     0.021 C 
HETATM   18  C           1     -17.901   9.463   2.102  0.00  0.00     0.012 C 
BRANCH  17  19
HETATM   19  C           1     -19.970   8.321   2.876  0.00  0.00     0.002 C 
HETATM   20  C           1     -21.289   8.956   2.455  0.00  0.00     0.005 C 
ENDBRANCH  17  19
ENDBRANCH  16  17
BRANCH  16  21
HETATM   21  N           1     -19.347   8.948   5.588  0.00  0.00    -0.066 N 
HETATM   22  H           1     -20.156   8.415   5.195  0.00  0.00     0.275 HD
HETATM   23  H           1     -18.947   8.424   6.400  0.00  0.00     0.275 HD
HETATM   24  H           1     -19.673   9.889   5.907  0.00  0.00     0.275 HD
ENDBRANCH  16  21
ENDBRANCH   2  16
TORSDOF 8
ENDMDL
MODEL 9
REMARK VINA RESULT:      -5.4      4.109      5.906
REMARK  8 active torsions:
REMARK  status: ('A' for Active; 'I' for Inactive)
REMARK    1  A    between atoms: C_1  and  C_20 
REMARK    2  A    between atoms: C_5  and  C_6 
REMARK    3  A    between atoms: C_5  and  C_16 
REMARK    4  A    between atoms: C_6  and  C_7 
REMARK    5  A    between atoms: C_6  and  N_13 
REMARK       I    between atoms: C_7  and  N_8 
REMARK    6  A    between atoms: N_8  and  C_20 
REMARK    7  A    between atoms: C_20  and  C_21 
REMARK    8  A    between atoms: C_21  and  C_22 
ROOT
HETATM    1  H           1     -21.284 -12.692   0.539  0.00  0.00     0.163 HD
HETATM    2  C           1     -21.119 -13.312  -1.430  0.00  0.00     0.249 C 
HETATM    3  N           1     -20.863 -12.495  -0.361  0.00  0.00    -0.344 N 
HETATM    4  O           1     -20.407 -14.264  -1.646  0.00  0.00    -0.271 OA
ENDROOT
BRANCH   3   5
HETATM    5  C           1     -19.991 -11.347  -0.518  0.00  0.00     0.189 C 
BRANCH   5   6
HETATM    6  C           1     -18.554 -11.790  -0.391  0.00  0.00     0.197 C 
HETATM    7  O           1     -18.140 -12.269   0.688  0.00  0.00    -0.646 OA
HETATM    8  O           1     -17.777 -11.678  -1.363  0.00  0.00    -0.646 OA
ENDBRANCH   5   6
BRANCH   5   9
HETATM    9  C           1     -20.303 -10.321   0.562  0.00  0.00     0.074 C 
BRANCH   9  10
HETATM   10  C           1     -20.988  -9.140  -0.054  0.00  0.00    -0.056 A 
HETATM   11  C           1     -22.012  -8.490   0.635  0.00  0.00     0.007 A 
HETATM   12  C           1     -22.650  -7.390   0.061  0.00  0.00     0.001 A 
HETATM   13  C           1     -22.265  -6.941  -1.201  0.00  0.00     0.000 A 
HETATM   14  C           1     -21.242  -7.591  -1.891  0.00  0.00     0.001 A 
HETATM   15  C           1     -20.603  -8.691  -1.318  0.00  0.00     0.007 A 
ENDBRANCH   9  10
ENDBRANCH   5   9
ENDBRANCH   3   5
BRANCH   2  16
HETATM   16  C           1     -22.288 -13.023  -2.338  0.00  0.00     0.278 C 
BRANCH  16  17
HETATM   17  C           1     -22.805 -11.615  -2.071  0.00  0.00     0.021 C 
HETATM   18  C           1     -22.882 -10.845  -3.383  0.00  0.00     0.012 C 
BRANCH  17  19
HETATM   19  C           1     -24.191 -11.695  -1.446  0.00  0.00     0.002 C 
HETATM   20  C           1     -24.155 -11.080  -0.052  0.00  0.00     0.005 C 
ENDBRANCH  17  19
ENDBRANCH  16  17
BRANCH  16  21
HETATM   21  N           1     -23.382 -14.015  -2.075  0.00  0.00    -0.066 N 
HETATM   22  H           1     -23.357 -14.304  -1.071  0.00  0.00     0.275 HD
HETATM   23  H           1     -24.308 -13.577  -2.287  0.00  0.00     0.275 HD
HETATM   24  H           1     -23.246 -14.853  -2.683  0.00  0.00     0.275 HD
ENDBRANCH  16  21
ENDBRANCH   2  16
TORSDOF 8
ENDMDL
