MODEL 1
REMARK VINA RESULT:      -5.6      0.000      0.000
REMARK  9 active torsions:
REMARK  status: ('A' for Active; 'I' for Inactive)
REMARK    1  A    between atoms: O_2  and  C_3 
REMARK    2  A    between atoms: C_3  and  C_17 
REMARK    3  A    between atoms: C_4  and  C_5 
REMARK    4  A    between atoms: C_5  and  C_15 
REMARK    5  A    between atoms: C_5  and  N_7 
REMARK       I    between atoms: N_7  and  C_14 
REMARK    6  A    between atoms: N_10  and  C_17 
REMARK    7  A    between atoms: S_12  and  C_13 
REMARK    8  A    between atoms: C_13  and  C_15 
REMARK    9  A    between atoms: C_14  and  C_17 
ROOT
HETATM    1  N           1     -34.874  -1.906 -12.511  0.00  0.00    -0.345 N 
HETATM    2  H           1     -35.441  -2.217 -13.290  0.00  0.00     0.163 HD
HETATM    3  C           1     -33.962  -2.756 -11.946  0.00  0.00     0.251 C 
HETATM    4  O           1     -33.285  -2.385 -11.016  0.00  0.00    -0.271 OA
ENDROOT
BRANCH   3   5
HETATM    5  C           1     -33.802  -4.157 -12.483  0.00  0.00     0.302 C 
BRANCH   5   6
HETATM    6  C           1     -34.795  -5.082 -11.793  0.00  0.00     0.153 C 
HETATM    7  C           1     -34.051  -5.992 -10.823  0.00  0.00     0.042 C 
BRANCH   6   8
HETATM    8  O           1     -35.735  -4.318 -11.087  0.00  0.00    -0.393 OA
HETATM    9  H           1     -36.194  -3.795 -11.721  0.00  0.00     0.210 HD
ENDBRANCH   6   8
ENDBRANCH   5   6
BRANCH   5  10
HETATM   10  N           1     -32.405  -4.637 -12.219  0.00  0.00    -0.064 N 
HETATM   11  H           1     -32.144  -4.424 -11.229  0.00  0.00     0.275 HD
HETATM   12  H           1     -32.356  -5.669 -12.378  0.00  0.00     0.275 HD
HETATM   13  H           1     -31.742  -4.153 -12.866  0.00  0.00     0.275 HD
ENDBRANCH   5  10
ENDBRANCH   3   5
BRANCH   1  14
HETATM   14  C           1     -35.027  -0.560 -11.994  0.00  0.00     0.186 C 
BRANCH  14  15
HETATM   15  C           1     -36.221  -0.508 -11.074  0.00  0.00     0.196 C 
HETATM   16  O           1     -36.971  -1.503 -10.965  0.00  0.00    -0.646 OA
HETATM   17  O           1     -36.462   0.530 -10.420  0.00  0.00    -0.646 OA
ENDBRANCH  14  15
BRANCH  14  18
HETATM   18  C           1     -35.235   0.407 -13.153  0.00  0.00     0.046 C 
BRANCH  18  19
HETATM   19  C           1     -36.440  -0.035 -13.974  0.00  0.00     0.076 C 
BRANCH  19  20
HETATM   20  S           1     -36.260   0.558 -15.680  0.00  0.00    -0.173 SA
HETATM   21  C           1     -35.679  -1.015 -16.377  0.00  0.00     0.089 C 
ENDBRANCH  19  20
ENDBRANCH  18  19
ENDBRANCH  14  18
ENDBRANCH   1  14
TORSDOF 9
ENDMDL
MODEL 2
REMARK VINA RESULT:      -5.5      2.775      5.364
REMARK  9 active torsions:
REMARK  status: ('A' for Active; 'I' for Inactive)
REMARK    1  A    between atoms: O_2  and  C_3 
REMARK    2  A    between atoms: C_3  and  C_17 
REMARK    3  A    between atoms: C_4  and  C_5 
REMARK    4  A    between atoms: C_5  and  C_15 
REMARK    5  A    between atoms: C_5  and  N_7 
REMARK       I    between atoms: N_7  and  C_14 
REMARK    6  A    between atoms: N_10  and  C_17 
REMARK    7  A    between atoms: S_12  and  C_13 
REMARK    8  A    between atoms: C_13  and  C_15 
REMARK    9  A    between atoms: C_14  and  C_17 
ROOT
HETATM    1  N           1     -34.881  -1.431 -13.257  0.00  0.00    -0.345 N 
HETATM    2  H           1     -34.004  -1.244 -13.725  0.00  0.00     0.163 HD
HETATM    3  C           1     -36.004  -0.727 -13.600  0.00  0.00     0.251 C 
HETATM    4  O           1     -37.052  -0.950 -13.041  0.00  0.00    -0.271 OA
ENDROOT
BRANCH   3   5
HETATM    5  C           1     -35.933   0.328 -14.676  0.00  0.00     0.302 C 
BRANCH   5   6
HETATM    6  C           1     -36.552  -0.211 -15.958  0.00  0.00     0.153 C 
HETATM    7  C           1     -35.592  -1.198 -16.610  0.00  0.00     0.042 C 
BRANCH   6   8
HETATM    8  O           1     -37.757  -0.863 -15.658  0.00  0.00    -0.393 OA
HETATM    9  H           1     -38.447  -0.236 -15.790  0.00  0.00     0.210 HD
ENDBRANCH   6   8
ENDBRANCH   5   6
BRANCH   5  10
HETATM   10  N           1     -34.498   0.689 -14.929  0.00  0.00    -0.064 N 
HETATM   11  H           1     -34.454   1.520 -15.561  0.00  0.00     0.275 HD
HETATM   12  H           1     -34.032   0.916 -14.021  0.00  0.00     0.275 HD
HETATM   13  H           1     -34.010  -0.118 -15.380  0.00  0.00     0.275 HD
ENDBRANCH   5  10
ENDBRANCH   3   5
BRANCH   1  14
HETATM   14  C           1     -34.950  -2.444 -12.222  0.00  0.00     0.186 C 
BRANCH  14  15
HETATM   15  C           1     -34.424  -1.877 -10.926  0.00  0.00     0.196 C 
HETATM   16  O           1     -35.208  -1.330 -10.120  0.00  0.00    -0.646 OA
HETATM   17  O           1     -33.205  -1.953 -10.660  0.00  0.00    -0.646 OA
ENDBRANCH  14  15
BRANCH  14  18
HETATM   18  C           1     -34.106  -3.645 -12.631  0.00  0.00     0.046 C 
BRANCH  18  19
HETATM   19  C           1     -34.761  -4.923 -12.123  0.00  0.00     0.076 C 
BRANCH  19  20
HETATM   20  S           1     -33.645  -5.753 -10.957  0.00  0.00    -0.173 SA
HETATM   21  C           1     -34.806  -7.057 -10.463  0.00  0.00     0.089 C 
ENDBRANCH  19  20
ENDBRANCH  18  19
ENDBRANCH  14  18
ENDBRANCH   1  14
TORSDOF 9
ENDMDL
MODEL 3
REMARK VINA RESULT:      -5.5     10.480     12.091
REMARK  9 active torsions:
REMARK  status: ('A' for Active; 'I' for Inactive)
REMARK    1  A    between atoms: O_2  and  C_3 
REMARK    2  A    between atoms: C_3  and  C_17 
REMARK    3  A    between atoms: C_4  and  C_5 
REMARK    4  A    between atoms: C_5  and  C_15 
REMARK    5  A    between atoms: C_5  and  N_7 
REMARK       I    between atoms: N_7  and  C_14 
REMARK    6  A    between atoms: N_10  and  C_17 
REMARK    7  A    between atoms: S_12  and  C_13 
REMARK    8  A    between atoms: C_13  and  C_15 
REMARK    9  A    between atoms: C_14  and  C_17 
ROOT
HETATM    1  N           1     -26.445  -6.636 -18.208  0.00  0.00    -0.345 N 
HETATM    2  H           1     -27.320  -6.927 -18.625  0.00  0.00     0.163 HD
HETATM    3  C           1     -25.264  -6.866 -18.861  0.00  0.00     0.251 C 
HETATM    4  O           1     -24.220  -6.518 -18.362  0.00  0.00    -0.271 OA
ENDROOT
BRANCH   3   5
HETATM    5  C           1     -25.267  -7.554 -20.204  0.00  0.00     0.302 C 
BRANCH   5   6
HETATM    6  C           1     -24.542  -6.683 -21.222  0.00  0.00     0.153 C 
HETATM    7  C           1     -24.221  -7.511 -22.460  0.00  0.00     0.042 C 
BRANCH   6   8
HETATM    8  O           1     -25.361  -5.604 -21.582  0.00  0.00    -0.393 OA
HETATM    9  H           1     -26.244  -5.843 -21.357  0.00  0.00     0.210 HD
ENDBRANCH   6   8
ENDBRANCH   5   6
BRANCH   5  10
HETATM   10  N           1     -26.682  -7.772 -20.651  0.00  0.00    -0.064 N 
HETATM   11  H           1     -26.839  -7.286 -21.563  0.00  0.00     0.275 HD
HETATM   12  H           1     -26.856  -8.796 -20.767  0.00  0.00     0.275 HD
HETATM   13  H           1     -27.337  -7.386 -19.934  0.00  0.00     0.275 HD
ENDBRANCH   5  10
ENDBRANCH   3   5
BRANCH   1  14
HETATM   14  C           1     -26.443  -5.975 -16.917  0.00  0.00     0.186 C 
BRANCH  14  15
HETATM   15  C           1     -26.452  -7.012 -15.821  0.00  0.00     0.196 C 
HETATM   16  O           1     -27.539  -7.425 -15.360  0.00  0.00    -0.646 OA
HETATM   17  O           1     -25.373  -7.458 -15.373  0.00  0.00    -0.646 OA
ENDBRANCH  14  15
BRANCH  14  18
HETATM   18  C           1     -27.680  -5.095 -16.796  0.00  0.00     0.046 C 
BRANCH  18  19
HETATM   19  C           1     -28.571  -5.299 -18.015  0.00  0.00     0.076 C 
BRANCH  19  20
HETATM   20  S           1     -30.173  -5.971 -17.489  0.00  0.00    -0.173 SA
HETATM   21  C           1     -29.958  -7.609 -18.241  0.00  0.00     0.089 C 
ENDBRANCH  19  20
ENDBRANCH  18  19
ENDBRANCH  14  18
ENDBRANCH   1  14
TORSDOF 9
ENDMDL
MODEL 4
REMARK VINA RESULT:      -5.2      3.017      5.160
REMARK  9 active torsions:
REMARK  status: ('A' for Active; 'I' for Inactive)
REMARK    1  A    between atoms: O_2  and  C_3 
REMARK    2  A    between atoms: C_3  and  C_17 
REMARK    3  A    between atoms: C_4  and  C_5 
REMARK    4  A    between atoms: C_5  and  C_15 
REMARK    5  A    between atoms: C_5  and  N_7 
REMARK       I    between atoms: N_7  and  C_14 
REMARK    6  A    between atoms: N_10  and  C_17 
REMARK    7  A    between atoms: S_12  and  C_13 
REMARK    8  A    between atoms: C_13  and  C_15 
REMARK    9  A    between atoms: C_14  and  C_17 
ROOT
HETATM    1  N           1     -36.162  -0.100 -13.064  0.00  0.00    -0.345 N 
HETATM    2  H           1     -35.336   0.472 -13.186  0.00  0.00     0.163 HD
HETATM    3  C           1     -37.089  -0.188 -14.068  0.00  0.00     0.251 C 
HETATM    4  O           1     -38.075  -0.871 -13.922  0.00  0.00    -0.271 OA
ENDROOT
BRANCH   3   5
HETATM    5  C           1     -36.880   0.569 -15.356  0.00  0.00     0.302 C 
BRANCH   5   6
HETATM    6  C           1     -36.701  -0.418 -16.502  0.00  0.00     0.153 C 
HETATM    7  C           1     -35.462  -1.268 -16.250  0.00  0.00     0.042 C 
BRANCH   6   8
HETATM    8  O           1     -37.827  -1.249 -16.584  0.00  0.00    -0.393 OA
HETATM    9  H           1     -37.632  -2.025 -16.089  0.00  0.00     0.210 HD
ENDBRANCH   6   8
ENDBRANCH   5   6
BRANCH   5  10
HETATM   10  N           1     -35.653   1.425 -15.239  0.00  0.00    -0.064 N 
HETATM   11  H           1     -35.390   1.790 -16.183  0.00  0.00     0.275 HD
HETATM   12  H           1     -35.849   2.227 -14.597  0.00  0.00     0.275 HD
HETATM   13  H           1     -34.866   0.855 -14.855  0.00  0.00     0.275 HD
ENDBRANCH   5  10
ENDBRANCH   3   5
BRANCH   1  14
HETATM   14  C           1     -36.364  -0.827 -11.826  0.00  0.00     0.186 C 
BRANCH  14  15
HETATM   15  C           1     -36.909   0.110 -10.776  0.00  0.00     0.196 C 
HETATM   16  O           1     -36.194   0.443  -9.805  0.00  0.00    -0.646 OA
HETATM   17  O           1     -38.074   0.552 -10.876  0.00  0.00    -0.646 OA
ENDBRANCH  14  15
BRANCH  14  18
HETATM   18  C           1     -35.036  -1.403 -11.354  0.00  0.00     0.046 C 
BRANCH  18  19
HETATM   19  C           1     -34.769  -2.720 -12.073  0.00  0.00     0.076 C 
BRANCH  19  20
HETATM   20  S           1     -33.203  -3.425 -11.484  0.00  0.00    -0.173 SA
HETATM   21  C           1     -33.923  -4.917 -10.742  0.00  0.00     0.089 C 
ENDBRANCH  19  20
ENDBRANCH  18  19
ENDBRANCH  14  18
ENDBRANCH   1  14
TORSDOF 9
ENDMDL
MODEL 5
REMARK VINA RESULT:      -5.0      8.378     10.187
REMARK  9 active torsions:
REMARK  status: ('A' for Active; 'I' for Inactive)
REMARK    1  A    between atoms: O_2  and  C_3 
REMARK    2  A    between atoms: C_3  and  C_17 
REMARK    3  A    between atoms: C_4  and  C_5 
REMARK    4  A    between atoms: C_5  and  C_15 
REMARK    5  A    between atoms: C_5  and  N_7 
REMARK       I    between atoms: N_7  and  C_14 
REMARK    6  A    between atoms: N_10  and  C_17 
REMARK    7  A    between atoms: S_12  and  C_13 
REMARK    8  A    between atoms: C_13  and  C_15 
REMARK    9  A    between atoms: C_14  and  C_17 
ROOT
HETATM    1  N           1     -28.461  -5.370 -16.731  0.00  0.00    -0.345 N 
HETATM    2  H           1     -28.063  -4.666 -16.123  0.00  0.00     0.163 HD
HETATM    3  C           1     -29.707  -5.187 -17.268  0.00  0.00     0.251 C 
HETATM    4  O           1     -30.182  -6.028 -17.994  0.00  0.00    -0.271 OA
ENDROOT
BRANCH   3   5
HETATM    5  C           1     -30.487  -3.935 -16.953  0.00  0.00     0.302 C 
BRANCH   5   6
HETATM    6  C           1     -31.935  -4.115 -17.387  0.00  0.00     0.153 C 
HETATM    7  C           1     -32.745  -4.684 -16.229  0.00  0.00     0.042 C 
BRANCH   6   8
HETATM    8  O           1     -32.469  -2.875 -17.765  0.00  0.00    -0.393 OA
HETATM    9  H           1     -33.406  -2.957 -17.725  0.00  0.00     0.210 HD
ENDBRANCH   6   8
ENDBRANCH   5   6
BRANCH   5  10
HETATM   10  N           1     -29.886  -2.773 -17.688  0.00  0.00    -0.064 N 
HETATM   11  H           1     -30.552  -2.444 -18.423  0.00  0.00     0.275 HD
HETATM   12  H           1     -29.697  -1.996 -17.016  0.00  0.00     0.275 HD
HETATM   13  H           1     -28.991  -3.072 -18.138  0.00  0.00     0.275 HD
ENDBRANCH   5  10
ENDBRANCH   3   5
BRANCH   1  14
HETATM   14  C           1     -27.712  -6.574 -17.034  0.00  0.00     0.186 C 
BRANCH  14  15
HETATM   15  C           1     -27.190  -7.178 -15.753  0.00  0.00     0.196 C 
HETATM   16  O           1     -27.990  -7.602 -14.891  0.00  0.00    -0.646 OA
HETATM   17  O           1     -25.958  -7.253 -15.554  0.00  0.00    -0.646 OA
ENDBRANCH  14  15
BRANCH  14  18
HETATM   18  C           1     -26.542  -6.228 -17.947  0.00  0.00     0.046 C 
BRANCH  18  19
HETATM   19  C           1     -26.931  -6.495 -19.395  0.00  0.00     0.076 C 
BRANCH  19  20
HETATM   20  S           1     -25.444  -6.892 -20.358  0.00  0.00    -0.173 SA
HETATM   21  C           1     -24.335  -7.096 -18.936  0.00  0.00     0.089 C 
ENDBRANCH  19  20
ENDBRANCH  18  19
ENDBRANCH  14  18
ENDBRANCH   1  14
TORSDOF 9
ENDMDL
MODEL 6
REMARK VINA RESULT:      -4.8      2.872      5.391
REMARK  9 active torsions:
REMARK  status: ('A' for Active; 'I' for Inactive)
REMARK    1  A    between atoms: O_2  and  C_3 
REMARK    2  A    between atoms: C_3  and  C_17 
REMARK    3  A    between atoms: C_4  and  C_5 
REMARK    4  A    between atoms: C_5  and  C_15 
REMARK    5  A    between atoms: C_5  and  N_7 
REMARK       I    between atoms: N_7  and  C_14 
REMARK    6  A    between atoms: N_10  and  C_17 
REMARK    7  A    between atoms: S_12  and  C_13 
REMARK    8  A    between atoms: C_13  and  C_15 
REMARK    9  A    between atoms: C_14  and  C_17 
ROOT
HETATM    1  N           1     -34.947  -1.243 -13.512  0.00  0.00    -0.345 N 
HETATM    2  H           1     -33.984  -1.105 -13.791  0.00  0.00     0.163 HD
HETATM    3  C           1     -35.964  -0.800 -14.315  0.00  0.00     0.251 C 
HETATM    4  O           1     -37.113  -0.965 -13.981  0.00  0.00    -0.271 OA
ENDROOT
BRANCH   3   5
HETATM    5  C           1     -35.648  -0.107 -15.618  0.00  0.00     0.302 C 
BRANCH   5   6
HETATM    6  C           1     -35.174   1.312 -15.336  0.00  0.00     0.153 C 
HETATM    7  C           1     -36.090   2.303 -16.043  0.00  0.00     0.042 C 
BRANCH   6   8
HETATM    8  O           1     -35.206   1.552 -13.955  0.00  0.00    -0.393 OA
HETATM    9  H           1     -34.314   1.543 -13.655  0.00  0.00     0.210 HD
ENDBRANCH   6   8
ENDBRANCH   5   6
BRANCH   5  10
HETATM   10  N           1     -36.882  -0.061 -16.470  0.00  0.00    -0.064 N 
HETATM   11  H           1     -37.279  -1.023 -16.563  0.00  0.00     0.275 HD
HETATM   12  H           1     -37.589   0.567 -16.025  0.00  0.00     0.275 HD
HETATM   13  H           1     -36.637   0.307 -17.418  0.00  0.00     0.275 HD
ENDBRANCH   5  10
ENDBRANCH   3   5
BRANCH   1  14
HETATM   14  C           1     -35.251  -1.909 -12.260  0.00  0.00     0.186 C 
BRANCH  14  15
HETATM   15  C           1     -35.999  -0.961 -11.355  0.00  0.00     0.196 C 
HETATM   16  O           1     -37.041  -1.341 -10.776  0.00  0.00    -0.646 OA
HETATM   17  O           1     -35.577   0.203 -11.183  0.00  0.00    -0.646 OA
ENDBRANCH  14  15
BRANCH  14  18
HETATM   18  C           1     -33.953  -2.338 -11.587  0.00  0.00     0.046 C 
BRANCH  18  19
HETATM   19  C           1     -34.237  -3.479 -10.617  0.00  0.00     0.076 C 
BRANCH  19  20
HETATM   20  S           1     -33.465  -5.002 -11.232  0.00  0.00    -0.173 SA
HETATM   21  C           1     -34.832  -5.491 -12.322  0.00  0.00     0.089 C 
ENDBRANCH  19  20
ENDBRANCH  18  19
ENDBRANCH  14  18
ENDBRANCH   1  14
TORSDOF 9
ENDMDL
MODEL 7
REMARK VINA RESULT:      -4.7     10.789     12.347
REMARK  9 active torsions:
REMARK  status: ('A' for Active; 'I' for Inactive)
REMARK    1  A    between atoms: O_2  and  C_3 
REMARK    2  A    between atoms: C_3  and  C_17 
REMARK    3  A    between atoms: C_4  and  C_5 
REMARK    4  A    between atoms: C_5  and  C_15 
REMARK    5  A    between atoms: C_5  and  N_7 
REMARK       I    between atoms: N_7  and  C_14 
REMARK    6  A    between atoms: N_10  and  C_17 
REMARK    7  A    between atoms: S_12  and  C_13 
REMARK    8  A    between atoms: C_13  and  C_15 
REMARK    9  A    between atoms: C_14  and  C_17 
ROOT
HETATM    1  N           1     -27.109  -6.747 -18.839  0.00  0.00    -0.345 N 
HETATM    2  H           1     -26.469  -7.350 -18.337  0.00  0.00     0.163 HD
HETATM    3  C           1     -27.890  -5.856 -18.154  0.00  0.00     0.251 C 
HETATM    4  O           1     -28.653  -5.136 -18.753  0.00  0.00    -0.271 OA
ENDROOT
BRANCH   3   5
HETATM    5  C           1     -27.799  -5.773 -16.650  0.00  0.00     0.302 C 
BRANCH   5   6
HETATM    6  C           1     -27.092  -7.011 -16.115  0.00  0.00     0.153 C 
HETATM    7  C           1     -25.672  -6.646 -15.702  0.00  0.00     0.042 C 
BRANCH   6   8
HETATM    8  O           1     -27.789  -7.503 -15.002  0.00  0.00    -0.393 OA
HETATM    9  H           1     -28.514  -6.921 -14.853  0.00  0.00     0.210 HD
ENDBRANCH   6   8
ENDBRANCH   5   6
BRANCH   5  10
HETATM   10  N           1     -29.180  -5.696 -16.069  0.00  0.00    -0.064 N 
HETATM   11  H           1     -29.235  -6.300 -15.218  0.00  0.00     0.275 HD
HETATM   12  H           1     -29.392  -4.706 -15.808  0.00  0.00     0.275 HD
HETATM   13  H           1     -29.875  -6.026 -16.777  0.00  0.00     0.275 HD
ENDBRANCH   5  10
ENDBRANCH   3   5
BRANCH   1  14
HETATM   14  C           1     -27.197  -6.827 -20.284  0.00  0.00     0.186 C 
BRANCH  14  15
HETATM   15  C           1     -27.709  -8.189 -20.682  0.00  0.00     0.196 C 
HETATM   16  O           1     -27.127  -8.838 -21.578  0.00  0.00    -0.646 OA
HETATM   17  O           1     -28.716  -8.668 -20.116  0.00  0.00    -0.646 OA
ENDBRANCH  14  15
BRANCH  14  18
HETATM   18  C           1     -25.817  -6.605 -20.889  0.00  0.00     0.046 C 
BRANCH  18  19
HETATM   19  C           1     -24.751  -7.108 -19.923  0.00  0.00     0.076 C 
BRANCH  19  20
HETATM   20  S           1     -23.581  -8.172 -20.814  0.00  0.00    -0.173 SA
HETATM   21  C           1     -24.036  -7.616 -22.481  0.00  0.00     0.089 C 
ENDBRANCH  19  20
ENDBRANCH  18  19
ENDBRANCH  14  18
ENDBRANCH   1  14
TORSDOF 9
ENDMDL
MODEL 8
REMARK VINA RESULT:      -4.7     15.601     17.335
REMARK  9 active torsions:
REMARK  status: ('A' for Active; 'I' for Inactive)
REMARK    1  A    between atoms: O_2  and  C_3 
REMARK    2  A    between atoms: C_3  and  C_17 
REMARK    3  A    between atoms: C_4  and  C_5 
REMARK    4  A    between atoms: C_5  and  C_15 
REMARK    5  A    between atoms: C_5  and  N_7 
REMARK       I    between atoms: N_7  and  C_14 
REMARK    6  A    between atoms: N_10  and  C_17 
REMARK    7  A    between atoms: S_12  and  C_13 
REMARK    8  A    between atoms: C_13  and  C_15 
REMARK    9  A    between atoms: C_14  and  C_17 
ROOT
HETATM    1  N           1     -21.405  -6.410  -5.532  0.00  0.00    -0.345 N 
HETATM    2  H           1     -22.091  -6.961  -6.032  0.00  0.00     0.163 HD
HETATM    3  C           1     -21.076  -5.157  -5.976  0.00  0.00     0.251 C 
HETATM    4  O           1     -20.258  -4.500  -5.378  0.00  0.00    -0.271 OA
ENDROOT
BRANCH   3   5
HETATM    5  C           1     -21.735  -4.599  -7.213  0.00  0.00     0.302 C 
BRANCH   5   6
HETATM    6  C           1     -21.058  -5.171  -8.452  0.00  0.00     0.153 C 
HETATM    7  C           1     -20.506  -4.033  -9.300  0.00  0.00     0.042 C 
BRANCH   6   8
HETATM    8  O           1     -20.009  -6.015  -8.064  0.00  0.00    -0.393 OA
HETATM    9  H           1     -19.938  -6.685  -8.723  0.00  0.00     0.210 HD
ENDBRANCH   6   8
ENDBRANCH   5   6
BRANCH   5  10
HETATM   10  N           1     -21.602  -3.104  -7.218  0.00  0.00    -0.064 N 
HETATM   11  H           1     -22.545  -2.671  -7.340  0.00  0.00     0.275 HD
HETATM   12  H           1     -21.188  -2.789  -6.312  0.00  0.00     0.275 HD
HETATM   13  H           1     -20.980  -2.812  -8.006  0.00  0.00     0.275 HD
ENDBRANCH   5  10
ENDBRANCH   3   5
BRANCH   1  14
HETATM   14  C           1     -20.771  -6.946  -4.343  0.00  0.00     0.186 C 
BRANCH  14  15
HETATM   15  C           1     -19.947  -8.154  -4.714  0.00  0.00     0.196 C 
HETATM   16  O           1     -19.808  -9.091  -3.897  0.00  0.00    -0.646 OA
HETATM   17  O           1     -19.403  -8.219  -5.838  0.00  0.00    -0.646 OA
ENDBRANCH  14  15
BRANCH  14  18
HETATM   18  C           1     -21.841  -7.350  -3.337  0.00  0.00     0.046 C 
BRANCH  18  19
HETATM   19  C           1     -21.888  -6.328  -2.207  0.00  0.00     0.076 C 
BRANCH  19  20
HETATM   20  S           1     -22.364  -7.154  -0.663  0.00  0.00    -0.173 SA
HETATM   21  C           1     -20.993  -8.343  -0.642  0.00  0.00     0.089 C 
ENDBRANCH  19  20
ENDBRANCH  18  19
ENDBRANCH  14  18
ENDBRANCH   1  14
TORSDOF 9
ENDMDL
MODEL 9
REMARK VINA RESULT:      -4.4     10.861     12.461
REMARK  9 active torsions:
REMARK  status: ('A' for Active; 'I' for Inactive)
REMARK    1  A    between atoms: O_2  and  C_3 
REMARK    2  A    between atoms: C_3  and  C_17 
REMARK    3  A    between atoms: C_4  and  C_5 
REMARK    4  A    between atoms: C_5  and  C_15 
REMARK    5  A    between atoms: C_5  and  N_7 
REMARK       I    between atoms: N_7  and  C_14 
REMARK    6  A    between atoms: N_10  and  C_17 
REMARK    7  A    between atoms: S_12  and  C_13 
REMARK    8  A    between atoms: C_13  and  C_15 
REMARK    9  A    between atoms: C_14  and  C_17 
ROOT
HETATM    1  N           1     -27.118  -6.841 -18.916  0.00  0.00    -0.345 N 
HETATM    2  H           1     -26.680  -7.386 -18.184  0.00  0.00     0.163 HD
HETATM    3  C           1     -27.994  -5.840 -18.593  0.00  0.00     0.251 C 
HETATM    4  O           1     -28.516  -5.189 -19.467  0.00  0.00    -0.271 OA
ENDROOT
BRANCH   3   5
HETATM    5  C           1     -28.308  -5.550 -17.146  0.00  0.00     0.302 C 
BRANCH   5   6
HETATM    6  C           1     -29.603  -6.249 -16.757  0.00  0.00     0.153 C 
HETATM    7  C           1     -30.741  -5.237 -16.739  0.00  0.00     0.042 C 
BRANCH   6   8
HETATM    8  O           1     -29.890  -7.256 -17.689  0.00  0.00    -0.393 OA
HETATM    9  H           1     -30.568  -7.792 -17.314  0.00  0.00     0.210 HD
ENDBRANCH   6   8
ENDBRANCH   5   6
BRANCH   5  10
HETATM   10  N           1     -28.464  -4.069 -16.956  0.00  0.00    -0.064 N 
HETATM   11  H           1     -28.444  -3.594 -17.886  0.00  0.00     0.275 HD
HETATM   12  H           1     -29.376  -3.874 -16.484  0.00  0.00     0.275 HD
HETATM   13  H           1     -27.680  -3.710 -16.364  0.00  0.00     0.275 HD
ENDBRANCH   5  10
ENDBRANCH   3   5
BRANCH   1  14
HETATM   14  C           1     -26.817  -7.120 -20.307  0.00  0.00     0.186 C 
BRANCH  14  15
HETATM   15  C           1     -27.615  -8.316 -20.764  0.00  0.00     0.196 C 
HETATM   16  O           1     -28.695  -8.600 -20.201  0.00  0.00    -0.646 OA
HETATM   17  O           1     -27.196  -9.024 -21.705  0.00  0.00    -0.646 OA
ENDBRANCH  14  15
BRANCH  14  18
HETATM   18  C           1     -25.329  -7.413 -20.454  0.00  0.00     0.046 C 
BRANCH  18  19
HETATM   19  C           1     -24.781  -6.668 -21.664  0.00  0.00     0.076 C 
BRANCH  19  20
HETATM   20  S           1     -23.823  -7.812 -22.698  0.00  0.00    -0.173 SA
HETATM   21  C           1     -22.783  -8.463 -21.361  0.00  0.00     0.089 C 
ENDBRANCH  19  20
ENDBRANCH  18  19
ENDBRANCH  14  18
ENDBRANCH   1  14
TORSDOF 9
ENDMDL
