MODEL 1
REMARK VINA RESULT:      -6.5      0.000      0.000
REMARK  8 active torsions:
REMARK  status: ('A' for Active; 'I' for Inactive)
REMARK    1  A    between atoms: O_2  and  C_21 
REMARK    2  A    between atoms: O_2  and  P_3 
REMARK    3  A    between atoms: P_3  and  O_16 
REMARK    4  A    between atoms: N_10  and  C_12 
REMARK    5  A    between atoms: C_12  and  C_13 
REMARK       I    between atoms: C_13  and  N_14 
REMARK    6  A    between atoms: N_14  and  C_20 
REMARK    7  A    between atoms: C_18  and  C_20 
REMARK    8  A    between atoms: C_20  and  C_21 
ROOT
HETATM    1  C           1     -34.988  -0.359 -12.419  0.00  0.00     0.210 C 
ENDROOT
BRANCH   1   2
HETATM    2  N           1     -34.835  -1.742 -12.824  0.00  0.00    -0.343 N 
HETATM    3  H           1     -35.277  -2.072 -13.672  0.00  0.00     0.163 HD
HETATM    4  C           1     -34.090  -2.601 -12.061  0.00  0.00     0.248 C 
HETATM    5  O           1     -33.562  -2.206 -11.050  0.00  0.00    -0.271 OA
BRANCH   4   6
HETATM    6  C           1     -33.931  -4.041 -12.483  0.00  0.00     0.270 C 
HETATM    7  C           1     -32.706  -4.638 -11.803  0.00  0.00     0.050 C 
BRANCH   6   8
HETATM    8  N           1     -33.756  -4.108 -13.972  0.00  0.00    -0.067 N 
HETATM    9  H           1     -33.488  -3.165 -14.335  0.00  0.00     0.275 HD
HETATM   10  H           1     -33.006  -4.797 -14.204  0.00  0.00     0.275 HD
HETATM   11  H           1     -34.655  -4.408 -14.414  0.00  0.00     0.275 HD
ENDBRANCH   6   8
ENDBRANCH   4   6
ENDBRANCH   1   2
BRANCH   1  12
HETATM   12  C           1     -36.247  -0.211 -11.601  0.00  0.00     0.198 C 
HETATM   13  O           1     -37.278  -0.842 -11.920  0.00  0.00    -0.646 OA
HETATM   14  O           1     -36.260   0.543 -10.604  0.00  0.00    -0.646 OA
ENDBRANCH   1  12
BRANCH   1  15
HETATM   15  C           1     -35.080   0.525 -13.657  0.00  0.00     0.217 C 
BRANCH  15  16
HETATM   16  O           1     -35.131  -0.281 -14.803  0.00  0.00    -0.287 OA
BRANCH  16  17
HETATM   17  P           1     -36.434  -0.097 -15.739  0.00  0.00     0.406 P 
HETATM   18  O           1     -37.604  -0.729 -15.089  0.00  0.00    -0.624 OA
HETATM   19  O           1     -36.192  -0.740 -17.051  0.00  0.00    -0.624 OA
BRANCH  17  20
HETATM   20  O           1     -36.723   1.477 -15.956  0.00  0.00    -0.300 OA
HETATM   21  H           1     -36.211   1.717 -16.708  0.00  0.00     0.223 HD
ENDBRANCH  17  20
ENDBRANCH  16  17
ENDBRANCH  15  16
ENDBRANCH   1  15
TORSDOF 8
ENDMDL
MODEL 2
REMARK VINA RESULT:      -6.4      2.890      4.759
REMARK  8 active torsions:
REMARK  status: ('A' for Active; 'I' for Inactive)
REMARK    1  A    between atoms: O_2  and  C_21 
REMARK    2  A    between atoms: O_2  and  P_3 
REMARK    3  A    between atoms: P_3  and  O_16 
REMARK    4  A    between atoms: N_10  and  C_12 
REMARK    5  A    between atoms: C_12  and  C_13 
REMARK       I    between atoms: C_13  and  N_14 
REMARK    6  A    between atoms: N_14  and  C_20 
REMARK    7  A    between atoms: C_18  and  C_20 
REMARK    8  A    between atoms: C_20  and  C_21 
ROOT
HETATM    1  C           1     -36.631  -0.909 -11.380  0.00  0.00     0.210 C 
ENDROOT
BRANCH   1   2
HETATM    2  N           1     -36.061  -0.322 -12.577  0.00  0.00    -0.343 N 
HETATM    3  H           1     -35.121   0.051 -12.558  0.00  0.00     0.163 HD
HETATM    4  C           1     -36.795  -0.272 -13.731  0.00  0.00     0.248 C 
HETATM    5  O           1     -37.918  -0.716 -13.753  0.00  0.00    -0.271 OA
BRANCH   4   6
HETATM    6  C           1     -36.202   0.340 -14.976  0.00  0.00     0.270 C 
HETATM    7  C           1     -35.032   1.239 -14.594  0.00  0.00     0.050 C 
BRANCH   6   8
HETATM    8  N           1     -37.247   1.156 -15.678  0.00  0.00    -0.067 N 
HETATM    9  H           1     -37.097   1.101 -16.711  0.00  0.00     0.275 HD
HETATM   10  H           1     -38.195   0.784 -15.444  0.00  0.00     0.275 HD
HETATM   11  H           1     -37.177   2.152 -15.368  0.00  0.00     0.275 HD
ENDBRANCH   6   8
ENDBRANCH   4   6
ENDBRANCH   1   2
BRANCH   1  12
HETATM   12  C           1     -36.983   0.183 -10.401  0.00  0.00     0.198 C 
HETATM   13  O           1     -38.074   0.784 -10.501  0.00  0.00    -0.646 OA
HETATM   14  O           1     -36.182   0.488  -9.490  0.00  0.00    -0.646 OA
ENDBRANCH   1  12
BRANCH   1  15
HETATM   15  C           1     -35.615  -1.852 -10.746  0.00  0.00     0.217 C 
BRANCH  15  16
HETATM   16  O           1     -35.694  -3.108 -11.363  0.00  0.00    -0.287 OA
BRANCH  16  17
HETATM   17  P           1     -34.423  -3.536 -12.263  0.00  0.00     0.406 P 
HETATM   18  O           1     -33.176  -3.105 -11.593  0.00  0.00    -0.624 OA
HETATM   19  O           1     -34.519  -2.887 -13.590  0.00  0.00    -0.624 OA
BRANCH  17  20
HETATM   20  O           1     -34.410  -5.140 -12.446  0.00  0.00    -0.300 OA
HETATM   21  H           1     -34.604  -5.484 -11.591  0.00  0.00     0.223 HD
ENDBRANCH  17  20
ENDBRANCH  16  17
ENDBRANCH  15  16
ENDBRANCH   1  15
TORSDOF 8
ENDMDL
MODEL 3
REMARK VINA RESULT:      -6.0      2.074      3.994
REMARK  8 active torsions:
REMARK  status: ('A' for Active; 'I' for Inactive)
REMARK    1  A    between atoms: O_2  and  C_21 
REMARK    2  A    between atoms: O_2  and  P_3 
REMARK    3  A    between atoms: P_3  and  O_16 
REMARK    4  A    between atoms: N_10  and  C_12 
REMARK    5  A    between atoms: C_12  and  C_13 
REMARK       I    between atoms: C_13  and  N_14 
REMARK    6  A    between atoms: N_14  and  C_20 
REMARK    7  A    between atoms: C_18  and  C_20 
REMARK    8  A    between atoms: C_20  and  C_21 
ROOT
HETATM    1  C           1     -35.628  -1.153 -12.196  0.00  0.00     0.210 C 
ENDROOT
BRANCH   1   2
HETATM    2  N           1     -35.788  -0.650 -10.845  0.00  0.00    -0.343 N 
HETATM    3  H           1     -34.974  -0.401 -10.299  0.00  0.00     0.163 HD
HETATM    4  C           1     -37.040  -0.513 -10.309  0.00  0.00     0.248 C 
HETATM    5  O           1     -38.012  -0.811 -10.960  0.00  0.00    -0.271 OA
BRANCH   4   6
HETATM    6  C           1     -37.206   0.009  -8.903  0.00  0.00     0.270 C 
HETATM    7  C           1     -37.934   1.347  -8.940  0.00  0.00     0.050 C 
BRANCH   6   8
HETATM    8  N           1     -35.855   0.194  -8.277  0.00  0.00    -0.067 N 
HETATM    9  H           1     -35.341   0.957  -8.775  0.00  0.00     0.275 HD
HETATM   10  H           1     -35.968   0.451  -7.271  0.00  0.00     0.275 HD
HETATM   11  H           1     -35.313  -0.697  -8.351  0.00  0.00     0.275 HD
ENDBRANCH   6   8
ENDBRANCH   4   6
ENDBRANCH   1   2
BRANCH   1  12
HETATM   12  C           1     -34.558  -2.215 -12.214  0.00  0.00     0.198 C 
HETATM   13  O           1     -34.416  -2.944 -13.220  0.00  0.00    -0.646 OA
HETATM   14  O           1     -33.811  -2.367 -11.222  0.00  0.00    -0.646 OA
ENDBRANCH   1  12
BRANCH   1  15
HETATM   15  C           1     -35.225  -0.008 -13.117  0.00  0.00     0.217 C 
BRANCH  15  16
HETATM   16  O           1     -36.351   0.444 -13.821  0.00  0.00    -0.287 OA
BRANCH  16  17
HETATM   17  P           1     -36.355   0.156 -15.409  0.00  0.00     0.406 P 
HETATM   18  O           1     -37.476  -0.751 -15.744  0.00  0.00    -0.624 OA
HETATM   19  O           1     -35.075  -0.477 -15.799  0.00  0.00    -0.624 OA
BRANCH  17  20
HETATM   20  O           1     -36.533   1.549 -16.207  0.00  0.00    -0.300 OA
HETATM   21  H           1     -36.053   2.182 -15.702  0.00  0.00     0.223 HD
ENDBRANCH  17  20
ENDBRANCH  16  17
ENDBRANCH  15  16
ENDBRANCH   1  15
TORSDOF 8
ENDMDL
MODEL 4
REMARK VINA RESULT:      -5.9     13.023     15.246
REMARK  8 active torsions:
REMARK  status: ('A' for Active; 'I' for Inactive)
REMARK    1  A    between atoms: O_2  and  C_21 
REMARK    2  A    between atoms: O_2  and  P_3 
REMARK    3  A    between atoms: P_3  and  O_16 
REMARK    4  A    between atoms: N_10  and  C_12 
REMARK    5  A    between atoms: C_12  and  C_13 
REMARK       I    between atoms: C_13  and  N_14 
REMARK    6  A    between atoms: N_14  and  C_20 
REMARK    7  A    between atoms: C_18  and  C_20 
REMARK    8  A    between atoms: C_20  and  C_21 
ROOT
HETATM    1  C           1     -21.515  -4.853  -7.955  0.00  0.00     0.210 C 
ENDROOT
BRANCH   1   2
HETATM    2  N           1     -21.313  -5.009  -6.528  0.00  0.00    -0.343 N 
HETATM    3  H           1     -21.277  -4.193  -5.931  0.00  0.00     0.163 HD
HETATM    4  C           1     -21.173  -6.259  -5.988  0.00  0.00     0.248 C 
HETATM    5  O           1     -21.217  -7.233  -6.702  0.00  0.00    -0.271 OA
BRANCH   4   6
HETATM    6  C           1     -20.962  -6.421  -4.503  0.00  0.00     0.270 C 
HETATM    7  C           1     -20.494  -7.840  -4.207  0.00  0.00     0.050 C 
BRANCH   6   8
HETATM    8  N           1     -22.254  -6.162  -3.785  0.00  0.00    -0.067 N 
HETATM    9  H           1     -23.010  -6.749  -4.205  0.00  0.00     0.275 HD
HETATM   10  H           1     -22.146  -6.404  -2.775  0.00  0.00     0.275 HD
HETATM   11  H           1     -22.505  -5.151  -3.876  0.00  0.00     0.275 HD
ENDBRANCH   6   8
ENDBRANCH   4   6
ENDBRANCH   1   2
BRANCH   1  12
HETATM   12  C           1     -20.193  -4.569  -8.623  0.00  0.00     0.198 C 
HETATM   13  O           1     -20.097  -4.616  -9.868  0.00  0.00    -0.646 OA
HETATM   14  O           1     -19.191  -4.287  -7.930  0.00  0.00    -0.646 OA
ENDBRANCH   1  12
BRANCH   1  15
HETATM   15  C           1     -22.472  -3.694  -8.208  0.00  0.00     0.217 C 
BRANCH  15  16
HETATM   16  O           1     -23.650  -4.180  -8.792  0.00  0.00    -0.287 OA
BRANCH  16  17
HETATM   17  P           1     -23.787  -3.972 -10.388  0.00  0.00     0.406 P 
HETATM   18  O           1     -25.028  -3.223 -10.685  0.00  0.00    -0.624 OA
HETATM   19  O           1     -23.838  -5.294 -11.053  0.00  0.00    -0.624 OA
BRANCH  17  20
HETATM   20  O           1     -22.514  -3.143 -10.933  0.00  0.00    -0.300 OA
HETATM   21  H           1     -22.848  -2.625 -11.646  0.00  0.00     0.223 HD
ENDBRANCH  17  20
ENDBRANCH  16  17
ENDBRANCH  15  16
ENDBRANCH   1  15
TORSDOF 8
ENDMDL
MODEL 5
REMARK VINA RESULT:      -5.4     25.699     26.545
REMARK  8 active torsions:
REMARK  status: ('A' for Active; 'I' for Inactive)
REMARK    1  A    between atoms: O_2  and  C_21 
REMARK    2  A    between atoms: O_2  and  P_3 
REMARK    3  A    between atoms: P_3  and  O_16 
REMARK    4  A    between atoms: N_10  and  C_12 
REMARK    5  A    between atoms: C_12  and  C_13 
REMARK       I    between atoms: C_13  and  N_14 
REMARK    6  A    between atoms: N_14  and  C_20 
REMARK    7  A    between atoms: C_18  and  C_20 
REMARK    8  A    between atoms: C_20  and  C_21 
ROOT
HETATM    1  C           1     -10.387   5.451 -20.706  0.00  0.00     0.210 C 
ENDROOT
BRANCH   1   2
HETATM    2  N           1     -11.605   5.325 -21.482  0.00  0.00    -0.343 N 
HETATM    3  H           1     -12.208   6.128 -21.609  0.00  0.00     0.163 HD
HETATM    4  C           1     -11.938   4.122 -22.044  0.00  0.00     0.248 C 
HETATM    5  O           1     -11.218   3.165 -21.892  0.00  0.00    -0.271 OA
BRANCH   4   6
HETATM    6  C           1     -13.206   3.992 -22.850  0.00  0.00     0.270 C 
HETATM    7  C           1     -14.049   5.249 -22.680  0.00  0.00     0.050 C 
BRANCH   6   8
HETATM    8  N           1     -13.984   2.802 -22.370  0.00  0.00    -0.067 N 
HETATM    9  H           1     -14.524   2.394 -23.166  0.00  0.00     0.275 HD
HETATM   10  H           1     -13.325   2.085 -21.991  0.00  0.00     0.275 HD
HETATM   11  H           1     -14.644   3.100 -21.616  0.00  0.00     0.275 HD
ENDBRANCH   6   8
ENDBRANCH   4   6
ENDBRANCH   1   2
BRANCH   1  12
HETATM   12  C           1     -10.721   5.419 -19.235  0.00  0.00     0.198 C 
HETATM   13  O           1     -11.853   5.045 -18.859  0.00  0.00    -0.646 OA
HETATM   14  O           1      -9.866   5.768 -18.392  0.00  0.00    -0.646 OA
ENDBRANCH   1  12
BRANCH   1  15
HETATM   15  C           1      -9.704   6.770 -21.044  0.00  0.00     0.217 C 
BRANCH  15  16
HETATM   16  O           1     -10.661   7.794 -21.085  0.00  0.00    -0.287 OA
BRANCH  16  17
HETATM   17  P           1     -10.301   9.134 -20.257  0.00  0.00     0.406 P 
HETATM   18  O           1     -11.346  10.155 -20.491  0.00  0.00    -0.624 OA
HETATM   19  O           1      -8.992   9.655 -20.711  0.00  0.00    -0.624 OA
BRANCH  17  20
HETATM   20  O           1     -10.228   8.789 -18.682  0.00  0.00    -0.300 OA
HETATM   21  H           1      -9.413   8.329 -18.571  0.00  0.00     0.223 HD
ENDBRANCH  17  20
ENDBRANCH  16  17
ENDBRANCH  15  16
ENDBRANCH   1  15
TORSDOF 8
ENDMDL
MODEL 6
REMARK VINA RESULT:      -5.1     25.544     26.403
REMARK  8 active torsions:
REMARK  status: ('A' for Active; 'I' for Inactive)
REMARK    1  A    between atoms: O_2  and  C_21 
REMARK    2  A    between atoms: O_2  and  P_3 
REMARK    3  A    between atoms: P_3  and  O_16 
REMARK    4  A    between atoms: N_10  and  C_12 
REMARK    5  A    between atoms: C_12  and  C_13 
REMARK       I    between atoms: C_13  and  N_14 
REMARK    6  A    between atoms: N_14  and  C_20 
REMARK    7  A    between atoms: C_18  and  C_20 
REMARK    8  A    between atoms: C_20  and  C_21 
ROOT
HETATM    1  C           1     -10.793   6.858 -21.494  0.00  0.00     0.210 C 
ENDROOT
BRANCH   1   2
HETATM    2  N           1     -11.423   5.721 -20.854  0.00  0.00    -0.343 N 
HETATM    3  H           1     -11.831   5.821 -19.933  0.00  0.00     0.163 HD
HETATM    4  C           1     -11.469   4.512 -21.495  0.00  0.00     0.248 C 
HETATM    5  O           1     -10.983   4.393 -22.594  0.00  0.00    -0.271 OA
BRANCH   4   6
HETATM    6  C           1     -12.124   3.328 -20.827  0.00  0.00     0.270 C 
HETATM    7  C           1     -11.103   2.212 -20.654  0.00  0.00     0.050 C 
BRANCH   6   8
HETATM    8  N           1     -13.257   2.838 -21.681  0.00  0.00    -0.067 N 
HETATM    9  H           1     -13.013   1.905 -22.082  0.00  0.00     0.275 HD
HETATM   10  H           1     -14.120   2.752 -21.099  0.00  0.00     0.275 HD
HETATM   11  H           1     -13.426   3.518 -22.457  0.00  0.00     0.275 HD
ENDBRANCH   6   8
ENDBRANCH   4   6
ENDBRANCH   1   2
BRANCH   1  12
HETATM   12  C           1      -9.511   7.194 -20.774  0.00  0.00     0.198 C 
HETATM   13  O           1      -8.782   6.279 -20.334  0.00  0.00    -0.646 OA
HETATM   14  O           1      -9.177   8.389 -20.618  0.00  0.00    -0.646 OA
ENDBRANCH   1  12
BRANCH   1  15
HETATM   15  C           1     -11.734   8.055 -21.442  0.00  0.00     0.217 C 
BRANCH  15  16
HETATM   16  O           1     -12.577   7.939 -20.327  0.00  0.00    -0.287 OA
BRANCH  16  17
HETATM   17  P           1     -12.534   9.164 -19.276  0.00  0.00     0.406 P 
HETATM   18  O           1     -13.676   9.054 -18.341  0.00  0.00    -0.624 OA
HETATM   19  O           1     -12.621  10.446 -20.011  0.00  0.00    -0.624 OA
BRANCH  17  20
HETATM   20  O           1     -11.150   9.111 -18.445  0.00  0.00    -0.300 OA
HETATM   21  H           1     -10.836   9.999 -18.438  0.00  0.00     0.223 HD
ENDBRANCH  17  20
ENDBRANCH  16  17
ENDBRANCH  15  16
ENDBRANCH   1  15
TORSDOF 8
ENDMDL
MODEL 7
REMARK VINA RESULT:      -5.1      3.629      6.204
REMARK  8 active torsions:
REMARK  status: ('A' for Active; 'I' for Inactive)
REMARK    1  A    between atoms: O_2  and  C_21 
REMARK    2  A    between atoms: O_2  and  P_3 
REMARK    3  A    between atoms: P_3  and  O_16 
REMARK    4  A    between atoms: N_10  and  C_12 
REMARK    5  A    between atoms: C_12  and  C_13 
REMARK       I    between atoms: C_13  and  N_14 
REMARK    6  A    between atoms: N_14  and  C_20 
REMARK    7  A    between atoms: C_18  and  C_20 
REMARK    8  A    between atoms: C_20  and  C_21 
ROOT
HETATM    1  C           1     -34.601  -3.257 -11.603  0.00  0.00     0.210 C 
ENDROOT
BRANCH   1   2
HETATM    2  N           1     -35.495  -2.198 -12.029  0.00  0.00    -0.343 N 
HETATM    3  H           1     -35.950  -2.253 -12.931  0.00  0.00     0.163 HD
HETATM    4  C           1     -35.724  -1.125 -11.210  0.00  0.00     0.248 C 
HETATM    5  O           1     -35.181  -1.060 -10.134  0.00  0.00    -0.271 OA
BRANCH   4   6
HETATM    6  C           1     -36.654  -0.023 -11.654  0.00  0.00     0.270 C 
HETATM    7  C           1     -37.973  -0.136 -10.901  0.00  0.00     0.050 C 
BRANCH   6   8
HETATM    8  N           1     -36.909  -0.148 -13.127  0.00  0.00    -0.067 N 
HETATM    9  H           1     -37.806  -0.664 -13.283  0.00  0.00     0.275 HD
HETATM   10  H           1     -36.976   0.803 -13.552  0.00  0.00     0.275 HD
HETATM   11  H           1     -36.123  -0.674 -13.572  0.00  0.00     0.275 HD
ENDBRANCH   6   8
ENDBRANCH   4   6
ENDBRANCH   1   2
BRANCH   1  12
HETATM   12  C           1     -33.784  -3.729 -12.780  0.00  0.00     0.198 C 
HETATM   13  O           1     -34.256  -3.666 -13.935  0.00  0.00    -0.646 OA
HETATM   14  O           1     -32.633  -4.184 -12.599  0.00  0.00    -0.646 OA
ENDBRANCH   1  12
BRANCH   1  15
HETATM   15  C           1     -35.419  -4.420 -11.053  0.00  0.00     0.217 C 
BRANCH  15  16
HETATM   16  O           1     -34.612  -5.205 -10.218  0.00  0.00    -0.287 OA
BRANCH  16  17
HETATM   17  P           1     -34.470  -6.760 -10.629  0.00  0.00     0.406 P 
HETATM   18  O           1     -35.178  -7.600  -9.636  0.00  0.00    -0.624 OA
HETATM   19  O           1     -33.037  -7.133 -10.658  0.00  0.00    -0.624 OA
BRANCH  17  20
HETATM   20  O           1     -35.117  -6.992 -12.090  0.00  0.00    -0.300 OA
HETATM   21  H           1     -34.959  -7.899 -12.285  0.00  0.00     0.223 HD
ENDBRANCH  17  20
ENDBRANCH  16  17
ENDBRANCH  15  16
ENDBRANCH   1  15
TORSDOF 8
ENDMDL
MODEL 8
REMARK VINA RESULT:      -4.9     16.545     18.430
REMARK  8 active torsions:
REMARK  status: ('A' for Active; 'I' for Inactive)
REMARK    1  A    between atoms: O_2  and  C_21 
REMARK    2  A    between atoms: O_2  and  P_3 
REMARK    3  A    between atoms: P_3  and  O_16 
REMARK    4  A    between atoms: N_10  and  C_12 
REMARK    5  A    between atoms: C_12  and  C_13 
REMARK       I    between atoms: C_13  and  N_14 
REMARK    6  A    between atoms: N_14  and  C_20 
REMARK    7  A    between atoms: C_18  and  C_20 
REMARK    8  A    between atoms: C_20  and  C_21 
ROOT
HETATM    1  C           1     -21.101  -6.807  -4.049  0.00  0.00     0.210 C 
ENDROOT
BRANCH   1   2
HETATM    2  N           1     -21.861  -6.342  -5.193  0.00  0.00    -0.343 N 
HETATM    3  H           1     -22.744  -6.780  -5.425  0.00  0.00     0.163 HD
HETATM    4  C           1     -21.386  -5.311  -5.958  0.00  0.00     0.248 C 
HETATM    5  O           1     -20.333  -4.789  -5.680  0.00  0.00    -0.271 OA
BRANCH   4   6
HETATM    6  C           1     -22.177  -4.828  -7.148  0.00  0.00     0.270 C 
HETATM    7  C           1     -21.554  -3.547  -7.687  0.00  0.00     0.050 C 
BRANCH   6   8
HETATM    8  N           1     -23.592  -4.557  -6.730  0.00  0.00    -0.067 N 
HETATM    9  H           1     -23.699  -3.543  -6.499  0.00  0.00     0.275 HD
HETATM   10  H           1     -24.240  -4.806  -7.511  0.00  0.00     0.275 HD
HETATM   11  H           1     -23.823  -5.133  -5.889  0.00  0.00     0.275 HD
ENDBRANCH   6   8
ENDBRANCH   4   6
ENDBRANCH   1   2
BRANCH   1  12
HETATM   12  C           1     -20.727  -8.254  -4.248  0.00  0.00     0.198 C 
HETATM   13  O           1     -19.537  -8.568  -4.468  0.00  0.00    -0.646 OA
HETATM   14  O           1     -21.607  -9.141  -4.192  0.00  0.00    -0.646 OA
ENDBRANCH   1  12
BRANCH   1  15
HETATM   15  C           1     -21.947  -6.669  -2.789  0.00  0.00     0.217 C 
BRANCH  15  16
HETATM   16  O           1     -21.204  -7.092  -1.678  0.00  0.00    -0.287 OA
BRANCH  16  17
HETATM   17  P           1     -21.985  -8.027  -0.618  0.00  0.00     0.406 P 
HETATM   18  O           1     -23.200  -7.326  -0.142  0.00  0.00    -0.624 OA
HETATM   19  O           1     -21.099  -8.313   0.533  0.00  0.00    -0.624 OA
BRANCH  17  20
HETATM   20  O           1     -22.408  -9.412  -1.331  0.00  0.00    -0.300 OA
HETATM   21  H           1     -21.908 -10.076  -0.888  0.00  0.00     0.223 HD
ENDBRANCH  17  20
ENDBRANCH  16  17
ENDBRANCH  15  16
ENDBRANCH   1  15
TORSDOF 8
ENDMDL
MODEL 9
REMARK VINA RESULT:      -4.9     17.443     19.144
REMARK  8 active torsions:
REMARK  status: ('A' for Active; 'I' for Inactive)
REMARK    1  A    between atoms: O_2  and  C_21 
REMARK    2  A    between atoms: O_2  and  P_3 
REMARK    3  A    between atoms: P_3  and  O_16 
REMARK    4  A    between atoms: N_10  and  C_12 
REMARK    5  A    between atoms: C_12  and  C_13 
REMARK       I    between atoms: C_13  and  N_14 
REMARK    6  A    between atoms: N_14  and  C_20 
REMARK    7  A    between atoms: C_18  and  C_20 
REMARK    8  A    between atoms: C_20  and  C_21 
ROOT
HETATM    1  C           1     -21.177  -7.821  -2.193  0.00  0.00     0.210 C 
ENDROOT
BRANCH   1   2
HETATM    2  N           1     -21.325  -9.068  -1.469  0.00  0.00    -0.343 N 
HETATM    3  H           1     -22.193  -9.274  -0.991  0.00  0.00     0.163 HD
HETATM    4  C           1     -20.292  -9.966  -1.432  0.00  0.00     0.248 C 
HETATM    5  O           1     -19.257  -9.719  -2.002  0.00  0.00    -0.271 OA
BRANCH   4   6
HETATM    6  C           1     -20.447 -11.263  -0.677  0.00  0.00     0.270 C 
HETATM    7  C           1     -21.429 -11.069   0.471  0.00  0.00     0.050 C 
BRANCH   6   8
HETATM    8  N           1     -19.116 -11.683  -0.128  0.00  0.00    -0.067 N 
HETATM    9  H           1     -18.963 -12.699  -0.323  0.00  0.00     0.275 HD
HETATM   10  H           1     -18.359 -11.124  -0.583  0.00  0.00     0.275 HD
HETATM   11  H           1     -19.098 -11.519   0.904  0.00  0.00     0.275 HD
ENDBRANCH   6   8
ENDBRANCH   4   6
ENDBRANCH   1   2
BRANCH   1  12
HETATM   12  C           1     -22.120  -6.791  -1.621  0.00  0.00     0.198 C 
HETATM   13  O           1     -22.738  -7.030  -0.561  0.00  0.00    -0.646 OA
HETATM   14  O           1     -22.283  -5.699  -2.208  0.00  0.00    -0.646 OA
ENDBRANCH   1  12
BRANCH   1  15
HETATM   15  C           1     -21.503  -8.047  -3.664  0.00  0.00     0.217 C 
BRANCH  15  16
HETATM   16  O           1     -20.543  -7.405  -4.460  0.00  0.00    -0.287 OA
BRANCH  16  17
HETATM   17  P           1     -21.105  -6.292  -5.485  0.00  0.00     0.406 P 
HETATM   18  O           1     -20.944  -6.774  -6.876  0.00  0.00    -0.624 OA
HETATM   19  O           1     -20.345  -5.033  -5.310  0.00  0.00    -0.624 OA
BRANCH  17  20
HETATM   20  O           1     -22.669  -6.024  -5.186  0.00  0.00    -0.300 OA
HETATM   21  H           1     -22.685  -5.248  -4.652  0.00  0.00     0.223 HD
ENDBRANCH  17  20
ENDBRANCH  16  17
ENDBRANCH  15  16
ENDBRANCH   1  15
TORSDOF 8
ENDMDL
