MODEL 1
REMARK VINA RESULT:      -6.0      0.000      0.000
REMARK  6 active torsions:
REMARK  status: ('A' for Active; 'I' for Inactive)
REMARK    1  A    between atoms: C_1  and  C_2 
REMARK    2  A    between atoms: C_1  and  C_17 
REMARK    3  A    between atoms: C_1  and  N_10 
REMARK       I    between atoms: C_2  and  N_3 
REMARK    4  A    between atoms: N_3  and  C_19 
REMARK    5  A    between atoms: C_12  and  C_19 
REMARK       I    between atoms: N_15  and  C_16 
REMARK    6  A    between atoms: C_16  and  C_17 
ROOT
HETATM    1  C           1     -21.927  -3.803 -10.977  0.00  0.00     0.283 C 
ENDROOT
BRANCH   1   2
HETATM    2  C           1     -20.771  -4.258 -10.120  0.00  0.00     0.249 C 
HETATM    3  N           1     -20.752  -3.964  -8.784  0.00  0.00    -0.349 N 
HETATM    4  H           1     -21.513  -3.441  -8.369  0.00  0.00     0.163 HD
HETATM    5  O           1     -19.862  -4.882 -10.614  0.00  0.00    -0.271 OA
BRANCH   3   6
HETATM    6  C           1     -19.641  -4.401  -7.961  0.00  0.00     0.235 C 
BRANCH   6   7
HETATM    7  C           1     -20.146  -5.331  -6.885  0.00  0.00     0.191 C 
HETATM    8  O           1     -20.091  -4.987  -5.684  0.00  0.00    -0.647 OA
HETATM    9  O           1     -20.620  -6.445  -7.194  0.00  0.00    -0.647 OA
ENDBRANCH   6   7
ENDBRANCH   3   6
ENDBRANCH   1   2
BRANCH   1  10
HETATM   10  C           1     -23.160  -4.635 -10.652  0.00  0.00     0.145 C 
BRANCH  10  11
HETATM   11  C           1     -24.250  -3.735 -10.124  0.00  0.00     0.217 C 
HETATM   12  O           1     -25.027  -3.213 -10.888  0.00  0.00    -0.274 OA
HETATM   13  N           1     -24.358  -3.508  -8.778  0.00  0.00    -0.370 N 
HETATM   14  H           1     -23.708  -3.945  -8.137  0.00  0.00     0.159 HD
HETATM   15  H           1     -25.089  -2.904  -8.423  0.00  0.00     0.159 HD
ENDBRANCH  10  11
ENDBRANCH   1  10
BRANCH   1  16
HETATM   16  N           1     -21.575  -3.978 -12.426  0.00  0.00    -0.066 N 
HETATM   17  H           1     -21.652  -3.058 -12.916  0.00  0.00     0.275 HD
HETATM   18  H           1     -22.232  -4.663 -12.863  0.00  0.00     0.275 HD
HETATM   19  H           1     -20.596  -4.334 -12.506  0.00  0.00     0.275 HD
ENDBRANCH   1  16
TORSDOF 6
ENDMDL
MODEL 2
REMARK VINA RESULT:      -5.9     13.076     15.215
REMARK  6 active torsions:
REMARK  status: ('A' for Active; 'I' for Inactive)
REMARK    1  A    between atoms: C_1  and  C_2 
REMARK    2  A    between atoms: C_1  and  C_17 
REMARK    3  A    between atoms: C_1  and  N_10 
REMARK       I    between atoms: C_2  and  N_3 
REMARK    4  A    between atoms: N_3  and  C_19 
REMARK    5  A    between atoms: C_12  and  C_19 
REMARK       I    between atoms: N_15  and  C_16 
REMARK    6  A    between atoms: C_16  and  C_17 
ROOT
HETATM    1  C           1     -34.726  -1.702 -11.948  0.00  0.00     0.283 C 
ENDROOT
BRANCH   1   2
HETATM    2  C           1     -35.557  -1.057 -13.031  0.00  0.00     0.249 C 
HETATM    3  N           1     -34.947  -0.515 -14.129  0.00  0.00    -0.349 N 
HETATM    4  H           1     -33.939  -0.546 -14.217  0.00  0.00     0.163 HD
HETATM    5  O           1     -36.760  -1.020 -12.927  0.00  0.00    -0.271 OA
BRANCH   3   6
HETATM    6  C           1     -35.746   0.105 -15.170  0.00  0.00     0.235 C 
BRANCH   6   7
HETATM    7  C           1     -35.840  -0.826 -16.354  0.00  0.00     0.191 C 
HETATM    8  O           1     -36.858  -0.815 -17.079  0.00  0.00    -0.647 OA
HETATM    9  O           1     -34.900  -1.609 -16.609  0.00  0.00    -0.647 OA
ENDBRANCH   6   7
ENDBRANCH   3   6
ENDBRANCH   1   2
BRANCH   1  10
HETATM   10  C           1     -34.927  -3.211 -11.982  0.00  0.00     0.145 C 
BRANCH  10  11
HETATM   11  C           1     -33.975  -3.823 -12.980  0.00  0.00     0.217 C 
HETATM   12  O           1     -34.210  -3.752 -14.163  0.00  0.00    -0.274 OA
HETATM   13  N           1     -32.844  -4.461 -12.544  0.00  0.00    -0.370 N 
HETATM   14  H           1     -32.647  -4.521 -11.554  0.00  0.00     0.159 HD
HETATM   15  H           1     -32.206  -4.872 -13.214  0.00  0.00     0.159 HD
ENDBRANCH  10  11
ENDBRANCH   1  10
BRANCH   1  16
HETATM   16  N           1     -35.151  -1.172 -10.610  0.00  0.00    -0.066 N 
HETATM   17  H           1     -35.732  -0.313 -10.744  0.00  0.00     0.275 HD
HETATM   18  H           1     -34.304  -0.935 -10.045  0.00  0.00     0.275 HD
HETATM   19  H           1     -35.711  -1.897 -10.109  0.00  0.00     0.275 HD
ENDBRANCH   1  16
TORSDOF 6
ENDMDL
MODEL 3
REMARK VINA RESULT:      -5.7     13.558     15.287
REMARK  6 active torsions:
REMARK  status: ('A' for Active; 'I' for Inactive)
REMARK    1  A    between atoms: C_1  and  C_2 
REMARK    2  A    between atoms: C_1  and  C_17 
REMARK    3  A    between atoms: C_1  and  N_10 
REMARK       I    between atoms: C_2  and  N_3 
REMARK    4  A    between atoms: N_3  and  C_19 
REMARK    5  A    between atoms: C_12  and  C_19 
REMARK       I    between atoms: N_15  and  C_16 
REMARK    6  A    between atoms: C_16  and  C_17 
ROOT
HETATM    1  C           1     -35.768   0.247 -14.065  0.00  0.00     0.283 C 
ENDROOT
BRANCH   1   2
HETATM    2  C           1     -35.186  -0.518 -12.901  0.00  0.00     0.249 C 
HETATM    3  N           1     -34.772  -1.811 -13.069  0.00  0.00    -0.349 N 
HETATM    4  H           1     -34.856  -2.256 -13.974  0.00  0.00     0.163 HD
HETATM    5  O           1     -35.086   0.013 -11.820  0.00  0.00    -0.271 OA
BRANCH   3   6
HETATM    6  C           1     -34.213  -2.545 -11.950  0.00  0.00     0.235 C 
BRANCH   6   7
HETATM    7  C           1     -35.155  -3.657 -11.556  0.00  0.00     0.191 C 
HETATM    8  O           1     -36.120  -3.420 -10.798  0.00  0.00    -0.647 OA
HETATM    9  O           1     -34.969  -4.815 -11.989  0.00  0.00    -0.647 OA
ENDBRANCH   6   7
ENDBRANCH   3   6
ENDBRANCH   1   2
BRANCH   1  10
HETATM   10  C           1     -37.179  -0.252 -14.347  0.00  0.00     0.145 C 
BRANCH  10  11
HETATM   11  C           1     -37.588   0.158 -15.741  0.00  0.00     0.217 C 
HETATM   12  O           1     -37.487  -0.624 -16.656  0.00  0.00    -0.274 OA
HETATM   13  N           1     -38.074   1.418 -15.967  0.00  0.00    -0.370 N 
HETATM   14  H           1     -38.159   2.073 -15.202  0.00  0.00     0.159 HD
HETATM   15  H           1     -38.348   1.694 -16.903  0.00  0.00     0.159 HD
ENDBRANCH  10  11
ENDBRANCH   1  10
BRANCH   1  16
HETATM   16  N           1     -34.911   0.035 -15.279  0.00  0.00    -0.066 N 
HETATM   17  H           1     -33.927  -0.153 -14.982  0.00  0.00     0.275 HD
HETATM   18  H           1     -34.937   0.893 -15.877  0.00  0.00     0.275 HD
HETATM   19  H           1     -35.273  -0.779 -15.824  0.00  0.00     0.275 HD
ENDBRANCH   1  16
TORSDOF 6
ENDMDL
MODEL 4
REMARK VINA RESULT:      -5.5      1.722      2.967
REMARK  6 active torsions:
REMARK  status: ('A' for Active; 'I' for Inactive)
REMARK    1  A    between atoms: C_1  and  C_2 
REMARK    2  A    between atoms: C_1  and  C_17 
REMARK    3  A    between atoms: C_1  and  N_10 
REMARK       I    between atoms: C_2  and  N_3 
REMARK    4  A    between atoms: N_3  and  C_19 
REMARK    5  A    between atoms: C_12  and  C_19 
REMARK       I    between atoms: N_15  and  C_16 
REMARK    6  A    between atoms: C_16  and  C_17 
ROOT
HETATM    1  C           1     -23.153  -4.298  -9.044  0.00  0.00     0.283 C 
ENDROOT
BRANCH   1   2
HETATM    2  C           1     -22.562  -4.474  -7.666  0.00  0.00     0.249 C 
HETATM    3  N           1     -21.205  -4.544  -7.507  0.00  0.00    -0.349 N 
HETATM    4  H           1     -20.596  -4.477  -8.313  0.00  0.00     0.163 HD
HETATM    5  O           1     -23.288  -4.555  -6.703  0.00  0.00    -0.271 OA
BRANCH   3   6
HETATM    6  C           1     -20.637  -4.713  -6.183  0.00  0.00     0.235 C 
BRANCH   6   7
HETATM    7  C           1     -20.266  -6.162  -5.976  0.00  0.00     0.191 C 
HETATM    8  O           1     -19.649  -6.783  -6.869  0.00  0.00    -0.647 OA
HETATM    9  O           1     -20.575  -6.739  -4.912  0.00  0.00    -0.647 OA
ENDBRANCH   6   7
ENDBRANCH   3   6
ENDBRANCH   1   2
BRANCH   1  10
HETATM   10  C           1     -22.101  -3.716  -9.978  0.00  0.00     0.145 C 
BRANCH  10  11
HETATM   11  C           1     -22.382  -4.163 -11.392  0.00  0.00     0.217 C 
HETATM   12  O           1     -23.443  -4.672 -11.667  0.00  0.00    -0.274 OA
HETATM   13  N           1     -21.433  -3.992 -12.365  0.00  0.00    -0.370 N 
HETATM   14  H           1     -20.545  -3.566 -12.136  0.00  0.00     0.159 HD
HETATM   15  H           1     -21.621  -4.292 -13.314  0.00  0.00     0.159 HD
ENDBRANCH  10  11
ENDBRANCH   1  10
BRANCH   1  16
HETATM   16  N           1     -24.325  -3.364  -8.969  0.00  0.00    -0.066 N 
HETATM   17  H           1     -24.492  -3.093  -7.973  0.00  0.00     0.275 HD
HETATM   18  H           1     -25.175  -3.840  -9.347  0.00  0.00     0.275 HD
HETATM   19  H           1     -24.126  -2.508  -9.534  0.00  0.00     0.275 HD
ENDBRANCH   1  16
TORSDOF 6
ENDMDL
MODEL 5
REMARK VINA RESULT:      -5.4     12.033     14.559
REMARK  6 active torsions:
REMARK  status: ('A' for Active; 'I' for Inactive)
REMARK    1  A    between atoms: C_1  and  C_2 
REMARK    2  A    between atoms: C_1  and  C_17 
REMARK    3  A    between atoms: C_1  and  N_10 
REMARK       I    between atoms: C_2  and  N_3 
REMARK    4  A    between atoms: N_3  and  C_19 
REMARK    5  A    between atoms: C_12  and  C_19 
REMARK       I    between atoms: N_15  and  C_16 
REMARK    6  A    between atoms: C_16  and  C_17 
ROOT
HETATM    1  C           1     -34.702  -1.726 -11.715  0.00  0.00     0.283 C 
ENDROOT
BRANCH   1   2
HETATM    2  C           1     -35.933  -1.613 -10.849  0.00  0.00     0.249 C 
HETATM    3  N           1     -36.324  -0.391 -10.372  0.00  0.00    -0.349 N 
HETATM    4  H           1     -35.787   0.437 -10.599  0.00  0.00     0.163 HD
HETATM    5  O           1     -36.574  -2.600 -10.577  0.00  0.00    -0.271 OA
BRANCH   3   6
HETATM    6  C           1     -37.506  -0.282  -9.539  0.00  0.00     0.235 C 
BRANCH   6   7
HETATM    7  C           1     -37.096   0.020  -8.119  0.00  0.00     0.191 C 
HETATM    8  O           1     -35.992   0.559  -7.888  0.00  0.00    -0.647 OA
HETATM    9  O           1     -37.861  -0.268  -7.173  0.00  0.00    -0.647 OA
ENDBRANCH   6   7
ENDBRANCH   3   6
ENDBRANCH   1   2
BRANCH   1  10
HETATM   10  C           1     -33.530  -2.211 -10.873  0.00  0.00     0.145 C 
BRANCH  10  11
HETATM   11  C           1     -33.299  -3.680 -11.130  0.00  0.00     0.217 C 
HETATM   12  O           1     -32.467  -4.031 -11.933  0.00  0.00    -0.274 OA
HETATM   13  N           1     -34.034  -4.617 -10.453  0.00  0.00    -0.370 N 
HETATM   14  H           1     -34.730  -4.324  -9.780  0.00  0.00     0.159 HD
HETATM   15  H           1     -33.879  -5.603 -10.626  0.00  0.00     0.159 HD
ENDBRANCH  10  11
ENDBRANCH   1  10
BRANCH   1  16
HETATM   16  N           1     -34.376  -0.383 -12.299  0.00  0.00    -0.066 N 
HETATM   17  H           1     -34.004   0.242 -11.547  0.00  0.00     0.275 HD
HETATM   18  H           1     -35.241   0.039 -12.706  0.00  0.00     0.275 HD
HETATM   19  H           1     -33.657  -0.493 -13.048  0.00  0.00     0.275 HD
ENDBRANCH   1  16
TORSDOF 6
ENDMDL
MODEL 6
REMARK VINA RESULT:      -5.3      2.584      5.536
REMARK  6 active torsions:
REMARK  status: ('A' for Active; 'I' for Inactive)
REMARK    1  A    between atoms: C_1  and  C_2 
REMARK    2  A    between atoms: C_1  and  C_17 
REMARK    3  A    between atoms: C_1  and  N_10 
REMARK       I    between atoms: C_2  and  N_3 
REMARK    4  A    between atoms: N_3  and  C_19 
REMARK    5  A    between atoms: C_12  and  C_19 
REMARK       I    between atoms: N_15  and  C_16 
REMARK    6  A    between atoms: C_16  and  C_17 
ROOT
HETATM    1  C           1     -21.240  -5.726  -6.799  0.00  0.00     0.283 C 
ENDROOT
BRANCH   1   2
HETATM    2  C           1     -21.704  -4.536  -7.603  0.00  0.00     0.249 C 
HETATM    3  N           1     -22.373  -4.725  -8.782  0.00  0.00    -0.349 N 
HETATM    4  H           1     -22.557  -5.663  -9.115  0.00  0.00     0.163 HD
HETATM    5  O           1     -21.485  -3.416  -7.206  0.00  0.00    -0.271 OA
BRANCH   3   6
HETATM    6  C           1     -22.819  -3.581  -9.554  0.00  0.00     0.235 C 
BRANCH   6   7
HETATM    7  C           1     -23.929  -4.004 -10.485  0.00  0.00     0.191 C 
HETATM    8  O           1     -24.885  -3.230 -10.710  0.00  0.00    -0.647 OA
HETATM    9  O           1     -23.893  -5.127 -11.030  0.00  0.00    -0.647 OA
ENDBRANCH   6   7
ENDBRANCH   3   6
ENDBRANCH   1   2
BRANCH   1  10
HETATM   10  C           1     -20.985  -5.300  -5.360  0.00  0.00     0.145 C 
BRANCH  10  11
HETATM   11  C           1     -21.390  -6.413  -4.425  0.00  0.00     0.217 C 
HETATM   12  O           1     -21.137  -7.561  -4.706  0.00  0.00    -0.274 OA
HETATM   13  N           1     -22.047  -6.123  -3.259  0.00  0.00    -0.370 N 
HETATM   14  H           1     -22.258  -5.162  -3.023  0.00  0.00     0.159 HD
HETATM   15  H           1     -22.320  -6.870  -2.632  0.00  0.00     0.159 HD
ENDBRANCH  10  11
ENDBRANCH   1  10
BRANCH   1  16
HETATM   16  N           1     -19.972  -6.266  -7.393  0.00  0.00    -0.066 N 
HETATM   17  H           1     -19.806  -7.235  -7.036  0.00  0.00     0.275 HD
HETATM   18  H           1     -19.171  -5.652  -7.120  0.00  0.00     0.275 HD
HETATM   19  H           1     -20.055  -6.287  -8.434  0.00  0.00     0.275 HD
ENDBRANCH   1  16
TORSDOF 6
ENDMDL
MODEL 7
REMARK VINA RESULT:      -5.3      2.743      3.671
REMARK  6 active torsions:
REMARK  status: ('A' for Active; 'I' for Inactive)
REMARK    1  A    between atoms: C_1  and  C_2 
REMARK    2  A    between atoms: C_1  and  C_17 
REMARK    3  A    between atoms: C_1  and  N_10 
REMARK       I    between atoms: C_2  and  N_3 
REMARK    4  A    between atoms: N_3  and  C_19 
REMARK    5  A    between atoms: C_12  and  C_19 
REMARK       I    between atoms: N_15  and  C_16 
REMARK    6  A    between atoms: C_16  and  C_17 
ROOT
HETATM    1  C           1     -22.319  -4.395  -7.397  0.00  0.00     0.283 C 
ENDROOT
BRANCH   1   2
HETATM    2  C           1     -21.707  -5.561  -6.659  0.00  0.00     0.249 C 
HETATM    3  N           1     -21.988  -5.756  -5.334  0.00  0.00    -0.349 N 
HETATM    4  H           1     -22.606  -5.119  -4.848  0.00  0.00     0.163 HD
HETATM    5  O           1     -20.969  -6.323  -7.239  0.00  0.00    -0.271 OA
BRANCH   3   6
HETATM    6  C           1     -21.400  -6.877  -4.625  0.00  0.00     0.235 C 
BRANCH   6   7
HETATM    7  C           1     -21.589  -6.689  -3.140  0.00  0.00     0.191 C 
HETATM    8  O           1     -22.490  -5.935  -2.715  0.00  0.00    -0.647 OA
HETATM    9  O           1     -20.843  -7.287  -2.335  0.00  0.00    -0.647 OA
ENDBRANCH   6   7
ENDBRANCH   3   6
ENDBRANCH   1   2
BRANCH   1  10
HETATM   10  C           1     -22.314  -4.680  -8.893  0.00  0.00     0.145 C 
BRANCH  10  11
HETATM   11  C           1     -23.302  -3.770  -9.581  0.00  0.00     0.217 C 
HETATM   12  O           1     -23.049  -3.318 -10.673  0.00  0.00    -0.274 OA
HETATM   13  N           1     -24.485  -3.457  -8.968  0.00  0.00    -0.370 N 
HETATM   14  H           1     -24.698  -3.835  -8.055  0.00  0.00     0.159 HD
HETATM   15  H           1     -25.148  -2.846  -9.430  0.00  0.00     0.159 HD
ENDBRANCH  10  11
ENDBRANCH   1  10
BRANCH   1  16
HETATM   16  N           1     -21.520  -3.155  -7.121  0.00  0.00    -0.066 N 
HETATM   17  H           1     -20.895  -2.956  -7.936  0.00  0.00     0.275 HD
HETATM   18  H           1     -20.939  -3.298  -6.264  0.00  0.00     0.275 HD
HETATM   19  H           1     -22.167  -2.349  -6.973  0.00  0.00     0.275 HD
ENDBRANCH   1  16
TORSDOF 6
ENDMDL
MODEL 8
REMARK VINA RESULT:      -5.2      1.499      1.725
REMARK  6 active torsions:
REMARK  status: ('A' for Active; 'I' for Inactive)
REMARK    1  A    between atoms: C_1  and  C_2 
REMARK    2  A    between atoms: C_1  and  C_17 
REMARK    3  A    between atoms: C_1  and  N_10 
REMARK       I    between atoms: C_2  and  N_3 
REMARK    4  A    between atoms: N_3  and  C_19 
REMARK    5  A    between atoms: C_12  and  C_19 
REMARK       I    between atoms: N_15  and  C_16 
REMARK    6  A    between atoms: C_16  and  C_17 
ROOT
HETATM    1  C           1     -21.680  -3.890  -9.965  0.00  0.00     0.283 C 
ENDROOT
BRANCH   1   2
HETATM    2  C           1     -20.931  -4.363  -8.743  0.00  0.00     0.249 C 
HETATM    3  N           1     -21.380  -5.450  -8.043  0.00  0.00    -0.349 N 
HETATM    4  H           1     -22.214  -5.937  -8.345  0.00  0.00     0.163 HD
HETATM    5  O           1     -19.935  -3.781  -8.382  0.00  0.00    -0.271 OA
BRANCH   3   6
HETATM    6  C           1     -20.660  -5.904  -6.869  0.00  0.00     0.235 C 
BRANCH   6   7
HETATM    7  C           1     -21.520  -5.706  -5.644  0.00  0.00     0.191 C 
HETATM    8  O           1     -22.759  -5.593  -5.761  0.00  0.00    -0.647 OA
HETATM    9  O           1     -20.992  -5.655  -4.512  0.00  0.00    -0.647 OA
ENDBRANCH   6   7
ENDBRANCH   3   6
ENDBRANCH   1   2
BRANCH   1  10
HETATM   10  C           1     -22.953  -4.708 -10.130  0.00  0.00     0.145 C 
BRANCH  10  11
HETATM   11  C           1     -24.151  -3.793 -10.063  0.00  0.00     0.217 C 
HETATM   12  O           1     -24.787  -3.553 -11.062  0.00  0.00    -0.274 OA
HETATM   13  N           1     -24.518  -3.232  -8.868  0.00  0.00    -0.370 N 
HETATM   14  H           1     -23.987  -3.432  -8.031  0.00  0.00     0.159 HD
HETATM   15  H           1     -25.321  -2.618  -8.823  0.00  0.00     0.159 HD
ENDBRANCH  10  11
ENDBRANCH   1  10
BRANCH   1  16
HETATM   16  N           1     -20.814  -4.063 -11.179  0.00  0.00    -0.066 N 
HETATM   17  H           1     -21.022  -3.302 -11.866  0.00  0.00     0.275 HD
HETATM   18  H           1     -21.011  -4.991 -11.617  0.00  0.00     0.275 HD
HETATM   19  H           1     -19.809  -4.016 -10.900  0.00  0.00     0.275 HD
ENDBRANCH   1  16
TORSDOF 6
ENDMDL
MODEL 9
REMARK VINA RESULT:      -5.0     12.600     13.728
REMARK  6 active torsions:
REMARK  status: ('A' for Active; 'I' for Inactive)
REMARK    1  A    between atoms: C_1  and  C_2 
REMARK    2  A    between atoms: C_1  and  C_17 
REMARK    3  A    between atoms: C_1  and  N_10 
REMARK       I    between atoms: C_2  and  N_3 
REMARK    4  A    between atoms: N_3  and  C_19 
REMARK    5  A    between atoms: C_12  and  C_19 
REMARK       I    between atoms: N_15  and  C_16 
REMARK    6  A    between atoms: C_16  and  C_17 
ROOT
HETATM    1  C           1     -33.823  -3.999 -12.225  0.00  0.00     0.283 C 
ENDROOT
BRANCH   1   2
HETATM    2  C           1     -34.137  -3.563 -13.636  0.00  0.00     0.249 C 
HETATM    3  N           1     -33.716  -4.319 -14.696  0.00  0.00    -0.349 N 
HETATM    4  H           1     -33.193  -5.170 -14.535  0.00  0.00     0.163 HD
HETATM    5  O           1     -34.761  -2.546 -13.829  0.00  0.00    -0.271 OA
BRANCH   3   6
HETATM    6  C           1     -34.018  -3.900 -16.051  0.00  0.00     0.235 C 
BRANCH   6   7
HETATM    7  C           1     -32.766  -3.967 -16.890  0.00  0.00     0.191 C 
HETATM    8  O           1     -32.474  -3.023 -17.655  0.00  0.00    -0.647 OA
HETATM    9  O           1     -32.021  -4.968 -16.820  0.00  0.00    -0.647 OA
ENDBRANCH   6   7
ENDBRANCH   3   6
ENDBRANCH   1   2
BRANCH   1  10
HETATM   10  C           1     -33.783  -2.780 -11.313  0.00  0.00     0.145 C 
BRANCH  10  11
HETATM   11  C           1     -35.192  -2.347 -10.990  0.00  0.00     0.217 C 
HETATM   12  O           1     -36.036  -3.173 -10.735  0.00  0.00    -0.274 OA
HETATM   13  N           1     -35.515  -1.016 -10.988  0.00  0.00    -0.370 N 
HETATM   14  H           1     -34.809  -0.324 -11.201  0.00  0.00     0.159 HD
HETATM   15  H           1     -36.460  -0.725 -10.772  0.00  0.00     0.159 HD
ENDBRANCH  10  11
ENDBRANCH   1  10
BRANCH   1  16
HETATM   16  N           1     -32.488  -4.685 -12.200  0.00  0.00    -0.066 N 
HETATM   17  H           1     -31.815  -4.160 -12.804  0.00  0.00     0.275 HD
HETATM   18  H           1     -32.592  -5.661 -12.560  0.00  0.00     0.275 HD
HETATM   19  H           1     -32.128  -4.713 -11.220  0.00  0.00     0.275 HD
ENDBRANCH   1  16
TORSDOF 6
ENDMDL
