MODEL 1
REMARK VINA RESULT:      -7.2      0.000      0.000
REMARK  11 active torsions:
REMARK  status: ('A' for Active; 'I' for Inactive)
REMARK    1  A    between atoms: Se_1  and  C_2 
REMARK    2  A    between atoms: C_2  and  C_3 
REMARK    3  A    between atoms: C_3  and  C_4 
REMARK    4  A    between atoms: C_3  and  N_7 
REMARK       I    between atoms: N_7  and  C_8 
REMARK    5  A    between atoms: C_8  and  C_9 
REMARK    6  A    between atoms: C_9  and  C_10 
REMARK    7  A    between atoms: C_9  and  N_22 
REMARK    8  A    between atoms: C_10  and  C_11 
REMARK    9  A    between atoms: C_14  and  O_15 
REMARK   10  A    between atoms: O_15  and  P_16 
REMARK   11  A    between atoms: P_16  and  O_17 
ROOT
HETATM    1  C           1     -33.707  -4.820 -15.453  0.00  0.00     0.278 C 
ENDROOT
BRANCH   1   2
HETATM    2  C           1     -34.207  -3.926 -14.344  0.00  0.00     0.249 C 
HETATM    3  N           1     -34.178  -4.363 -13.047  0.00  0.00    -0.345 N 
HETATM    4  H           1     -33.822  -5.285 -12.832  0.00  0.00     0.163 HD
HETATM    5  O           1     -34.632  -2.824 -14.602  0.00  0.00    -0.271 OA
BRANCH   3   6
HETATM    6  C           1     -34.659  -3.505 -11.983  0.00  0.00     0.185 C 
BRANCH   6   7
HETATM    7  C           1     -35.389  -4.345 -10.942  0.00  0.00     0.039 C 
BRANCH   7   8
HETATM    8 Se           1     -34.419  -6.010 -10.654  0.00  0.00     0.000 Se
HETATM    9  H           1     -33.590  -5.473  -9.562  0.00  0.00     0.000 HD
ENDBRANCH   7   8
ENDBRANCH   6   7
BRANCH   6  10
HETATM   10  C           1     -33.490  -2.806 -11.332  0.00  0.00     0.196 C 
HETATM   11  O           1     -32.338  -3.281 -11.443  0.00  0.00    -0.646 OA
HETATM   12  O           1     -33.673  -1.755 -10.683  0.00  0.00    -0.646 OA
ENDBRANCH   6  10
ENDBRANCH   3   6
ENDBRANCH   1   2
BRANCH   1  13
HETATM   13  C           1     -33.179  -3.964 -16.597  0.00  0.00     0.081 C 
BRANCH  13  14
HETATM   14  C           1     -31.858  -4.499 -17.054  0.00  0.00    -0.056 A 
HETATM   15  C           1     -31.580  -5.861 -16.937  0.00  0.00     0.010 A 
HETATM   16  C           1     -30.349  -6.361 -17.362  0.00  0.00     0.038 A 
HETATM   17  C           1     -29.397  -5.498 -17.905  0.00  0.00     0.081 A 
HETATM   18  C           1     -29.675  -4.137 -18.023  0.00  0.00     0.038 A 
HETATM   19  C           1     -30.906  -3.637 -17.597  0.00  0.00     0.010 A 
BRANCH  17  20
HETATM   20  O           1     -28.201  -5.983 -18.319  0.00  0.00    -0.247 OA
BRANCH  20  21
HETATM   21  P           1     -27.013  -6.102 -17.230  0.00  0.00     0.411 P 
HETATM   22  O           1     -25.734  -6.371 -17.926  0.00  0.00    -0.624 OA
HETATM   23  O           1     -26.907  -4.832 -16.476  0.00  0.00    -0.624 OA
BRANCH  21  24
HETATM   24  O           1     -27.335  -7.310 -16.210  0.00  0.00    -0.300 OA
HETATM   25  H           1     -26.501  -7.714 -16.040  0.00  0.00     0.223 HD
ENDBRANCH  21  24
ENDBRANCH  20  21
ENDBRANCH  17  20
ENDBRANCH  13  14
ENDBRANCH   1  13
BRANCH   1  26
HETATM   26  N           1     -34.832  -5.678 -15.949  0.00  0.00    -0.066 N 
HETATM   27  H           1     -35.461  -5.110 -16.560  0.00  0.00     0.275 HD
HETATM   28  H           1     -34.443  -6.478 -16.497  0.00  0.00     0.275 HD
HETATM   29  H           1     -35.376  -6.045 -15.134  0.00  0.00     0.275 HD
ENDBRANCH   1  26
TORSDOF 11
ENDMDL
MODEL 2
REMARK VINA RESULT:      -7.0     13.540     15.238
REMARK  11 active torsions:
REMARK  status: ('A' for Active; 'I' for Inactive)
REMARK    1  A    between atoms: Se_1  and  C_2 
REMARK    2  A    between atoms: C_2  and  C_3 
REMARK    3  A    between atoms: C_3  and  C_4 
REMARK    4  A    between atoms: C_3  and  N_7 
REMARK       I    between atoms: N_7  and  C_8 
REMARK    5  A    between atoms: C_8  and  C_9 
REMARK    6  A    between atoms: C_9  and  C_10 
REMARK    7  A    between atoms: C_9  and  N_22 
REMARK    8  A    between atoms: C_10  and  C_11 
REMARK    9  A    between atoms: C_14  and  O_15 
REMARK   10  A    between atoms: O_15  and  P_16 
REMARK   11  A    between atoms: P_16  and  O_17 
ROOT
HETATM    1  C           1     -22.412  -5.069  -6.160  0.00  0.00     0.278 C 
ENDROOT
BRANCH   1   2
HETATM    2  C           1     -22.281  -4.311  -7.458  0.00  0.00     0.249 C 
HETATM    3  N           1     -23.253  -4.420  -8.416  0.00  0.00    -0.345 N 
HETATM    4  H           1     -24.059  -5.009  -8.253  0.00  0.00     0.163 HD
HETATM    5  O           1     -21.317  -3.607  -7.652  0.00  0.00    -0.271 OA
BRANCH   3   6
HETATM    6  C           1     -23.126  -3.692  -9.663  0.00  0.00     0.185 C 
BRANCH   6   7
HETATM    7  C           1     -22.367  -4.542 -10.673  0.00  0.00     0.039 C 
BRANCH   7   8
HETATM    8 Se           1     -20.712  -3.639 -11.168  0.00  0.00     0.000 Se
HETATM    9  H           1     -20.005  -4.007  -9.931  0.00  0.00     0.000 HD
ENDBRANCH   7   8
ENDBRANCH   6   7
BRANCH   6  10
HETATM   10  C           1     -24.500  -3.378 -10.204  0.00  0.00     0.196 C 
HETATM   11  O           1     -25.328  -2.768  -9.492  0.00  0.00    -0.646 OA
HETATM   12  O           1     -24.811  -3.730 -11.361  0.00  0.00    -0.646 OA
ENDBRANCH   6  10
ENDBRANCH   3   6
ENDBRANCH   1   2
BRANCH   1  13
HETATM   13  C           1     -21.577  -6.341  -6.228  0.00  0.00     0.081 C 
BRANCH  13  14
HETATM   14  C           1     -21.438  -6.922  -4.855  0.00  0.00    -0.056 A 
HETATM   15  C           1     -21.190  -6.085  -3.766  0.00  0.00     0.010 A 
HETATM   16  C           1     -21.059  -6.625  -2.487  0.00  0.00     0.038 A 
HETATM   17  C           1     -21.175  -8.001  -2.296  0.00  0.00     0.081 A 
HETATM   18  C           1     -21.422  -8.838  -3.385  0.00  0.00     0.038 A 
HETATM   19  C           1     -21.553  -8.298  -4.664  0.00  0.00     0.010 A 
BRANCH  17  20
HETATM   20  O           1     -21.048  -8.526  -1.054  0.00  0.00    -0.247 OA
BRANCH  20  21
HETATM   21  P           1     -22.287  -8.361  -0.030  0.00  0.00     0.411 P 
HETATM   22  O           1     -21.770  -8.205   1.348  0.00  0.00    -0.624 OA
HETATM   23  O           1     -23.076  -7.164  -0.401  0.00  0.00    -0.624 OA
BRANCH  21  24
HETATM   24  O           1     -23.228  -9.670  -0.106  0.00  0.00    -0.300 OA
HETATM   25  H           1     -23.287  -9.875  -1.024  0.00  0.00     0.223 HD
ENDBRANCH  21  24
ENDBRANCH  20  21
ENDBRANCH  17  20
ENDBRANCH  13  14
ENDBRANCH   1  13
BRANCH   1  26
HETATM   26  N           1     -23.851  -5.426  -5.933  0.00  0.00    -0.066 N 
HETATM   27  H           1     -24.047  -6.364  -6.350  0.00  0.00     0.275 HD
HETATM   28  H           1     -24.044  -5.454  -4.906  0.00  0.00     0.275 HD
HETATM   29  H           1     -24.463  -4.708  -6.384  0.00  0.00     0.275 HD
ENDBRANCH   1  26
TORSDOF 11
ENDMDL
MODEL 3
REMARK VINA RESULT:      -6.9     13.630     14.912
REMARK  11 active torsions:
REMARK  status: ('A' for Active; 'I' for Inactive)
REMARK    1  A    between atoms: Se_1  and  C_2 
REMARK    2  A    between atoms: C_2  and  C_3 
REMARK    3  A    between atoms: C_3  and  C_4 
REMARK    4  A    between atoms: C_3  and  N_7 
REMARK       I    between atoms: N_7  and  C_8 
REMARK    5  A    between atoms: C_8  and  C_9 
REMARK    6  A    between atoms: C_9  and  C_10 
REMARK    7  A    between atoms: C_9  and  N_22 
REMARK    8  A    between atoms: C_10  and  C_11 
REMARK    9  A    between atoms: C_14  and  O_15 
REMARK   10  A    between atoms: O_15  and  P_16 
REMARK   11  A    between atoms: P_16  and  O_17 
ROOT
HETATM    1  C           1     -21.457  -6.410  -4.943  0.00  0.00     0.278 C 
ENDROOT
BRANCH   1   2
HETATM    2  C           1     -20.854  -7.790  -5.028  0.00  0.00     0.249 C 
HETATM    3  N           1     -19.833  -8.145  -4.188  0.00  0.00    -0.345 N 
HETATM    4  H           1     -19.483  -7.480  -3.510  0.00  0.00     0.163 HD
HETATM    5  O           1     -21.272  -8.583  -5.839  0.00  0.00    -0.271 OA
BRANCH   3   6
HETATM    6  C           1     -19.253  -9.470  -4.271  0.00  0.00     0.185 C 
BRANCH   6   7
HETATM    7  C           1     -18.209  -9.501  -5.380  0.00  0.00     0.039 C 
BRANCH   7   8
HETATM    8 Se           1     -18.219 -11.254  -6.233  0.00  0.00     0.000 Se
HETATM    9  H           1     -18.091 -10.719  -7.598  0.00  0.00     0.000 HD
ENDBRANCH   7   8
ENDBRANCH   6   7
BRANCH   6  10
HETATM   10  C           1     -18.597  -9.815  -2.956  0.00  0.00     0.196 C 
HETATM   11  O           1     -17.377  -9.594  -2.789  0.00  0.00    -0.646 OA
HETATM   12  O           1     -19.272 -10.323  -2.035  0.00  0.00    -0.646 OA
ENDBRANCH   6  10
ENDBRANCH   3   6
ENDBRANCH   1   2
BRANCH   1  13
HETATM   13  C           1     -20.483  -5.392  -5.522  0.00  0.00     0.081 C 
BRANCH  13  14
HETATM   14  C           1     -20.973  -4.937  -6.861  0.00  0.00    -0.056 A 
HETATM   15  C           1     -22.250  -4.388  -6.986  0.00  0.00     0.010 A 
HETATM   16  C           1     -22.707  -3.963  -8.234  0.00  0.00     0.038 A 
HETATM   17  C           1     -21.889  -4.089  -9.356  0.00  0.00     0.081 A 
HETATM   18  C           1     -20.612  -4.638  -9.231  0.00  0.00     0.038 A 
HETATM   19  C           1     -20.155  -5.062  -7.984  0.00  0.00     0.010 A 
BRANCH  17  20
HETATM   20  O           1     -22.333  -3.677 -10.568  0.00  0.00    -0.247 OA
BRANCH  20  21
HETATM   21  P           1     -23.703  -4.320 -11.133  0.00  0.00     0.411 P 
HETATM   22  O           1     -24.025  -5.545 -10.366  0.00  0.00    -0.624 OA
HETATM   23  O           1     -24.804  -3.342 -10.987  0.00  0.00    -0.624 OA
BRANCH  21  24
HETATM   24  O           1     -23.518  -4.695 -12.692  0.00  0.00    -0.300 OA
HETATM   25  H           1     -23.032  -3.977 -13.060  0.00  0.00     0.223 HD
ENDBRANCH  21  24
ENDBRANCH  20  21
ENDBRANCH  17  20
ENDBRANCH  13  14
ENDBRANCH   1  13
BRANCH   1  26
HETATM   26  N           1     -21.735  -6.074  -3.507  0.00  0.00    -0.066 N 
HETATM   27  H           1     -21.603  -6.926  -2.918  0.00  0.00     0.275 HD
HETATM   28  H           1     -21.078  -5.326  -3.192  0.00  0.00     0.275 HD
HETATM   29  H           1     -22.720  -5.735  -3.414  0.00  0.00     0.275 HD
ENDBRANCH   1  26
TORSDOF 11
ENDMDL
MODEL 4
REMARK VINA RESULT:      -6.9     13.331     14.535
REMARK  11 active torsions:
REMARK  status: ('A' for Active; 'I' for Inactive)
REMARK    1  A    between atoms: Se_1  and  C_2 
REMARK    2  A    between atoms: C_2  and  C_3 
REMARK    3  A    between atoms: C_3  and  C_4 
REMARK    4  A    between atoms: C_3  and  N_7 
REMARK       I    between atoms: N_7  and  C_8 
REMARK    5  A    between atoms: C_8  and  C_9 
REMARK    6  A    between atoms: C_9  and  C_10 
REMARK    7  A    between atoms: C_9  and  N_22 
REMARK    8  A    between atoms: C_10  and  C_11 
REMARK    9  A    between atoms: C_14  and  O_15 
REMARK   10  A    between atoms: O_15  and  P_16 
REMARK   11  A    between atoms: P_16  and  O_17 
ROOT
HETATM    1  C           1     -21.707  -6.470  -4.772  0.00  0.00     0.278 C 
ENDROOT
BRANCH   1   2
HETATM    2  C           1     -21.284  -7.918  -4.745  0.00  0.00     0.249 C 
HETATM    3  N           1     -21.115  -8.559  -3.548  0.00  0.00    -0.345 N 
HETATM    4  H           1     -21.273  -8.061  -2.681  0.00  0.00     0.163 HD
HETATM    5  O           1     -21.095  -8.512  -5.781  0.00  0.00    -0.271 OA
BRANCH   3   6
HETATM    6  C           1     -20.708  -9.950  -3.521  0.00  0.00     0.185 C 
BRANCH   6   7
HETATM    7  C           1     -19.584 -10.133  -2.510  0.00  0.00     0.039 C 
BRANCH   7   8
HETATM    8 Se           1     -17.877  -9.718  -3.354  0.00  0.00     0.000 Se
HETATM    9  H           1     -18.241 -10.315  -4.650  0.00  0.00     0.000 HD
ENDBRANCH   7   8
ENDBRANCH   6   7
BRANCH   6  10
HETATM   10  C           1     -21.884 -10.810  -3.125  0.00  0.00     0.196 C 
HETATM   11  O           1     -22.020 -11.173  -1.936  0.00  0.00    -0.646 OA
HETATM   12  O           1     -22.719 -11.161  -3.986  0.00  0.00    -0.646 OA
ENDBRANCH   6  10
ENDBRANCH   3   6
ENDBRANCH   1   2
BRANCH   1  13
HETATM   13  C           1     -20.605  -5.630  -5.405  0.00  0.00     0.081 C 
BRANCH  13  14
HETATM   14  C           1     -21.074  -5.101  -6.725  0.00  0.00    -0.056 A 
HETATM   15  C           1     -20.234  -5.162  -7.838  0.00  0.00     0.010 A 
HETATM   16  C           1     -20.670  -4.669  -9.067  0.00  0.00     0.038 A 
HETATM   17  C           1     -21.944  -4.115  -9.185  0.00  0.00     0.081 A 
HETATM   18  C           1     -22.784  -4.055  -8.072  0.00  0.00     0.038 A 
HETATM   19  C           1     -22.348  -4.547  -6.842  0.00  0.00     0.010 A 
BRANCH  17  20
HETATM   20  O           1     -22.368  -3.637 -10.379  0.00  0.00    -0.247 OA
BRANCH  20  21
HETATM   21  P           1     -23.678  -4.310 -11.045  0.00  0.00     0.411 P 
HETATM   22  O           1     -23.999  -5.568 -10.334  0.00  0.00    -0.624 OA
HETATM   23  O           1     -24.820  -3.376 -10.938  0.00  0.00    -0.624 OA
BRANCH  21  24
HETATM   24  O           1     -23.387  -4.630 -12.600  0.00  0.00    -0.300 OA
HETATM   25  H           1     -24.233  -4.618 -13.014  0.00  0.00     0.223 HD
ENDBRANCH  21  24
ENDBRANCH  20  21
ENDBRANCH  17  20
ENDBRANCH  13  14
ENDBRANCH   1  13
BRANCH   1  26
HETATM   26  N           1     -21.955  -5.994  -3.371  0.00  0.00    -0.066 N 
HETATM   27  H           1     -22.042  -4.953  -3.366  0.00  0.00     0.275 HD
HETATM   28  H           1     -22.838  -6.420  -3.011  0.00  0.00     0.275 HD
HETATM   29  H           1     -21.155  -6.280  -2.761  0.00  0.00     0.275 HD
ENDBRANCH   1  26
TORSDOF 11
ENDMDL
MODEL 5
REMARK VINA RESULT:      -6.8     13.983     15.473
REMARK  11 active torsions:
REMARK  status: ('A' for Active; 'I' for Inactive)
REMARK    1  A    between atoms: Se_1  and  C_2 
REMARK    2  A    between atoms: C_2  and  C_3 
REMARK    3  A    between atoms: C_3  and  C_4 
REMARK    4  A    between atoms: C_3  and  N_7 
REMARK       I    between atoms: N_7  and  C_8 
REMARK    5  A    between atoms: C_8  and  C_9 
REMARK    6  A    between atoms: C_9  and  C_10 
REMARK    7  A    between atoms: C_9  and  N_22 
REMARK    8  A    between atoms: C_10  and  C_11 
REMARK    9  A    between atoms: C_14  and  O_15 
REMARK   10  A    between atoms: O_15  and  P_16 
REMARK   11  A    between atoms: P_16  and  O_17 
ROOT
HETATM    1  C           1     -21.071  -5.719  -6.770  0.00  0.00     0.278 C 
ENDROOT
BRANCH   1   2
HETATM    2  C           1     -21.638  -4.532  -7.509  0.00  0.00     0.249 C 
HETATM    3  N           1     -22.266  -4.711  -8.712  0.00  0.00    -0.345 N 
HETATM    4  H           1     -22.349  -5.639  -9.106  0.00  0.00     0.163 HD
HETATM    5  O           1     -21.538  -3.424  -7.038  0.00  0.00    -0.271 OA
BRANCH   3   6
HETATM    6  C           1     -22.810  -3.570  -9.422  0.00  0.00     0.185 C 
BRANCH   6   7
HETATM    7  C           1     -22.109  -3.425 -10.767  0.00  0.00     0.039 C 
BRANCH   7   8
HETATM    8 Se           1     -20.406  -4.372 -10.717  0.00  0.00     0.000 Se
HETATM    9  H           1     -20.494  -4.692  -9.282  0.00  0.00     0.000 HD
ENDBRANCH   7   8
ENDBRANCH   6   7
BRANCH   6  10
HETATM   10  C           1     -24.288  -3.776  -9.647  0.00  0.00     0.196 C 
HETATM   11  O           1     -25.075  -2.808  -9.558  0.00  0.00    -0.646 OA
HETATM   12  O           1     -24.726  -4.914  -9.920  0.00  0.00    -0.646 OA
ENDBRANCH   6  10
ENDBRANCH   3   6
ENDBRANCH   1   2
BRANCH   1  13
HETATM   13  C           1     -20.744  -5.318  -5.338  0.00  0.00     0.081 C 
BRANCH  13  14
HETATM   14  C           1     -21.104  -6.437  -4.410  0.00  0.00    -0.056 A 
HETATM   15  C           1     -21.274  -6.185  -3.048  0.00  0.00     0.010 A 
HETATM   16  C           1     -21.609  -7.227  -2.184  0.00  0.00     0.038 A 
HETATM   17  C           1     -21.773  -8.520  -2.680  0.00  0.00     0.081 A 
HETATM   18  C           1     -21.603  -8.771  -4.041  0.00  0.00     0.038 A 
HETATM   19  C           1     -21.268  -7.730  -4.906  0.00  0.00     0.010 A 
BRANCH  17  20
HETATM   20  O           1     -22.099  -9.532  -1.840  0.00  0.00    -0.247 OA
BRANCH  20  21
HETATM   21  P           1     -20.905 -10.265  -1.036  0.00  0.00     0.411 P 
HETATM   22  O           1     -21.130 -11.728  -1.046  0.00  0.00    -0.624 OA
HETATM   23  O           1     -19.612  -9.959  -1.688  0.00  0.00    -0.624 OA
BRANCH  21  24
HETATM   24  O           1     -20.878  -9.736   0.489  0.00  0.00    -0.300 OA
HETATM   25  H           1     -19.981  -9.493   0.647  0.00  0.00     0.223 HD
ENDBRANCH  21  24
ENDBRANCH  20  21
ENDBRANCH  17  20
ENDBRANCH  13  14
ENDBRANCH   1  13
BRANCH   1  26
HETATM   26  N           1     -19.820  -6.184  -7.456  0.00  0.00    -0.066 N 
HETATM   27  H           1     -19.692  -7.208  -7.292  0.00  0.00     0.275 HD
HETATM   28  H           1     -19.899  -6.003  -8.482  0.00  0.00     0.275 HD
HETATM   29  H           1     -18.999  -5.664  -7.072  0.00  0.00     0.275 HD
ENDBRANCH   1  26
TORSDOF 11
ENDMDL
MODEL 6
REMARK VINA RESULT:      -6.7     13.104     14.567
REMARK  11 active torsions:
REMARK  status: ('A' for Active; 'I' for Inactive)
REMARK    1  A    between atoms: Se_1  and  C_2 
REMARK    2  A    between atoms: C_2  and  C_3 
REMARK    3  A    between atoms: C_3  and  C_4 
REMARK    4  A    between atoms: C_3  and  N_7 
REMARK       I    between atoms: N_7  and  C_8 
REMARK    5  A    between atoms: C_8  and  C_9 
REMARK    6  A    between atoms: C_9  and  C_10 
REMARK    7  A    between atoms: C_9  and  N_22 
REMARK    8  A    between atoms: C_10  and  C_11 
REMARK    9  A    between atoms: C_14  and  O_15 
REMARK   10  A    between atoms: O_15  and  P_16 
REMARK   11  A    between atoms: P_16  and  O_17 
ROOT
HETATM    1  C           1     -21.488  -6.678  -4.779  0.00  0.00     0.278 C 
ENDROOT
BRANCH   1   2
HETATM    2  C           1     -21.218  -8.143  -4.540  0.00  0.00     0.249 C 
HETATM    3  N           1     -20.542  -8.877  -5.476  0.00  0.00    -0.345 N 
HETATM    4  H           1     -20.222  -8.436  -6.329  0.00  0.00     0.163 HD
HETATM    5  O           1     -21.601  -8.669  -3.520  0.00  0.00    -0.271 OA
BRANCH   3   6
HETATM    6  C           1     -20.284 -10.284  -5.246  0.00  0.00     0.185 C 
BRANCH   6   7
HETATM    7  C           1     -21.266 -11.121  -6.057  0.00  0.00     0.039 C 
BRANCH   7   8
HETATM    8 Se           1     -21.810 -12.675  -5.014  0.00  0.00     0.000 Se
HETATM    9  H           1     -21.775 -11.966  -3.723  0.00  0.00     0.000 HD
ENDBRANCH   7   8
ENDBRANCH   6   7
BRANCH   6  10
HETATM   10  C           1     -18.874 -10.614  -5.673  0.00  0.00     0.196 C 
HETATM   11  O           1     -18.243  -9.824  -6.408  0.00  0.00    -0.646 OA
HETATM   12  O           1     -18.338 -11.676  -5.292  0.00  0.00    -0.646 OA
ENDBRANCH   6  10
ENDBRANCH   3   6
ENDBRANCH   1   2
BRANCH   1  13
HETATM   13  C           1     -20.354  -6.080  -5.603  0.00  0.00     0.081 C 
BRANCH  13  14
HETATM   14  C           1     -20.918  -5.392  -6.806  0.00  0.00    -0.056 A 
HETATM   15  C           1     -20.170  -5.318  -7.981  0.00  0.00     0.010 A 
HETATM   16  C           1     -20.695  -4.676  -9.103  0.00  0.00     0.038 A 
HETATM   17  C           1     -21.968  -4.108  -9.049  0.00  0.00     0.081 A 
HETATM   18  C           1     -22.716  -4.182  -7.874  0.00  0.00     0.038 A 
HETATM   19  C           1     -22.191  -4.823  -6.753  0.00  0.00     0.010 A 
BRANCH  17  20
HETATM   20  O           1     -22.478  -3.485 -10.138  0.00  0.00    -0.247 OA
BRANCH  20  21
HETATM   21  P           1     -23.672  -4.219 -10.943  0.00  0.00     0.411 P 
HETATM   22  O           1     -24.025  -5.482 -10.255  0.00  0.00    -0.624 OA
HETATM   23  O           1     -24.856  -3.331 -10.984  0.00  0.00    -0.624 OA
BRANCH  21  24
HETATM   24  O           1     -23.188  -4.543 -12.448  0.00  0.00    -0.300 OA
HETATM   25  H           1     -22.412  -5.068 -12.346  0.00  0.00     0.223 HD
ENDBRANCH  21  24
ENDBRANCH  20  21
ENDBRANCH  17  20
ENDBRANCH  13  14
ENDBRANCH   1  13
BRANCH   1  26
HETATM   26  N           1     -21.578  -5.964  -3.463  0.00  0.00    -0.066 N 
HETATM   27  H           1     -21.298  -6.613  -2.694  0.00  0.00     0.275 HD
HETATM   28  H           1     -20.940  -5.137  -3.471  0.00  0.00     0.275 HD
HETATM   29  H           1     -22.562  -5.644  -3.308  0.00  0.00     0.275 HD
ENDBRANCH   1  26
TORSDOF 11
ENDMDL
MODEL 7
REMARK VINA RESULT:      -6.5     13.690     14.872
REMARK  11 active torsions:
REMARK  status: ('A' for Active; 'I' for Inactive)
REMARK    1  A    between atoms: Se_1  and  C_2 
REMARK    2  A    between atoms: C_2  and  C_3 
REMARK    3  A    between atoms: C_3  and  C_4 
REMARK    4  A    between atoms: C_3  and  N_7 
REMARK       I    between atoms: N_7  and  C_8 
REMARK    5  A    between atoms: C_8  and  C_9 
REMARK    6  A    between atoms: C_9  and  C_10 
REMARK    7  A    between atoms: C_9  and  N_22 
REMARK    8  A    between atoms: C_10  and  C_11 
REMARK    9  A    between atoms: C_14  and  O_15 
REMARK   10  A    between atoms: O_15  and  P_16 
REMARK   11  A    between atoms: P_16  and  O_17 
ROOT
HETATM    1  C           1     -20.290  -7.665  -5.310  0.00  0.00     0.278 C 
ENDROOT
BRANCH   1   2
HETATM    2  C           1     -20.051  -8.362  -3.994  0.00  0.00     0.249 C 
HETATM    3  N           1     -21.041  -8.399  -3.049  0.00  0.00    -0.345 N 
HETATM    4  H           1     -21.933  -7.958  -3.234  0.00  0.00     0.163 HD
HETATM    5  O           1     -18.985  -8.888  -3.773  0.00  0.00    -0.271 OA
BRANCH   3   6
HETATM    6  C           1     -20.811  -9.068  -1.784  0.00  0.00     0.185 C 
BRANCH   6   7
HETATM    7  C           1     -21.209  -8.144  -0.640  0.00  0.00     0.039 C 
BRANCH   7   8
HETATM    8 Se           1     -22.217  -6.632  -1.345  0.00  0.00     0.000 Se
HETATM    9  H           1     -21.046  -5.993  -1.968  0.00  0.00     0.000 HD
ENDBRANCH   7   8
ENDBRANCH   6   7
BRANCH   6  10
HETATM   10  C           1     -21.640 -10.327  -1.723  0.00  0.00     0.196 C 
HETATM   11  O           1     -22.749 -10.318  -1.146  0.00  0.00    -0.646 OA
HETATM   12  O           1     -21.218 -11.379  -2.249  0.00  0.00    -0.646 OA
ENDBRANCH   6  10
ENDBRANCH   3   6
ENDBRANCH   1   2
BRANCH   1  13
HETATM   13  C           1     -20.777  -6.245  -5.053  0.00  0.00     0.081 C 
BRANCH  13  14
HETATM   14  C           1     -21.052  -5.565  -6.358  0.00  0.00    -0.056 A 
HETATM   15  C           1     -22.269  -4.915  -6.563  0.00  0.00     0.010 A 
HETATM   16  C           1     -22.525  -4.282  -7.779  0.00  0.00     0.038 A 
HETATM   17  C           1     -21.565  -4.300  -8.791  0.00  0.00     0.081 A 
HETATM   18  C           1     -20.348  -4.950  -8.586  0.00  0.00     0.038 A 
HETATM   19  C           1     -20.092  -5.583  -7.370  0.00  0.00     0.010 A 
BRANCH  17  20
HETATM   20  O           1     -21.814  -3.685  -9.972  0.00  0.00    -0.247 OA
BRANCH  20  21
HETATM   21  P           1     -23.125  -4.136 -10.801  0.00  0.00     0.411 P 
HETATM   22  O           1     -23.677  -5.378 -10.213  0.00  0.00    -0.624 OA
HETATM   23  O           1     -24.143  -3.063 -10.735  0.00  0.00    -0.624 OA
BRANCH  21  24
HETATM   24  O           1     -22.723  -4.404 -12.341  0.00  0.00    -0.300 OA
HETATM   25  H           1     -22.079  -5.091 -12.309  0.00  0.00     0.223 HD
ENDBRANCH  21  24
ENDBRANCH  20  21
ENDBRANCH  17  20
ENDBRANCH  13  14
ENDBRANCH   1  13
BRANCH   1  26
HETATM   26  N           1     -21.327  -8.415  -6.093  0.00  0.00    -0.066 N 
HETATM   27  H           1     -22.275  -8.046  -5.858  0.00  0.00     0.275 HD
HETATM   28  H           1     -21.148  -8.291  -7.115  0.00  0.00     0.275 HD
HETATM   29  H           1     -21.277  -9.431  -5.850  0.00  0.00     0.275 HD
ENDBRANCH   1  26
TORSDOF 11
ENDMDL
MODEL 8
REMARK VINA RESULT:      -6.4      2.636      3.438
REMARK  11 active torsions:
REMARK  status: ('A' for Active; 'I' for Inactive)
REMARK    1  A    between atoms: Se_1  and  C_2 
REMARK    2  A    between atoms: C_2  and  C_3 
REMARK    3  A    between atoms: C_3  and  C_4 
REMARK    4  A    between atoms: C_3  and  N_7 
REMARK       I    between atoms: N_7  and  C_8 
REMARK    5  A    between atoms: C_8  and  C_9 
REMARK    6  A    between atoms: C_9  and  C_10 
REMARK    7  A    between atoms: C_9  and  N_22 
REMARK    8  A    between atoms: C_10  and  C_11 
REMARK    9  A    between atoms: C_14  and  O_15 
REMARK   10  A    between atoms: O_15  and  P_16 
REMARK   11  A    between atoms: P_16  and  O_17 
ROOT
HETATM    1  C           1     -33.783  -4.111 -15.725  0.00  0.00     0.278 C 
ENDROOT
BRANCH   1   2
HETATM    2  C           1     -34.528  -2.970 -15.075  0.00  0.00     0.249 C 
HETATM    3  N           1     -34.969  -1.920 -15.834  0.00  0.00    -0.345 N 
HETATM    4  H           1     -34.796  -1.909 -16.831  0.00  0.00     0.163 HD
HETATM    5  O           1     -34.734  -2.984 -13.884  0.00  0.00    -0.271 OA
BRANCH   3   6
HETATM    6  C           1     -35.683  -0.824 -15.210  0.00  0.00     0.185 C 
BRANCH   6   7
HETATM    7  C           1     -34.688   0.228 -14.736  0.00  0.00     0.039 C 
BRANCH   7   8
HETATM    8 Se           1     -34.888   0.492 -12.815  0.00  0.00     0.000 Se
HETATM    9  H           1     -34.339   1.858 -12.829  0.00  0.00     0.000 HD
ENDBRANCH   7   8
ENDBRANCH   6   7
BRANCH   6  10
HETATM   10  C           1     -36.628  -0.205 -16.211  0.00  0.00     0.196 C 
HETATM   11  O           1     -37.199  -0.924 -17.060  0.00  0.00    -0.646 OA
HETATM   12  O           1     -36.839   1.027 -16.192  0.00  0.00    -0.646 OA
ENDBRANCH   6  10
ENDBRANCH   3   6
ENDBRANCH   1   2
BRANCH   1  13
HETATM   13  C           1     -33.237  -3.659 -17.073  0.00  0.00     0.081 C 
BRANCH  13  14
HETATM   14  C           1     -31.879  -4.253 -17.287  0.00  0.00    -0.056 A 
HETATM   15  C           1     -31.691  -5.629 -17.149  0.00  0.00     0.010 A 
HETATM   16  C           1     -30.427  -6.183 -17.348  0.00  0.00     0.038 A 
HETATM   17  C           1     -29.351  -5.362 -17.683  0.00  0.00     0.081 A 
HETATM   18  C           1     -29.539  -3.987 -17.821  0.00  0.00     0.038 A 
HETATM   19  C           1     -30.803  -3.433 -17.622  0.00  0.00     0.010 A 
BRANCH  17  20
HETATM   20  O           1     -28.123  -5.900 -17.877  0.00  0.00    -0.247 OA
BRANCH  20  21
HETATM   21  P           1     -27.198  -6.168 -16.579  0.00  0.00     0.411 P 
HETATM   22  O           1     -25.773  -6.149 -16.977  0.00  0.00    -0.624 OA
HETATM   23  O           1     -27.445  -5.111 -15.572  0.00  0.00    -0.624 OA
BRANCH  21  24
HETATM   24  O           1     -27.560  -7.609 -15.947  0.00  0.00    -0.300 OA
HETATM   25  H           1     -28.272  -7.934 -16.473  0.00  0.00     0.223 HD
ENDBRANCH  21  24
ENDBRANCH  20  21
ENDBRANCH  17  20
ENDBRANCH  13  14
ENDBRANCH   1  13
BRANCH   1  26
HETATM   26  N           1     -34.718  -5.267 -15.927  0.00  0.00    -0.066 N 
HETATM   27  H           1     -35.698  -4.962 -15.732  0.00  0.00     0.275 HD
HETATM   28  H           1     -34.647  -5.602 -16.914  0.00  0.00     0.275 HD
HETATM   29  H           1     -34.458  -6.042 -15.275  0.00  0.00     0.275 HD
ENDBRANCH   1  26
TORSDOF 11
ENDMDL
MODEL 9
REMARK VINA RESULT:      -6.3     13.812     14.900
REMARK  11 active torsions:
REMARK  status: ('A' for Active; 'I' for Inactive)
REMARK    1  A    between atoms: Se_1  and  C_2 
REMARK    2  A    between atoms: C_2  and  C_3 
REMARK    3  A    between atoms: C_3  and  C_4 
REMARK    4  A    between atoms: C_3  and  N_7 
REMARK       I    between atoms: N_7  and  C_8 
REMARK    5  A    between atoms: C_8  and  C_9 
REMARK    6  A    between atoms: C_9  and  C_10 
REMARK    7  A    between atoms: C_9  and  N_22 
REMARK    8  A    between atoms: C_10  and  C_11 
REMARK    9  A    between atoms: C_14  and  O_15 
REMARK   10  A    between atoms: O_15  and  P_16 
REMARK   11  A    between atoms: P_16  and  O_17 
ROOT
HETATM    1  C           1     -20.575  -7.413  -4.950  0.00  0.00     0.278 C 
ENDROOT
BRANCH   1   2
HETATM    2  C           1     -21.204  -8.253  -3.866  0.00  0.00     0.249 C 
HETATM    3  N           1     -21.045  -7.906  -2.551  0.00  0.00    -0.345 N 
HETATM    4  H           1     -20.505  -7.085  -2.307  0.00  0.00     0.163 HD
HETATM    5  O           1     -21.849  -9.233  -4.158  0.00  0.00    -0.271 OA
BRANCH   3   6
HETATM    6  C           1     -21.648  -8.713  -1.510  0.00  0.00     0.185 C 
BRANCH   6   7
HETATM    7  C           1     -20.595  -9.631  -0.903  0.00  0.00     0.039 C 
BRANCH   7   8
HETATM    8 Se           1     -21.239 -11.471  -0.939  0.00  0.00     0.000 Se
HETATM    9  H           1     -22.288 -11.246   0.069  0.00  0.00     0.000 HD
ENDBRANCH   7   8
ENDBRANCH   6   7
BRANCH   6  10
HETATM   10  C           1     -22.207  -7.812  -0.436  0.00  0.00     0.196 C 
HETATM   11  O           1     -22.798  -6.756  -0.751  0.00  0.00    -0.646 OA
HETATM   12  O           1     -22.079  -8.122   0.768  0.00  0.00    -0.646 OA
ENDBRANCH   6  10
ENDBRANCH   3   6
ENDBRANCH   1   2
BRANCH   1  13
HETATM   13  C           1     -20.834  -5.939  -4.666  0.00  0.00     0.081 C 
BRANCH  13  14
HETATM   14  C           1     -21.071  -5.215  -5.955  0.00  0.00    -0.056 A 
HETATM   15  C           1     -22.368  -5.085  -6.453  0.00  0.00     0.010 A 
HETATM   16  C           1     -22.589  -4.411  -7.653  0.00  0.00     0.038 A 
HETATM   17  C           1     -21.514  -3.868  -8.357  0.00  0.00     0.081 A 
HETATM   18  C           1     -20.217  -3.998  -7.859  0.00  0.00     0.038 A 
HETATM   19  C           1     -19.996  -4.672  -6.658  0.00  0.00     0.010 A 
BRANCH  17  20
HETATM   20  O           1     -21.729  -3.213  -9.523  0.00  0.00    -0.247 OA
BRANCH  20  21
HETATM   21  P           1     -21.566  -4.042 -10.900  0.00  0.00     0.411 P 
HETATM   22  O           1     -20.369  -4.910 -10.814  0.00  0.00    -0.624 OA
HETATM   23  O           1     -22.768  -4.878 -11.117  0.00  0.00    -0.624 OA
BRANCH  21  24
HETATM   24  O           1     -21.396  -3.013 -12.132  0.00  0.00    -0.300 OA
HETATM   25  H           1     -20.721  -2.415 -11.859  0.00  0.00     0.223 HD
ENDBRANCH  21  24
ENDBRANCH  20  21
ENDBRANCH  17  20
ENDBRANCH  13  14
ENDBRANCH   1  13
BRANCH   1  26
HETATM   26  N           1     -21.173  -7.778  -6.276  0.00  0.00    -0.066 N 
HETATM   27  H           1     -20.948  -8.774  -6.498  0.00  0.00     0.275 HD
HETATM   28  H           1     -22.210  -7.657  -6.235  0.00  0.00     0.275 HD
HETATM   29  H           1     -20.778  -7.157  -7.019  0.00  0.00     0.275 HD
ENDBRANCH   1  26
TORSDOF 11
ENDMDL
