MODEL 1
REMARK VINA RESULT:      -6.4      0.000      0.000
REMARK  9 active torsions:
REMARK  status: ('A' for Active; 'I' for Inactive)
REMARK    1  A    between atoms: C_1  and  C_4 
REMARK       I    between atoms: N_2  and  C_16 
REMARK    2  A    between atoms: C_3  and  C_16 
REMARK    3  A    between atoms: C_3  and  C_4 
REMARK    4  A    between atoms: C_4  and  N_23 
REMARK    5  A    between atoms: N_5  and  C_17 
REMARK    6  A    between atoms: C_12  and  C_17 
REMARK    7  A    between atoms: C_12  and  C_22 
REMARK       I    between atoms: C_14  and  N_23 
REMARK    8  A    between atoms: C_14  and  C_17 
REMARK    9  A    between atoms: C_21  and  C_22 
ROOT
HETATM    1  O           1     -21.582  -3.507  -7.129  0.00  0.00    -0.271 OA
HETATM    2  H           1     -22.662  -5.636  -9.165  0.00  0.00     0.163 HD
HETATM    3  C           1     -21.770  -4.598  -7.612  0.00  0.00     0.249 C 
HETATM    4  N           1     -22.505  -4.722  -8.760  0.00  0.00    -0.344 N 
ENDROOT
BRANCH   3   5
HETATM    5  C           1     -21.193  -5.824  -6.950  0.00  0.00     0.275 C 
BRANCH   5   6
HETATM    6  N           1     -19.813  -6.077  -7.482  0.00  0.00    -0.066 N 
HETATM    7  H           1     -19.138  -5.425  -7.025  0.00  0.00     0.275 HD
HETATM    8  H           1     -19.537  -7.064  -7.278  0.00  0.00     0.275 HD
HETATM    9  H           1     -19.805  -5.919  -8.515  0.00  0.00     0.275 HD
ENDBRANCH   5   6
BRANCH   5  10
HETATM   10  C           1     -21.123  -5.605  -5.445  0.00  0.00     0.053 C 
BRANCH  10  11
HETATM   11  C           1     -22.102  -6.542  -4.748  0.00  0.00     0.115 C 
BRANCH  11  12
HETATM   12  C           1     -21.773  -6.612  -3.277  0.00  0.00     0.172 C 
HETATM   13  O           1     -22.399  -5.901  -2.462  0.00  0.00    -0.648 OA
HETATM   14  O           1     -20.873  -7.380  -2.874  0.00  0.00    -0.648 OA
ENDBRANCH  11  12
ENDBRANCH  10  11
ENDBRANCH   5  10
ENDBRANCH   3   5
BRANCH   4  15
HETATM   15  C           1     -23.060  -3.543  -9.397  0.00  0.00     0.194 C 
BRANCH  15  16
HETATM   16  C           1     -24.396  -3.885 -10.010  0.00  0.00     0.197 C 
HETATM   17  O           1     -24.935  -4.984  -9.759  0.00  0.00    -0.646 OA
HETATM   18  O           1     -24.962  -3.068 -10.768  0.00  0.00    -0.646 OA
ENDBRANCH  15  16
BRANCH  15  19
HETATM   19  C           1     -22.110  -3.060 -10.484  0.00  0.00     0.138 C 
BRANCH  19  20
HETATM   20  C           1     -21.555  -4.248 -11.233  0.00  0.00     0.217 C 
HETATM   21  N           1     -22.255  -4.782 -12.281  0.00  0.00    -0.370 N 
HETATM   22  H           1     -23.143  -4.381 -12.554  0.00  0.00     0.159 HD
HETATM   23  H           1     -21.884  -5.579 -12.783  0.00  0.00     0.159 HD
HETATM   24  O           1     -20.495  -4.726 -10.907  0.00  0.00    -0.274 OA
ENDBRANCH  19  20
ENDBRANCH  15  19
ENDBRANCH   4  15
TORSDOF 9
ENDMDL
MODEL 2
REMARK VINA RESULT:      -6.2      1.673      2.117
REMARK  9 active torsions:
REMARK  status: ('A' for Active; 'I' for Inactive)
REMARK    1  A    between atoms: C_1  and  C_4 
REMARK       I    between atoms: N_2  and  C_16 
REMARK    2  A    between atoms: C_3  and  C_16 
REMARK    3  A    between atoms: C_3  and  C_4 
REMARK    4  A    between atoms: C_4  and  N_23 
REMARK    5  A    between atoms: N_5  and  C_17 
REMARK    6  A    between atoms: C_12  and  C_17 
REMARK    7  A    between atoms: C_12  and  C_22 
REMARK       I    between atoms: C_14  and  N_23 
REMARK    8  A    between atoms: C_14  and  C_17 
REMARK    9  A    between atoms: C_21  and  C_22 
ROOT
HETATM    1  O           1     -21.699  -3.083  -7.596  0.00  0.00    -0.271 OA
HETATM    2  H           1     -22.879  -5.763  -8.721  0.00  0.00     0.163 HD
HETATM    3  C           1     -22.006  -4.251  -7.610  0.00  0.00     0.249 C 
HETATM    4  N           1     -22.623  -4.784  -8.709  0.00  0.00    -0.344 N 
ENDROOT
BRANCH   3   5
HETATM    5  C           1     -21.709  -5.122  -6.415  0.00  0.00     0.275 C 
BRANCH   5   6
HETATM    6  N           1     -22.997  -5.571  -5.791  0.00  0.00    -0.066 N 
HETATM    7  H           1     -23.797  -5.086  -6.255  0.00  0.00     0.275 HD
HETATM    8  H           1     -23.100  -6.604  -5.909  0.00  0.00     0.275 HD
HETATM    9  H           1     -22.991  -5.335  -4.772  0.00  0.00     0.275 HD
ENDBRANCH   5   6
BRANCH   5  10
HETATM   10  C           1     -20.909  -6.340  -6.858  0.00  0.00     0.053 C 
BRANCH  10  11
HETATM   11  C           1     -20.199  -6.947  -5.655  0.00  0.00     0.115 C 
BRANCH  11  12
HETATM   12  C           1     -20.895  -8.224  -5.251  0.00  0.00     0.172 C 
HETATM   13  O           1     -20.483  -9.324  -5.679  0.00  0.00    -0.648 OA
HETATM   14  O           1     -21.884  -8.182  -4.488  0.00  0.00    -0.648 OA
ENDBRANCH  11  12
ENDBRANCH  10  11
ENDBRANCH   5  10
ENDBRANCH   3   5
BRANCH   4  15
HETATM   15  C           1     -22.908  -3.947  -9.858  0.00  0.00     0.194 C 
BRANCH  15  16
HETATM   16  C           1     -24.393  -3.951 -10.126  0.00  0.00     0.197 C 
HETATM   17  O           1     -24.900  -3.067 -10.850  0.00  0.00    -0.646 OA
HETATM   18  O           1     -25.116  -4.839  -9.624  0.00  0.00    -0.646 OA
ENDBRANCH  15  16
BRANCH  15  19
HETATM   19  C           1     -22.170  -4.487 -11.076  0.00  0.00     0.138 C 
BRANCH  19  20
HETATM   20  C           1     -20.719  -4.079 -11.007  0.00  0.00     0.217 C 
HETATM   21  N           1     -20.315  -2.894 -11.561  0.00  0.00    -0.370 N 
HETATM   22  H           1     -20.989  -2.292 -12.016  0.00  0.00     0.159 HD
HETATM   23  H           1     -19.341  -2.620 -11.515  0.00  0.00     0.159 HD
HETATM   24  O           1     -19.914  -4.797 -10.463  0.00  0.00    -0.274 OA
ENDBRANCH  19  20
ENDBRANCH  15  19
ENDBRANCH   4  15
TORSDOF 9
ENDMDL
MODEL 3
REMARK VINA RESULT:      -6.0     12.735     15.477
REMARK  9 active torsions:
REMARK  status: ('A' for Active; 'I' for Inactive)
REMARK    1  A    between atoms: C_1  and  C_4 
REMARK       I    between atoms: N_2  and  C_16 
REMARK    2  A    between atoms: C_3  and  C_16 
REMARK    3  A    between atoms: C_3  and  C_4 
REMARK    4  A    between atoms: C_4  and  N_23 
REMARK    5  A    between atoms: N_5  and  C_17 
REMARK    6  A    between atoms: C_12  and  C_17 
REMARK    7  A    between atoms: C_12  and  C_22 
REMARK       I    between atoms: C_14  and  N_23 
REMARK    8  A    between atoms: C_14  and  C_17 
REMARK    9  A    between atoms: C_21  and  C_22 
ROOT
HETATM    1  O           1     -36.605  -1.627 -11.669  0.00  0.00    -0.271 OA
HETATM    2  H           1     -34.006  -1.415 -13.414  0.00  0.00     0.163 HD
HETATM    3  C           1     -35.806  -1.136 -12.431  0.00  0.00     0.249 C 
HETATM    4  N           1     -34.675  -1.825 -12.775  0.00  0.00    -0.344 N 
ENDROOT
BRANCH   3   5
HETATM    5  C           1     -36.057   0.236 -13.005  0.00  0.00     0.275 C 
BRANCH   5   6
HETATM    6  N           1     -34.758   0.832 -13.463  0.00  0.00    -0.066 N 
HETATM    7  H           1     -34.879   1.858 -13.613  0.00  0.00     0.275 HD
HETATM    8  H           1     -34.025   0.670 -12.735  0.00  0.00     0.275 HD
HETATM    9  H           1     -34.466   0.380 -14.359  0.00  0.00     0.275 HD
ENDBRANCH   5   6
BRANCH   5  10
HETATM   10  C           1     -37.010   0.128 -14.187  0.00  0.00     0.053 C 
BRANCH  10  11
HETATM   11  C           1     -36.292   0.560 -15.460  0.00  0.00     0.115 C 
BRANCH  11  12
HETATM   12  C           1     -35.928  -0.659 -16.272  0.00  0.00     0.172 C 
HETATM   13  O           1     -34.972  -1.383 -15.918  0.00  0.00    -0.648 OA
HETATM   14  O           1     -36.582  -0.945 -17.297  0.00  0.00    -0.648 OA
ENDBRANCH  11  12
ENDBRANCH  10  11
ENDBRANCH   5  10
ENDBRANCH   3   5
BRANCH   4  15
HETATM   15  C           1     -34.434  -3.145 -12.224  0.00  0.00     0.194 C 
BRANCH  15  16
HETATM   16  C           1     -33.830  -3.011 -10.847  0.00  0.00     0.197 C 
HETATM   17  O           1     -33.380  -1.908 -10.467  0.00  0.00    -0.646 OA
HETATM   18  O           1     -33.779  -4.003 -10.088  0.00  0.00    -0.646 OA
ENDBRANCH  15  16
BRANCH  15  19
HETATM   19  C           1     -33.473  -3.905 -13.128  0.00  0.00     0.138 C 
BRANCH  19  20
HETATM   20  C           1     -34.235  -4.491 -14.292  0.00  0.00     0.217 C 
HETATM   21  N           1     -33.912  -4.129 -15.572  0.00  0.00    -0.370 N 
HETATM   22  H           1     -33.164  -3.468 -15.738  0.00  0.00     0.159 HD
HETATM   23  H           1     -34.423  -4.521 -16.353  0.00  0.00     0.159 HD
HETATM   24  O           1     -35.129  -5.279 -14.094  0.00  0.00    -0.274 OA
ENDBRANCH  19  20
ENDBRANCH  15  19
ENDBRANCH   4  15
TORSDOF 9
ENDMDL
MODEL 4
REMARK VINA RESULT:      -5.9     12.122     14.629
REMARK  9 active torsions:
REMARK  status: ('A' for Active; 'I' for Inactive)
REMARK    1  A    between atoms: C_1  and  C_4 
REMARK       I    between atoms: N_2  and  C_16 
REMARK    2  A    between atoms: C_3  and  C_16 
REMARK    3  A    between atoms: C_3  and  C_4 
REMARK    4  A    between atoms: C_4  and  N_23 
REMARK    5  A    between atoms: N_5  and  C_17 
REMARK    6  A    between atoms: C_12  and  C_17 
REMARK    7  A    between atoms: C_12  and  C_22 
REMARK       I    between atoms: C_14  and  N_23 
REMARK    8  A    between atoms: C_14  and  C_17 
REMARK    9  A    between atoms: C_21  and  C_22 
ROOT
HETATM    1  O           1     -34.035  -1.829 -10.361  0.00  0.00    -0.271 OA
HETATM    2  H           1     -36.236  -3.463 -11.886  0.00  0.00     0.163 HD
HETATM    3  C           1     -35.091  -2.045 -10.906  0.00  0.00     0.249 C 
HETATM    4  N           1     -35.351  -3.283 -11.430  0.00  0.00    -0.344 N 
ENDROOT
BRANCH   3   5
HETATM    5  C           1     -36.123  -0.950 -11.009  0.00  0.00     0.275 C 
BRANCH   5   6
HETATM    6  N           1     -36.259  -0.265  -9.681  0.00  0.00    -0.066 N 
HETATM    7  H           1     -35.311  -0.109  -9.271  0.00  0.00     0.275 HD
HETATM    8  H           1     -36.738   0.655  -9.811  0.00  0.00     0.275 HD
HETATM    9  H           1     -36.823  -0.865  -9.037  0.00  0.00     0.275 HD
ENDBRANCH   5   6
BRANCH   5  10
HETATM   10  C           1     -35.689   0.063 -12.060  0.00  0.00     0.053 C 
BRANCH  10  11
HETATM   11  C           1     -36.396  -0.234 -13.376  0.00  0.00     0.115 C 
BRANCH  11  12
HETATM   12  C           1     -35.371  -0.447 -14.462  0.00  0.00     0.172 C 
HETATM   13  O           1     -35.400  -1.488 -15.154  0.00  0.00    -0.648 OA
HETATM   14  O           1     -34.493   0.417 -14.671  0.00  0.00    -0.648 OA
ENDBRANCH  11  12
ENDBRANCH  10  11
ENDBRANCH   5  10
ENDBRANCH   3   5
BRANCH   4  15
HETATM   15  C           1     -34.358  -4.335 -11.331  0.00  0.00     0.194 C 
BRANCH  15  16
HETATM   16  C           1     -33.320  -4.149 -12.410  0.00  0.00     0.197 C 
HETATM   17  O           1     -32.116  -4.383 -12.165  0.00  0.00    -0.646 OA
HETATM   18  O           1     -33.663  -3.762 -13.548  0.00  0.00    -0.646 OA
ENDBRANCH  15  16
BRANCH  15  19
HETATM   19  C           1     -35.035  -5.688 -11.504  0.00  0.00     0.138 C 
BRANCH  19  20
HETATM   20  C           1     -34.431  -6.681 -10.541  0.00  0.00     0.217 C 
HETATM   21  N           1     -33.169  -7.163 -10.760  0.00  0.00    -0.370 N 
HETATM   22  H           1     -32.641  -6.855 -11.566  0.00  0.00     0.159 HD
HETATM   23  H           1     -32.763  -7.829 -10.114  0.00  0.00     0.159 HD
HETATM   24  O           1     -35.060  -7.048  -9.578  0.00  0.00    -0.274 OA
ENDBRANCH  19  20
ENDBRANCH  15  19
ENDBRANCH   4  15
TORSDOF 9
ENDMDL
MODEL 5
REMARK VINA RESULT:      -5.8      2.151      6.756
REMARK  9 active torsions:
REMARK  status: ('A' for Active; 'I' for Inactive)
REMARK    1  A    between atoms: C_1  and  C_4 
REMARK       I    between atoms: N_2  and  C_16 
REMARK    2  A    between atoms: C_3  and  C_16 
REMARK    3  A    between atoms: C_3  and  C_4 
REMARK    4  A    between atoms: C_4  and  N_23 
REMARK    5  A    between atoms: N_5  and  C_17 
REMARK    6  A    between atoms: C_12  and  C_17 
REMARK    7  A    between atoms: C_12  and  C_22 
REMARK       I    between atoms: C_14  and  N_23 
REMARK    8  A    between atoms: C_14  and  C_17 
REMARK    9  A    between atoms: C_21  and  C_22 
ROOT
HETATM    1  O           1     -19.708  -4.501  -6.416  0.00  0.00    -0.271 OA
HETATM    2  H           1     -22.440  -6.000  -6.781  0.00  0.00     0.163 HD
HETATM    3  C           1     -20.776  -4.776  -6.909  0.00  0.00     0.249 C 
HETATM    4  N           1     -21.545  -5.771  -6.368  0.00  0.00    -0.344 N 
ENDROOT
BRANCH   3   5
HETATM    5  C           1     -21.263  -4.021  -8.121  0.00  0.00     0.275 C 
BRANCH   5   6
HETATM    6  N           1     -20.167  -3.962  -9.145  0.00  0.00    -0.066 N 
HETATM    7  H           1     -20.095  -2.991  -9.522  0.00  0.00     0.275 HD
HETATM    8  H           1     -19.261  -4.232  -8.701  0.00  0.00     0.275 HD
HETATM    9  H           1     -20.385  -4.623  -9.925  0.00  0.00     0.275 HD
ENDBRANCH   5   6
BRANCH   5  10
HETATM   10  C           1     -22.471  -4.733  -8.713  0.00  0.00     0.053 C 
BRANCH  10  11
HETATM   11  C           1     -23.608  -3.735  -8.899  0.00  0.00     0.115 C 
BRANCH  11  12
HETATM   12  C           1     -23.952  -3.631 -10.365  0.00  0.00     0.172 C 
HETATM   13  O           1     -25.079  -3.219 -10.715  0.00  0.00    -0.648 OA
HETATM   14  O           1     -23.110  -3.957 -11.229  0.00  0.00    -0.648 OA
ENDBRANCH  11  12
ENDBRANCH  10  11
ENDBRANCH   5  10
ENDBRANCH   3   5
BRANCH   4  15
HETATM   15  C           1     -21.077  -6.496  -5.203  0.00  0.00     0.194 C 
BRANCH  15  16
HETATM   16  C           1     -20.506  -7.825  -5.634  0.00  0.00     0.197 C 
HETATM   17  O           1     -21.244  -8.832  -5.692  0.00  0.00    -0.646 OA
HETATM   18  O           1     -19.296  -7.918  -5.932  0.00  0.00    -0.646 OA
ENDBRANCH  15  16
BRANCH  15  19
HETATM   19  C           1     -22.241  -6.728  -4.249  0.00  0.00     0.138 C 
BRANCH  19  20
HETATM   20  C           1     -21.762  -6.586  -2.825  0.00  0.00     0.217 C 
HETATM   21  N           1     -20.841  -7.465  -2.323  0.00  0.00    -0.370 N 
HETATM   22  H           1     -20.481  -8.210  -2.906  0.00  0.00     0.159 HD
HETATM   23  H           1     -20.519  -7.370  -1.368  0.00  0.00     0.159 HD
HETATM   24  O           1     -22.191  -5.697  -2.129  0.00  0.00    -0.274 OA
ENDBRANCH  19  20
ENDBRANCH  15  19
ENDBRANCH   4  15
TORSDOF 9
ENDMDL
MODEL 6
REMARK VINA RESULT:      -5.8      2.285      7.127
REMARK  9 active torsions:
REMARK  status: ('A' for Active; 'I' for Inactive)
REMARK    1  A    between atoms: C_1  and  C_4 
REMARK       I    between atoms: N_2  and  C_16 
REMARK    2  A    between atoms: C_3  and  C_16 
REMARK    3  A    between atoms: C_3  and  C_4 
REMARK    4  A    between atoms: C_4  and  N_23 
REMARK    5  A    between atoms: N_5  and  C_17 
REMARK    6  A    between atoms: C_12  and  C_17 
REMARK    7  A    between atoms: C_12  and  C_22 
REMARK       I    between atoms: C_14  and  N_23 
REMARK    8  A    between atoms: C_14  and  C_17 
REMARK    9  A    between atoms: C_21  and  C_22 
ROOT
HETATM    1  O           1     -20.652  -4.586  -5.933  0.00  0.00    -0.271 OA
HETATM    2  H           1     -21.834  -7.360  -6.799  0.00  0.00     0.163 HD
HETATM    3  C           1     -21.243  -5.385  -6.620  0.00  0.00     0.249 C 
HETATM    4  N           1     -21.338  -6.691  -6.224  0.00  0.00    -0.344 N 
ENDROOT
BRANCH   3   5
HETATM    5  C           1     -21.877  -4.941  -7.915  0.00  0.00     0.275 C 
BRANCH   5   6
HETATM    6  N           1     -23.112  -4.142  -7.619  0.00  0.00    -0.066 N 
HETATM    7  H           1     -23.784  -4.728  -7.076  0.00  0.00     0.275 HD
HETATM    8  H           1     -22.854  -3.297  -7.060  0.00  0.00     0.275 HD
HETATM    9  H           1     -23.556  -3.844  -8.517  0.00  0.00     0.275 HD
ENDBRANCH   5   6
BRANCH   5  10
HETATM   10  C           1     -20.892  -4.082  -8.696  0.00  0.00     0.053 C 
BRANCH  10  11
HETATM   11  C           1     -20.969  -4.437 -10.176  0.00  0.00     0.115 C 
BRANCH  11  12
HETATM   12  C           1     -21.906  -3.483 -10.875  0.00  0.00     0.172 C 
HETATM   13  O           1     -21.447  -2.573 -11.599  0.00  0.00    -0.648 OA
HETATM   14  O           1     -23.142  -3.602 -10.730  0.00  0.00    -0.648 OA
ENDBRANCH  11  12
ENDBRANCH  10  11
ENDBRANCH   5  10
ENDBRANCH   3   5
BRANCH   4  15
HETATM   15  C           1     -20.729  -7.117  -4.979  0.00  0.00     0.194 C 
BRANCH  15  16
HETATM   16  C           1     -19.818  -8.291  -5.241  0.00  0.00     0.197 C 
HETATM   17  O           1     -19.894  -9.314  -4.526  0.00  0.00    -0.646 OA
HETATM   18  O           1     -18.987  -8.241  -6.174  0.00  0.00    -0.646 OA
ENDBRANCH  15  16
BRANCH  15  19
HETATM   19  C           1     -21.818  -7.528  -3.996  0.00  0.00     0.138 C 
BRANCH  19  20
HETATM   20  C           1     -21.544  -6.902  -2.651  0.00  0.00     0.217 C 
HETATM   21  N           1     -22.293  -5.836  -2.228  0.00  0.00    -0.370 N 
HETATM   22  H           1     -23.028  -5.469  -2.818  0.00  0.00     0.159 HD
HETATM   23  H           1     -22.110  -5.415  -1.326  0.00  0.00     0.159 HD
HETATM   24  O           1     -20.666  -7.340  -1.947  0.00  0.00    -0.274 OA
ENDBRANCH  19  20
ENDBRANCH  15  19
ENDBRANCH   4  15
TORSDOF 9
ENDMDL
MODEL 7
REMARK VINA RESULT:      -5.7      2.953      4.861
REMARK  9 active torsions:
REMARK  status: ('A' for Active; 'I' for Inactive)
REMARK    1  A    between atoms: C_1  and  C_4 
REMARK       I    between atoms: N_2  and  C_16 
REMARK    2  A    between atoms: C_3  and  C_16 
REMARK    3  A    between atoms: C_3  and  C_4 
REMARK    4  A    between atoms: C_4  and  N_23 
REMARK    5  A    between atoms: N_5  and  C_17 
REMARK    6  A    between atoms: C_12  and  C_17 
REMARK    7  A    between atoms: C_12  and  C_22 
REMARK       I    between atoms: C_14  and  N_23 
REMARK    8  A    between atoms: C_14  and  C_17 
REMARK    9  A    between atoms: C_21  and  C_22 
ROOT
HETATM    1  O           1     -21.528  -7.635  -4.752  0.00  0.00    -0.271 OA
HETATM    2  H           1     -20.835  -4.578  -4.611  0.00  0.00     0.163 HD
HETATM    3  C           1     -21.280  -6.566  -4.246  0.00  0.00     0.249 C 
HETATM    4  N           1     -21.042  -5.473  -5.035  0.00  0.00    -0.344 N 
ENDROOT
BRANCH   3   5
HETATM    5  C           1     -21.231  -6.437  -2.744  0.00  0.00     0.275 C 
BRANCH   5   6
HETATM    6  N           1     -22.517  -5.839  -2.252  0.00  0.00    -0.066 N 
HETATM    7  H           1     -23.053  -6.559  -1.718  0.00  0.00     0.275 HD
HETATM    8  H           1     -22.308  -5.026  -1.630  0.00  0.00     0.275 HD
HETATM    9  H           1     -23.085  -5.518  -3.069  0.00  0.00     0.275 HD
ENDBRANCH   5   6
BRANCH   5  10
HETATM   10  C           1     -21.041  -7.812  -2.120  0.00  0.00     0.053 C 
BRANCH  10  11
HETATM   11  C           1     -21.705  -7.846  -0.750  0.00  0.00     0.115 C 
BRANCH  11  12
HETATM   12  C           1     -22.544  -9.095  -0.627  0.00  0.00     0.172 C 
HETATM   13  O           1     -23.448  -9.159   0.234  0.00  0.00    -0.648 OA
HETATM   14  O           1     -22.334 -10.065  -1.386  0.00  0.00    -0.648 OA
ENDBRANCH  11  12
ENDBRANCH  10  11
ENDBRANCH   5  10
ENDBRANCH   3   5
BRANCH   4  15
HETATM   15  C           1     -21.089  -5.598  -6.479  0.00  0.00     0.194 C 
BRANCH  15  16
HETATM   16  C           1     -19.688  -5.770  -7.014  0.00  0.00     0.197 C 
HETATM   17  O           1     -19.023  -4.769  -7.357  0.00  0.00    -0.646 OA
HETATM   18  O           1     -19.193  -6.914  -7.113  0.00  0.00    -0.646 OA
ENDBRANCH  15  16
BRANCH  15  19
HETATM   19  C           1     -21.710  -4.343  -7.077  0.00  0.00     0.138 C 
BRANCH  19  20
HETATM   20  C           1     -23.211  -4.496  -7.121  0.00  0.00     0.217 C 
HETATM   21  N           1     -23.920  -3.981  -8.173  0.00  0.00    -0.370 N 
HETATM   22  H           1     -23.438  -3.497  -8.920  0.00  0.00     0.159 HD
HETATM   23  H           1     -24.926  -4.083  -8.203  0.00  0.00     0.159 HD
HETATM   24  O           1     -23.786  -5.073  -6.229  0.00  0.00    -0.274 OA
ENDBRANCH  19  20
ENDBRANCH  15  19
ENDBRANCH   4  15
TORSDOF 9
ENDMDL
MODEL 8
REMARK VINA RESULT:      -5.6      3.541      8.261
REMARK  9 active torsions:
REMARK  status: ('A' for Active; 'I' for Inactive)
REMARK    1  A    between atoms: C_1  and  C_4 
REMARK       I    between atoms: N_2  and  C_16 
REMARK    2  A    between atoms: C_3  and  C_16 
REMARK    3  A    between atoms: C_3  and  C_4 
REMARK    4  A    between atoms: C_4  and  N_23 
REMARK    5  A    between atoms: N_5  and  C_17 
REMARK    6  A    between atoms: C_12  and  C_17 
REMARK    7  A    between atoms: C_12  and  C_22 
REMARK       I    between atoms: C_14  and  N_23 
REMARK    8  A    between atoms: C_14  and  C_17 
REMARK    9  A    between atoms: C_21  and  C_22 
ROOT
HETATM    1  O           1     -19.789  -8.443  -4.119  0.00  0.00    -0.271 OA
HETATM    2  H           1     -22.611  -7.920  -2.852  0.00  0.00     0.163 HD
HETATM    3  C           1     -20.922  -8.029  -4.042  0.00  0.00     0.249 C 
HETATM    4  N           1     -21.663  -8.268  -2.917  0.00  0.00    -0.344 N 
ENDROOT
BRANCH   3   5
HETATM    5  C           1     -21.517  -7.247  -5.186  0.00  0.00     0.275 C 
BRANCH   5   6
HETATM    6  N           1     -22.494  -6.242  -4.650  0.00  0.00    -0.066 N 
HETATM    7  H           1     -22.255  -6.019  -3.658  0.00  0.00     0.275 HD
HETATM    8  H           1     -22.447  -5.370  -5.224  0.00  0.00     0.275 HD
HETATM    9  H           1     -23.460  -6.639  -4.694  0.00  0.00     0.275 HD
ENDBRANCH   5   6
BRANCH   5  10
HETATM   10  C           1     -20.409  -6.524  -5.940  0.00  0.00     0.053 C 
BRANCH  10  11
HETATM   11  C           1     -20.502  -5.028  -5.669  0.00  0.00     0.115 C 
BRANCH  11  12
HETATM   12  C           1     -21.025  -4.325  -6.898  0.00  0.00     0.172 C 
HETATM   13  O           1     -20.237  -3.718  -7.655  0.00  0.00    -0.648 OA
HETATM   14  O           1     -22.247  -4.349  -7.158  0.00  0.00    -0.648 OA
ENDBRANCH  11  12
ENDBRANCH  10  11
ENDBRANCH   5  10
ENDBRANCH   3   5
BRANCH   4  15
HETATM   15  C           1     -21.091  -9.020  -1.817  0.00  0.00     0.194 C 
BRANCH  15  16
HETATM   16  C           1     -21.911 -10.264  -1.578  0.00  0.00     0.197 C 
HETATM   17  O           1     -22.535 -10.792  -2.524  0.00  0.00    -0.646 OA
HETATM   18  O           1     -21.966 -10.766  -0.435  0.00  0.00    -0.646 OA
ENDBRANCH  15  16
BRANCH  15  19
HETATM   19  C           1     -21.093  -8.160  -0.560  0.00  0.00     0.138 C 
BRANCH  19  20
HETATM   20  C           1     -22.427  -7.465  -0.428  0.00  0.00     0.217 C 
HETATM   21  N           1     -23.393  -7.990   0.387  0.00  0.00    -0.370 N 
HETATM   22  H           1     -23.214  -8.844   0.900  0.00  0.00     0.159 HD
HETATM   23  H           1     -24.288  -7.524   0.476  0.00  0.00     0.159 HD
HETATM   24  O           1     -22.640  -6.446  -1.040  0.00  0.00    -0.274 OA
ENDBRANCH  19  20
ENDBRANCH  15  19
ENDBRANCH   4  15
TORSDOF 9
ENDMDL
MODEL 9
REMARK VINA RESULT:      -5.5      2.174      6.655
REMARK  9 active torsions:
REMARK  status: ('A' for Active; 'I' for Inactive)
REMARK    1  A    between atoms: C_1  and  C_4 
REMARK       I    between atoms: N_2  and  C_16 
REMARK    2  A    between atoms: C_3  and  C_16 
REMARK    3  A    between atoms: C_3  and  C_4 
REMARK    4  A    between atoms: C_4  and  N_23 
REMARK    5  A    between atoms: N_5  and  C_17 
REMARK    6  A    between atoms: C_12  and  C_17 
REMARK    7  A    between atoms: C_12  and  C_22 
REMARK       I    between atoms: C_14  and  N_23 
REMARK    8  A    between atoms: C_14  and  C_17 
REMARK    9  A    between atoms: C_21  and  C_22 
ROOT
HETATM    1  O           1     -22.537  -5.576  -5.585  0.00  0.00    -0.271 OA
HETATM    2  H           1     -19.873  -6.984  -4.714  0.00  0.00     0.163 HD
HETATM    3  C           1     -21.356  -5.828  -5.577  0.00  0.00     0.249 C 
HETATM    4  N           1     -20.862  -6.773  -4.720  0.00  0.00    -0.344 N 
ENDROOT
BRANCH   3   5
HETATM    5  C           1     -20.424  -5.098  -6.514  0.00  0.00     0.275 C 
BRANCH   5   6
HETATM    6  N           1     -19.883  -6.061  -7.530  0.00  0.00    -0.066 N 
HETATM    7  H           1     -20.452  -6.002  -8.403  0.00  0.00     0.275 HD
HETATM    8  H           1     -18.890  -5.819  -7.744  0.00  0.00     0.275 HD
HETATM    9  H           1     -19.932  -7.033  -7.148  0.00  0.00     0.275 HD
ENDBRANCH   5   6
BRANCH   5  10
HETATM   10  C           1     -21.184  -3.986  -7.223  0.00  0.00     0.053 C 
BRANCH  10  11
HETATM   11  C           1     -21.241  -4.282  -8.717  0.00  0.00     0.115 C 
BRANCH  11  12
HETATM   12  C           1     -22.681  -4.415  -9.149  0.00  0.00     0.172 C 
HETATM   13  O           1     -23.602  -4.136  -8.350  0.00  0.00    -0.648 OA
HETATM   14  O           1     -22.953  -4.803 -10.305  0.00  0.00    -0.648 OA
ENDBRANCH  11  12
ENDBRANCH  10  11
ENDBRANCH   5  10
ENDBRANCH   3   5
BRANCH   4  15
HETATM   15  C           1     -21.758  -7.474  -3.820  0.00  0.00     0.194 C 
BRANCH  15  16
HETATM   16  C           1     -21.651  -6.876  -2.439  0.00  0.00     0.197 C 
HETATM   17  O           1     -20.904  -7.402  -1.586  0.00  0.00    -0.646 OA
HETATM   18  O           1     -22.310  -5.854  -2.148  0.00  0.00    -0.646 OA
ENDBRANCH  15  16
BRANCH  15  19
HETATM   19  C           1     -21.373  -8.947  -3.767  0.00  0.00     0.138 C 
BRANCH  19  20
HETATM   20  C           1     -20.121  -9.170  -4.580  0.00  0.00     0.217 C 
HETATM   21  N           1     -20.202  -9.762  -5.811  0.00  0.00    -0.370 N 
HETATM   22  H           1     -21.101 -10.051  -6.176  0.00  0.00     0.159 HD
HETATM   23  H           1     -19.363  -9.912  -6.357  0.00  0.00     0.159 HD
HETATM   24  O           1     -19.048  -8.825  -4.144  0.00  0.00    -0.274 OA
ENDBRANCH  19  20
ENDBRANCH  15  19
ENDBRANCH   4  15
TORSDOF 9
ENDMDL
