MODEL 1
REMARK VINA RESULT:      -8.2      0.000      0.000
REMARK  5 active torsions:
REMARK  status: ('A' for Active; 'I' for Inactive)
REMARK    1  A    between atoms: C_1  and  C_2 
REMARK       I    between atoms: C_9  and  N_19 
REMARK    2  A    between atoms: C_9  and  C_11 
REMARK    3  A    between atoms: C_11  and  C_13 
REMARK    4  A    between atoms: C_11  and  N_21 
REMARK    5  A    between atoms: C_13  and  C_18 
ROOT
HETATM    1  C           1     -21.246  -6.045  -5.403  0.00  0.00     0.279 C 
ENDROOT
BRANCH   1   2
HETATM    2  C           1     -20.281  -7.174  -5.669  0.00  0.00     0.251 C 
HETATM    3  N           1     -20.274  -8.275  -4.854  0.00  0.00    -0.336 N 
HETATM    4  C           1     -19.113  -8.957  -4.290  0.00  0.00     0.188 C 
HETATM    5  C           1     -21.427  -9.023  -4.360  0.00  0.00     0.127 C 
HETATM    6  C           1     -19.543  -9.290  -2.872  0.00  0.00     0.038 C 
HETATM    7  C           1     -21.066  -9.338  -2.920  0.00  0.00     0.022 C 
HETATM    8  O           1     -19.515  -7.108  -6.600  0.00  0.00    -0.271 OA
BRANCH   4   9
HETATM    9  C           1     -18.799 -10.212  -5.066  0.00  0.00     0.196 C 
HETATM   10  O           1     -18.707 -10.170  -6.312  0.00  0.00    -0.646 OA
HETATM   11  O           1     -18.630 -11.295  -4.463  0.00  0.00    -0.646 OA
ENDBRANCH   4   9
ENDBRANCH   1   2
BRANCH   1  12
HETATM   12  C           1     -20.812  -4.810  -6.180  0.00  0.00     0.083 C 
BRANCH  12  13
HETATM   13  C           1     -21.795  -4.537  -7.276  0.00  0.00    -0.028 A 
HETATM   14  C           1     -23.152  -4.374  -7.126  0.00  0.00     0.096 A 
HETATM   15  N           1     -23.687  -4.143  -8.366  0.00  0.00    -0.365 N 
HETATM   16  C           1     -22.695  -4.154  -9.321  0.00  0.00     0.042 A 
HETATM   17  H           1     -24.705  -3.982  -8.560  0.00  0.00     0.165 HD
HETATM   18  C           1     -22.770  -3.966 -10.706  0.00  0.00     0.030 A 
HETATM   19  C           1     -21.492  -4.401  -8.659  0.00  0.00    -0.002 A 
HETATM   20  C           1     -21.577  -4.033 -11.433  0.00  0.00     0.002 A 
HETATM   21  C           1     -20.362  -4.278 -10.799  0.00  0.00     0.001 A 
HETATM   22  C           1     -20.304  -4.463  -9.413  0.00  0.00     0.014 A 
ENDBRANCH  12  13
ENDBRANCH   1  12
BRANCH   1  23
HETATM   23  N           1     -21.259  -5.734  -3.936  0.00  0.00    -0.066 N 
HETATM   24  H           1     -21.885  -6.409  -3.442  0.00  0.00     0.275 HD
HETATM   25  H           1     -20.290  -5.817  -3.554  0.00  0.00     0.275 HD
HETATM   26  H           1     -21.611  -4.761  -3.790  0.00  0.00     0.275 HD
ENDBRANCH   1  23
TORSDOF 5
ENDMDL
MODEL 2
REMARK VINA RESULT:      -8.0      2.931      7.562
REMARK  5 active torsions:
REMARK  status: ('A' for Active; 'I' for Inactive)
REMARK    1  A    between atoms: C_1  and  C_2 
REMARK       I    between atoms: C_9  and  N_19 
REMARK    2  A    between atoms: C_9  and  C_11 
REMARK    3  A    between atoms: C_11  and  C_13 
REMARK    4  A    between atoms: C_11  and  N_21 
REMARK    5  A    between atoms: C_13  and  C_18 
ROOT
HETATM    1  C           1     -20.907  -5.090  -6.959  0.00  0.00     0.279 C 
ENDROOT
BRANCH   1   2
HETATM    2  C           1     -22.232  -4.679  -7.552  0.00  0.00     0.251 C 
HETATM    3  N           1     -22.343  -4.470  -8.901  0.00  0.00    -0.336 N 
HETATM    4  C           1     -23.009  -3.362  -9.578  0.00  0.00     0.188 C 
HETATM    5  C           1     -21.820  -5.308  -9.976  0.00  0.00     0.127 C 
HETATM    6  C           1     -22.077  -3.026 -10.728  0.00  0.00     0.038 C 
HETATM    7  C           1     -21.297  -4.309 -10.993  0.00  0.00     0.022 C 
HETATM    8  O           1     -23.195  -4.535  -6.838  0.00  0.00    -0.271 OA
BRANCH   4   9
HETATM    9  C           1     -24.365  -3.783 -10.089  0.00  0.00     0.196 C 
HETATM   10  O           1     -24.955  -3.086 -10.943  0.00  0.00    -0.646 OA
HETATM   11  O           1     -24.899  -4.829  -9.660  0.00  0.00    -0.646 OA
ENDBRANCH   4   9
ENDBRANCH   1   2
BRANCH   1  12
HETATM   12  C           1     -20.965  -4.961  -5.443  0.00  0.00     0.083 C 
BRANCH  12  13
HETATM   13  C           1     -20.826  -6.315  -4.820  0.00  0.00    -0.028 A 
HETATM   14  C           1     -20.242  -7.418  -5.398  0.00  0.00     0.096 A 
HETATM   15  N           1     -20.318  -8.451  -4.502  0.00  0.00    -0.365 N 
HETATM   16  C           1     -20.943  -8.035  -3.349  0.00  0.00     0.042 A 
HETATM   17  H           1     -19.952  -9.420  -4.671  0.00  0.00     0.165 HD
HETATM   18  C           1     -21.239  -8.740  -2.175  0.00  0.00     0.030 A 
HETATM   19  C           1     -21.274  -6.691  -3.523  0.00  0.00    -0.002 A 
HETATM   20  C           1     -21.892  -8.045  -1.152  0.00  0.00     0.002 A 
HETATM   21  C           1     -22.234  -6.703  -1.299  0.00  0.00     0.001 A 
HETATM   22  C           1     -21.931  -6.013  -2.479  0.00  0.00     0.014 A 
ENDBRANCH  12  13
ENDBRANCH   1  12
BRANCH   1  23
HETATM   23  N           1     -19.823  -4.203  -7.495  0.00  0.00    -0.066 N 
HETATM   24  H           1     -19.477  -4.585  -8.404  0.00  0.00     0.275 HD
HETATM   25  H           1     -20.203  -3.241  -7.645  0.00  0.00     0.275 HD
HETATM   26  H           1     -19.034  -4.165  -6.810  0.00  0.00     0.275 HD
ENDBRANCH   1  23
TORSDOF 5
ENDMDL
MODEL 3
REMARK VINA RESULT:      -7.6      2.607      3.372
REMARK  5 active torsions:
REMARK  status: ('A' for Active; 'I' for Inactive)
REMARK    1  A    between atoms: C_1  and  C_2 
REMARK       I    between atoms: C_9  and  N_19 
REMARK    2  A    between atoms: C_9  and  C_11 
REMARK    3  A    between atoms: C_11  and  C_13 
REMARK    4  A    between atoms: C_11  and  N_21 
REMARK    5  A    between atoms: C_13  and  C_18 
ROOT
HETATM    1  C           1     -21.006  -6.798  -5.113  0.00  0.00     0.279 C 
ENDROOT
BRANCH   1   2
HETATM    2  C           1     -21.519  -6.915  -3.699  0.00  0.00     0.251 C 
HETATM    3  N           1     -21.074  -7.928  -2.892  0.00  0.00    -0.336 N 
HETATM    4  C           1     -21.872  -8.786  -2.022  0.00  0.00     0.188 C 
HETATM    5  C           1     -19.700  -8.386  -2.715  0.00  0.00     0.127 C 
HETATM    6  C           1     -21.257 -10.162  -2.206  0.00  0.00     0.038 C 
HETATM    7  C           1     -19.825  -9.898  -2.657  0.00  0.00     0.022 C 
HETATM    8  O           1     -22.319  -6.115  -3.279  0.00  0.00    -0.271 OA
BRANCH   4   9
HETATM    9  C           1     -21.768  -8.338  -0.585  0.00  0.00     0.196 C 
HETATM   10  O           1     -22.135  -7.187  -0.261  0.00  0.00    -0.646 OA
HETATM   11  O           1     -21.317  -9.117   0.283  0.00  0.00    -0.646 OA
ENDBRANCH   4   9
ENDBRANCH   1   2
BRANCH   1  12
HETATM   12  C           1     -21.771  -5.702  -5.844  0.00  0.00     0.083 C 
BRANCH  12  13
HETATM   13  C           1     -20.917  -5.141  -6.938  0.00  0.00    -0.028 A 
HETATM   14  C           1     -19.571  -4.872  -6.860  0.00  0.00     0.096 A 
HETATM   15  N           1     -19.172  -4.372  -8.071  0.00  0.00    -0.365 N 
HETATM   16  C           1     -20.241  -4.311  -8.936  0.00  0.00     0.042 A 
HETATM   17  H           1     -18.192  -4.076  -8.306  0.00  0.00     0.165 HD
HETATM   18  C           1     -20.307  -3.872 -10.264  0.00  0.00     0.030 A 
HETATM   19  C           1     -21.354  -4.791  -8.246  0.00  0.00    -0.002 A 
HETATM   20  C           1     -21.551  -3.927 -10.902  0.00  0.00     0.002 A 
HETATM   21  C           1     -22.679  -4.402 -10.237  0.00  0.00     0.001 A 
HETATM   22  C           1     -22.596  -4.837  -8.909  0.00  0.00     0.014 A 
ENDBRANCH  12  13
ENDBRANCH   1  12
BRANCH   1  23
HETATM   23  N           1     -21.201  -8.103  -5.825  0.00  0.00    -0.066 N 
HETATM   24  H           1     -21.145  -8.888  -5.137  0.00  0.00     0.275 HD
HETATM   25  H           1     -22.140  -8.112  -6.285  0.00  0.00     0.275 HD
HETATM   26  H           1     -20.456  -8.220  -6.549  0.00  0.00     0.275 HD
ENDBRANCH   1  23
TORSDOF 5
ENDMDL
MODEL 4
REMARK VINA RESULT:      -7.2      2.860      4.247
REMARK  5 active torsions:
REMARK  status: ('A' for Active; 'I' for Inactive)
REMARK    1  A    between atoms: C_1  and  C_2 
REMARK       I    between atoms: C_9  and  N_19 
REMARK    2  A    between atoms: C_9  and  C_11 
REMARK    3  A    between atoms: C_11  and  C_13 
REMARK    4  A    between atoms: C_11  and  N_21 
REMARK    5  A    between atoms: C_13  and  C_18 
ROOT
HETATM    1  C           1     -19.929  -8.582  -3.538  0.00  0.00     0.279 C 
ENDROOT
BRANCH   1   2
HETATM    2  C           1     -21.018  -9.510  -3.058  0.00  0.00     0.251 C 
HETATM    3  N           1     -21.578  -9.324  -1.822  0.00  0.00    -0.336 N 
HETATM    4  C           1     -21.866 -10.341  -0.814  0.00  0.00     0.188 C 
HETATM    5  C           1     -22.018  -8.067  -1.224  0.00  0.00     0.127 C 
HETATM    6  C           1     -21.473  -9.677   0.493  0.00  0.00     0.038 C 
HETATM    7  C           1     -21.578  -8.180   0.225  0.00  0.00     0.022 C 
HETATM    8  O           1     -21.395 -10.414  -3.762  0.00  0.00    -0.271 OA
BRANCH   4   9
HETATM    9  C           1     -23.332 -10.700  -0.817  0.00  0.00     0.196 C 
HETATM   10  O           1     -23.851 -11.199  -1.839  0.00  0.00    -0.646 OA
HETATM   11  O           1     -24.027 -10.499   0.202  0.00  0.00    -0.646 OA
ENDBRANCH   4   9
ENDBRANCH   1   2
BRANCH   1  12
HETATM   12  C           1     -20.031  -8.417  -5.049  0.00  0.00     0.083 C 
BRANCH  12  13
HETATM   13  C           1     -20.928  -7.262  -5.367  0.00  0.00    -0.028 A 
HETATM   14  C           1     -22.191  -7.053  -4.864  0.00  0.00     0.096 A 
HETATM   15  N           1     -22.670  -5.888  -5.401  0.00  0.00    -0.365 N 
HETATM   16  C           1     -21.735  -5.336  -6.248  0.00  0.00     0.042 A 
HETATM   17  H           1     -23.613  -5.476  -5.198  0.00  0.00     0.165 HD
HETATM   18  C           1     -21.786  -4.162  -7.010  0.00  0.00     0.030 A 
HETATM   19  C           1     -20.627  -6.184  -6.244  0.00  0.00    -0.002 A 
HETATM   20  C           1     -20.668  -3.849  -7.790  0.00  0.00     0.002 A 
HETATM   21  C           1     -19.547  -4.677  -7.805  0.00  0.00     0.001 A 
HETATM   22  C           1     -19.513  -5.847  -7.037  0.00  0.00     0.014 A 
ENDBRANCH  12  13
ENDBRANCH   1  12
BRANCH   1  23
HETATM   23  N           1     -18.590  -9.158  -3.187  0.00  0.00    -0.066 N 
HETATM   24  H           1     -18.672  -9.721  -2.310  0.00  0.00     0.275 HD
HETATM   25  H           1     -18.261  -9.773  -3.965  0.00  0.00     0.275 HD
HETATM   26  H           1     -17.905  -8.383  -3.040  0.00  0.00     0.275 HD
ENDBRANCH   1  23
TORSDOF 5
ENDMDL
MODEL 5
REMARK VINA RESULT:      -7.2      2.484      7.255
REMARK  5 active torsions:
REMARK  status: ('A' for Active; 'I' for Inactive)
REMARK    1  A    between atoms: C_1  and  C_2 
REMARK       I    between atoms: C_9  and  N_19 
REMARK    2  A    between atoms: C_9  and  C_11 
REMARK    3  A    between atoms: C_11  and  C_13 
REMARK    4  A    between atoms: C_11  and  N_21 
REMARK    5  A    between atoms: C_13  and  C_18 
ROOT
HETATM    1  C           1     -21.680  -5.113  -6.266  0.00  0.00     0.279 C 
ENDROOT
BRANCH   1   2
HETATM    2  C           1     -21.235  -5.081  -7.708  0.00  0.00     0.251 C 
HETATM    3  N           1     -22.052  -4.538  -8.664  0.00  0.00    -0.336 N 
HETATM    4  C           1     -22.366  -5.084  -9.980  0.00  0.00     0.188 C 
HETATM    5  C           1     -22.799  -3.285  -8.588  0.00  0.00     0.127 C 
HETATM    6  C           1     -23.850  -4.806 -10.144  0.00  0.00     0.038 C 
HETATM    7  C           1     -24.133  -3.618  -9.231  0.00  0.00     0.022 C 
HETATM    8  O           1     -20.160  -5.533  -8.019  0.00  0.00    -0.271 OA
BRANCH   4   9
HETATM    9  C           1     -21.567  -4.389 -11.055  0.00  0.00     0.196 C 
HETATM   10  O           1     -20.351  -4.155 -10.877  0.00  0.00    -0.646 OA
HETATM   11  O           1     -22.118  -4.048 -12.124  0.00  0.00    -0.646 OA
ENDBRANCH   4   9
ENDBRANCH   1   2
BRANCH   1  12
HETATM   12  C           1     -20.468  -5.304  -5.364  0.00  0.00     0.083 C 
BRANCH  12  13
HETATM   13  C           1     -20.560  -6.631  -4.679  0.00  0.00    -0.028 A 
HETATM   14  C           1     -20.083  -7.829  -5.161  0.00  0.00     0.096 A 
HETATM   15  N           1     -20.367  -8.797  -4.234  0.00  0.00    -0.365 N 
HETATM   16  C           1     -21.022  -8.246  -3.156  0.00  0.00     0.042 A 
HETATM   17  H           1     -20.121  -9.812  -4.333  0.00  0.00     0.165 HD
HETATM   18  C           1     -21.501  -8.847  -1.985  0.00  0.00     0.030 A 
HETATM   19  C           1     -21.156  -6.881  -3.411  0.00  0.00    -0.002 A 
HETATM   20  C           1     -22.137  -8.023  -1.050  0.00  0.00     0.002 A 
HETATM   21  C           1     -22.284  -6.657  -1.279  0.00  0.00     0.001 A 
HETATM   22  C           1     -21.799  -6.072  -2.454  0.00  0.00     0.014 A 
ENDBRANCH  12  13
ENDBRANCH   1  12
BRANCH   1  23
HETATM   23  N           1     -22.637  -6.249  -6.064  0.00  0.00    -0.066 N 
HETATM   24  H           1     -22.121  -7.156  -6.126  0.00  0.00     0.275 HD
HETATM   25  H           1     -23.082  -6.167  -5.122  0.00  0.00     0.275 HD
HETATM   26  H           1     -23.376  -6.218  -6.804  0.00  0.00     0.275 HD
ENDBRANCH   1  23
TORSDOF 5
ENDMDL
MODEL 6
REMARK VINA RESULT:      -7.2      4.230      6.358
REMARK  5 active torsions:
REMARK  status: ('A' for Active; 'I' for Inactive)
REMARK    1  A    between atoms: C_1  and  C_2 
REMARK       I    between atoms: C_9  and  N_19 
REMARK    2  A    between atoms: C_9  and  C_11 
REMARK    3  A    between atoms: C_11  and  C_13 
REMARK    4  A    between atoms: C_11  and  N_21 
REMARK    5  A    between atoms: C_13  and  C_18 
ROOT
HETATM    1  C           1     -19.791  -8.261  -4.937  0.00  0.00     0.279 C 
ENDROOT
BRANCH   1   2
HETATM    2  C           1     -19.131  -9.591  -5.203  0.00  0.00     0.251 C 
HETATM    3  N           1     -18.030  -9.966  -4.480  0.00  0.00    -0.336 N 
HETATM    4  C           1     -16.796 -10.562  -4.983  0.00  0.00     0.188 C 
HETATM    5  C           1     -17.834  -9.857  -3.037  0.00  0.00     0.127 C 
HETATM    6  C           1     -15.707  -9.870  -4.182  0.00  0.00     0.038 C 
HETATM    7  C           1     -16.390  -9.410  -2.899  0.00  0.00     0.022 C 
HETATM    8  O           1     -19.574 -10.326  -6.052  0.00  0.00    -0.271 OA
BRANCH   4   9
HETATM    9  C           1     -16.780 -12.051  -4.738  0.00  0.00     0.196 C 
HETATM   10  O           1     -17.747 -12.755  -5.104  0.00  0.00    -0.646 OA
HETATM   11  O           1     -15.801 -12.582  -4.171  0.00  0.00    -0.646 OA
ENDBRANCH   4   9
ENDBRANCH   1   2
BRANCH   1  12
HETATM   12  C           1     -21.263  -8.478  -4.615  0.00  0.00     0.083 C 
BRANCH  12  13
HETATM   13  C           1     -21.643  -7.646  -3.430  0.00  0.00    -0.028 A 
HETATM   14  C           1     -21.890  -6.292  -3.434  0.00  0.00     0.096 A 
HETATM   15  N           1     -22.205  -5.919  -2.154  0.00  0.00    -0.365 N 
HETATM   16  C           1     -22.166  -7.012  -1.318  0.00  0.00     0.042 A 
HETATM   17  H           1     -22.441  -4.941  -1.855  0.00  0.00     0.165 HD
HETATM   18  C           1     -22.413  -7.108   0.057  0.00  0.00     0.030 A 
HETATM   19  C           1     -21.814  -8.113  -2.098  0.00  0.00    -0.002 A 
HETATM   20  C           1     -22.296  -8.370   0.649  0.00  0.00     0.002 A 
HETATM   21  C           1     -21.947  -9.487  -0.106  0.00  0.00     0.001 A 
HETATM   22  C           1     -21.704  -9.374  -1.480  0.00  0.00     0.014 A 
ENDBRANCH  12  13
ENDBRANCH   1  12
BRANCH   1  23
HETATM   23  N           1     -19.668  -7.391  -6.152  0.00  0.00    -0.066 N 
HETATM   24  H           1     -18.831  -6.771  -6.055  0.00  0.00     0.275 HD
HETATM   25  H           1     -19.558  -7.991  -7.001  0.00  0.00     0.275 HD
HETATM   26  H           1     -20.527  -6.803  -6.248  0.00  0.00     0.275 HD
ENDBRANCH   1  23
TORSDOF 5
ENDMDL
MODEL 7
REMARK VINA RESULT:      -7.1      2.434      7.509
REMARK  5 active torsions:
REMARK  status: ('A' for Active; 'I' for Inactive)
REMARK    1  A    between atoms: C_1  and  C_2 
REMARK       I    between atoms: C_9  and  N_19 
REMARK    2  A    between atoms: C_9  and  C_11 
REMARK    3  A    between atoms: C_11  and  C_13 
REMARK    4  A    between atoms: C_11  and  N_21 
REMARK    5  A    between atoms: C_13  and  C_18 
ROOT
HETATM    1  C           1     -21.596  -6.170  -4.913  0.00  0.00     0.279 C 
ENDROOT
BRANCH   1   2
HETATM    2  C           1     -20.798  -6.043  -6.187  0.00  0.00     0.251 C 
HETATM    3  N           1     -21.177  -5.141  -7.145  0.00  0.00    -0.336 N 
HETATM    4  C           1     -21.263  -5.357  -8.587  0.00  0.00     0.188 C 
HETATM    5  C           1     -21.585  -3.753  -6.948  0.00  0.00     0.127 C 
HETATM    6  C           1     -22.537  -4.634  -8.987  0.00  0.00     0.038 C 
HETATM    7  C           1     -22.746  -3.575  -7.910  0.00  0.00     0.022 C 
HETATM    8  O           1     -19.825  -6.736  -6.362  0.00  0.00    -0.271 OA
BRANCH   4   9
HETATM    9  C           1     -20.065  -4.767  -9.290  0.00  0.00     0.196 C 
HETATM   10  O           1     -19.109  -4.315  -8.623  0.00  0.00    -0.646 OA
HETATM   11  O           1     -20.028  -4.729 -10.539  0.00  0.00    -0.646 OA
ENDBRANCH   4   9
ENDBRANCH   1   2
BRANCH   1  12
HETATM   12  C           1     -21.168  -7.426  -4.167  0.00  0.00     0.083 C 
BRANCH  12  13
HETATM   13  C           1     -21.528  -7.295  -2.720  0.00  0.00    -0.028 A 
HETATM   14  C           1     -22.134  -6.210  -2.130  0.00  0.00     0.096 A 
HETATM   15  N           1     -22.288  -6.489  -0.797  0.00  0.00    -0.365 N 
HETATM   16  C           1     -21.789  -7.740  -0.513  0.00  0.00     0.042 A 
HETATM   17  H           1     -22.722  -5.841  -0.095  0.00  0.00     0.165 HD
HETATM   18  C           1     -21.732  -8.437   0.701  0.00  0.00     0.030 A 
HETATM   19  C           1     -21.304  -8.270  -1.709  0.00  0.00    -0.002 A 
HETATM   20  C           1     -21.160  -9.713   0.686  0.00  0.00     0.002 A 
HETATM   21  C           1     -20.668 -10.267  -0.493  0.00  0.00     0.001 A 
HETATM   22  C           1     -20.733  -9.557  -1.698  0.00  0.00     0.014 A 
ENDBRANCH  12  13
ENDBRANCH   1  12
BRANCH   1  23
HETATM   23  N           1     -23.056  -6.259  -5.245  0.00  0.00    -0.066 N 
HETATM   24  H           1     -23.566  -5.468  -4.792  0.00  0.00     0.275 HD
HETATM   25  H           1     -23.181  -6.204  -6.281  0.00  0.00     0.275 HD
HETATM   26  H           1     -23.438  -7.167  -4.894  0.00  0.00     0.275 HD
ENDBRANCH   1  23
TORSDOF 5
ENDMDL
MODEL 8
REMARK VINA RESULT:      -7.1     14.012     15.372
REMARK  5 active torsions:
REMARK  status: ('A' for Active; 'I' for Inactive)
REMARK    1  A    between atoms: C_1  and  C_2 
REMARK       I    between atoms: C_9  and  N_19 
REMARK    2  A    between atoms: C_9  and  C_11 
REMARK    3  A    between atoms: C_11  and  C_13 
REMARK    4  A    between atoms: C_11  and  N_21 
REMARK    5  A    between atoms: C_13  and  C_18 
ROOT
HETATM    1  C           1     -33.910  -4.777 -15.239  0.00  0.00     0.279 C 
ENDROOT
BRANCH   1   2
HETATM    2  C           1     -34.260  -3.619 -14.337  0.00  0.00     0.251 C 
HETATM    3  N           1     -34.028  -3.708 -12.990  0.00  0.00    -0.336 N 
HETATM    4  C           1     -34.926  -3.320 -11.906  0.00  0.00     0.188 C 
HETATM    5  C           1     -32.830  -4.210 -12.325  0.00  0.00     0.127 C 
HETATM    6  C           1     -34.755  -4.426 -10.880  0.00  0.00     0.038 C 
HETATM    7  C           1     -33.372  -5.009 -11.153  0.00  0.00     0.022 C 
HETATM    8  O           1     -34.743  -2.615 -14.802  0.00  0.00    -0.271 OA
BRANCH   4   9
HETATM    9  C           1     -34.526  -1.984 -11.330  0.00  0.00     0.196 C 
HETATM   10  O           1     -34.545  -0.962 -12.049  0.00  0.00    -0.646 OA
HETATM   11  O           1     -34.175  -1.899 -10.132  0.00  0.00    -0.646 OA
ENDBRANCH   4   9
ENDBRANCH   1   2
BRANCH   1  12
HETATM   12  C           1     -33.257  -4.252 -16.511  0.00  0.00     0.083 C 
BRANCH  12  13
HETATM   13  C           1     -32.187  -5.201 -16.951  0.00  0.00    -0.028 A 
HETATM   14  C           1     -32.350  -6.540 -17.222  0.00  0.00     0.096 A 
HETATM   15  N           1     -31.131  -7.045 -17.592  0.00  0.00    -0.365 N 
HETATM   16  C           1     -30.178  -6.053 -17.565  0.00  0.00     0.042 A 
HETATM   17  H           1     -30.951  -8.044 -17.857  0.00  0.00     0.165 HD
HETATM   18  C           1     -28.810  -6.104 -17.863  0.00  0.00     0.030 A 
HETATM   19  C           1     -30.817  -4.880 -17.164  0.00  0.00    -0.002 A 
HETATM   20  C           1     -28.079  -4.917 -17.745  0.00  0.00     0.002 A 
HETATM   21  C           1     -28.692  -3.731 -17.347  0.00  0.00     0.001 A 
HETATM   22  C           1     -30.060  -3.698 -17.054  0.00  0.00     0.014 A 
ENDBRANCH  12  13
ENDBRANCH   1  12
BRANCH   1  23
HETATM   23  N           1     -35.158  -5.530 -15.592  0.00  0.00    -0.066 N 
HETATM   24  H           1     -34.905  -6.405 -16.105  0.00  0.00     0.275 HD
HETATM   25  H           1     -35.675  -5.777 -14.718  0.00  0.00     0.275 HD
HETATM   26  H           1     -35.765  -4.933 -16.200  0.00  0.00     0.275 HD
ENDBRANCH   1  23
TORSDOF 5
ENDMDL
MODEL 9
REMARK VINA RESULT:      -7.0      3.059      4.150
REMARK  5 active torsions:
REMARK  status: ('A' for Active; 'I' for Inactive)
REMARK    1  A    between atoms: C_1  and  C_2 
REMARK       I    between atoms: C_9  and  N_19 
REMARK    2  A    between atoms: C_9  and  C_11 
REMARK    3  A    between atoms: C_11  and  C_13 
REMARK    4  A    between atoms: C_11  and  N_21 
REMARK    5  A    between atoms: C_13  and  C_18 
ROOT
HETATM    1  C           1     -22.013  -7.319  -2.585  0.00  0.00     0.279 C 
ENDROOT
BRANCH   1   2
HETATM    2  C           1     -21.422  -8.226  -1.534  0.00  0.00     0.251 C 
HETATM    3  N           1     -21.965  -9.465  -1.315  0.00  0.00    -0.336 N 
HETATM    4  C           1     -22.265 -10.090  -0.031  0.00  0.00     0.188 C 
HETATM    5  C           1     -22.371 -10.447  -2.316  0.00  0.00     0.127 C 
HETATM    6  C           1     -23.602 -10.772  -0.263  0.00  0.00     0.038 C 
HETATM    7  C           1     -23.669 -11.011  -1.767  0.00  0.00     0.022 C 
HETATM    8  O           1     -20.471  -7.862  -0.886  0.00  0.00    -0.271 OA
BRANCH   4   9
HETATM    9  C           1     -21.203 -11.098   0.335  0.00  0.00     0.196 C 
HETATM   10  O           1     -19.994 -10.804   0.216  0.00  0.00    -0.646 OA
HETATM   11  O           1     -21.532 -12.227   0.760  0.00  0.00    -0.646 OA
ENDBRANCH   4   9
ENDBRANCH   1   2
BRANCH   1  12
HETATM   12  C           1     -21.046  -7.198  -3.755  0.00  0.00     0.083 C 
BRANCH  12  13
HETATM   13  C           1     -21.681  -6.394  -4.846  0.00  0.00    -0.028 A 
HETATM   14  C           1     -23.030  -6.256  -5.073  0.00  0.00     0.096 A 
HETATM   15  N           1     -23.192  -5.442  -6.162  0.00  0.00    -0.365 N 
HETATM   16  C           1     -21.965  -5.048  -6.648  0.00  0.00     0.042 A 
HETATM   17  H           1     -24.117  -5.159  -6.569  0.00  0.00     0.165 HD
HETATM   18  C           1     -21.644  -4.226  -7.735  0.00  0.00     0.030 A 
HETATM   19  C           1     -20.995  -5.636  -5.836  0.00  0.00    -0.002 A 
HETATM   20  C           1     -20.288  -3.999  -7.995  0.00  0.00     0.002 A 
HETATM   21  C           1     -19.298  -4.572  -7.200  0.00  0.00     0.001 A 
HETATM   22  C           1     -19.637  -5.392  -6.117  0.00  0.00     0.014 A 
ENDBRANCH  12  13
ENDBRANCH   1  12
BRANCH   1  23
HETATM   23  N           1     -22.256  -5.962  -1.994  0.00  0.00    -0.066 N 
HETATM   24  H           1     -22.915  -5.428  -2.605  0.00  0.00     0.275 HD
HETATM   25  H           1     -22.673  -6.067  -1.042  0.00  0.00     0.275 HD
HETATM   26  H           1     -21.349  -5.445  -1.925  0.00  0.00     0.275 HD
ENDBRANCH   1  23
TORSDOF 5
ENDMDL
