MODEL 1
REMARK VINA RESULT:      -5.7      0.000      0.000
REMARK  9 active torsions:
REMARK  status: ('A' for Active; 'I' for Inactive)
REMARK    1  A    between atoms: C_1  and  C_3 
REMARK    2  A    between atoms: C_3  and  C_9 
REMARK    3  A    between atoms: C_3  and  N_15 
REMARK    4  A    between atoms: S_7  and  C_8 
REMARK    5  A    between atoms: C_8  and  C_9 
REMARK    6  A    between atoms: O_11  and  C_16 
REMARK    7  A    between atoms: N_12  and  C_17 
REMARK       I    between atoms: N_15  and  C_18 
REMARK    8  A    between atoms: C_16  and  C_17 
REMARK    9  A    between atoms: C_17  and  C_18 
ROOT
HETATM    1  H           1     -27.430  -6.787 -18.690  0.00  0.00     0.163 HD
HETATM    2  N           1     -26.532  -6.542 -18.293  0.00  0.00    -0.345 N 
HETATM    3  C           1     -25.386  -6.747 -19.015  0.00  0.00     0.251 C 
HETATM    4  O           1     -24.313  -6.454 -18.541  0.00  0.00    -0.271 OA
ENDROOT
BRANCH   2   5
HETATM    5  C           1     -26.458  -5.974 -16.961  0.00  0.00     0.186 C 
BRANCH   5   6
HETATM    6  C           1     -26.441  -7.086 -15.941  0.00  0.00     0.196 C 
HETATM    7  O           1     -25.357  -7.616 -15.614  0.00  0.00    -0.646 OA
HETATM    8  O           1     -27.509  -7.477 -15.424  0.00  0.00    -0.646 OA
ENDBRANCH   5   6
BRANCH   5   9
HETATM    9  C           1     -27.671  -5.084 -16.722  0.00  0.00     0.046 C 
BRANCH   9  10
HETATM   10  C           1     -28.627  -5.199 -17.902  0.00  0.00     0.076 C 
BRANCH  10  11
HETATM   11  S           1     -30.205  -5.894 -17.337  0.00  0.00    -0.173 SA
HETATM   12  C           1     -30.012  -7.508 -18.144  0.00  0.00     0.089 C 
ENDBRANCH  10  11
ENDBRANCH   9  10
ENDBRANCH   5   9
ENDBRANCH   2   5
BRANCH   3  13
HETATM   13  C           1     -25.461  -7.338 -20.401  0.00  0.00     0.297 C 
BRANCH  13  14
HETATM   14  N           1     -24.540  -8.518 -20.491  0.00  0.00    -0.064 N 
HETATM   15  H           1     -23.975  -8.452 -21.369  0.00  0.00     0.275 HD
HETATM   16  H           1     -25.101  -9.399 -20.502  0.00  0.00     0.275 HD
HETATM   17  H           1     -23.899  -8.524 -19.665  0.00  0.00     0.275 HD
ENDBRANCH  13  14
BRANCH  13  18
HETATM   18  C           1     -26.888  -7.786 -20.685  0.00  0.00     0.206 C 
BRANCH  18  19
HETATM   19  O           1     -26.873  -8.843 -21.606  0.00  0.00    -0.398 OA
HETATM   20  H           1     -26.165  -8.674 -22.204  0.00  0.00     0.209 HD
ENDBRANCH  18  19
ENDBRANCH  13  18
ENDBRANCH   3  13
TORSDOF 9
ENDMDL
MODEL 2
REMARK VINA RESULT:      -5.5     11.092     12.936
REMARK  9 active torsions:
REMARK  status: ('A' for Active; 'I' for Inactive)
REMARK    1  A    between atoms: C_1  and  C_3 
REMARK    2  A    between atoms: C_3  and  C_9 
REMARK    3  A    between atoms: C_3  and  N_15 
REMARK    4  A    between atoms: S_7  and  C_8 
REMARK    5  A    between atoms: C_8  and  C_9 
REMARK    6  A    between atoms: O_11  and  C_16 
REMARK    7  A    between atoms: N_12  and  C_17 
REMARK       I    between atoms: N_15  and  C_18 
REMARK    8  A    between atoms: C_16  and  C_17 
REMARK    9  A    between atoms: C_17  and  C_18 
ROOT
HETATM    1  H           1     -35.132   0.222 -12.311  0.00  0.00     0.163 HD
HETATM    2  N           1     -36.047  -0.207 -12.344  0.00  0.00    -0.345 N 
HETATM    3  C           1     -36.771  -0.190 -13.507  0.00  0.00     0.251 C 
HETATM    4  O           1     -37.864  -0.704 -13.546  0.00  0.00    -0.271 OA
ENDROOT
BRANCH   2   5
HETATM    5  C           1     -36.593  -0.842 -11.160  0.00  0.00     0.186 C 
BRANCH   5   6
HETATM    6  C           1     -37.004   0.216 -10.166  0.00  0.00     0.196 C 
HETATM    7  O           1     -38.072   0.844 -10.328  0.00  0.00    -0.646 OA
HETATM    8  O           1     -36.275   0.466  -9.183  0.00  0.00    -0.646 OA
ENDBRANCH   5   6
BRANCH   5   9
HETATM    9  C           1     -35.536  -1.744 -10.536  0.00  0.00     0.046 C 
BRANCH   9  10
HETATM   10  C           1     -35.105  -2.798 -11.546  0.00  0.00     0.076 C 
BRANCH  10  11
HETATM   11  S           1     -33.357  -3.209 -11.285  0.00  0.00    -0.173 SA
HETATM   12  C           1     -33.600  -4.998 -11.095  0.00  0.00     0.089 C 
ENDBRANCH  10  11
ENDBRANCH   9  10
ENDBRANCH   5   9
ENDBRANCH   2   5
BRANCH   3  13
HETATM   13  C           1     -36.203   0.470 -14.739  0.00  0.00     0.297 C 
BRANCH  13  14
HETATM   14  N           1     -35.131   1.439 -14.337  0.00  0.00    -0.064 N 
HETATM   15  H           1     -34.198   0.971 -14.400  0.00  0.00     0.275 HD
HETATM   16  H           1     -35.297   1.755 -13.356  0.00  0.00     0.275 HD
HETATM   17  H           1     -35.151   2.266 -14.977  0.00  0.00     0.275 HD
ENDBRANCH  13  14
BRANCH  13  18
HETATM   18  C           1     -35.611  -0.590 -15.657  0.00  0.00     0.206 C 
BRANCH  18  19
HETATM   19  O           1     -35.224  -1.703 -14.898  0.00  0.00    -0.398 OA
HETATM   20  H           1     -35.775  -1.719 -14.134  0.00  0.00     0.209 HD
ENDBRANCH  18  19
ENDBRANCH  13  18
ENDBRANCH   3  13
TORSDOF 9
ENDMDL
MODEL 3
REMARK VINA RESULT:      -5.1     10.641     12.184
REMARK  9 active torsions:
REMARK  status: ('A' for Active; 'I' for Inactive)
REMARK    1  A    between atoms: C_1  and  C_3 
REMARK    2  A    between atoms: C_3  and  C_9 
REMARK    3  A    between atoms: C_3  and  N_15 
REMARK    4  A    between atoms: S_7  and  C_8 
REMARK    5  A    between atoms: C_8  and  C_9 
REMARK    6  A    between atoms: O_11  and  C_16 
REMARK    7  A    between atoms: N_12  and  C_17 
REMARK       I    between atoms: N_15  and  C_18 
REMARK    8  A    between atoms: C_16  and  C_17 
REMARK    9  A    between atoms: C_17  and  C_18 
ROOT
HETATM    1  H           1     -35.241  -1.787 -11.279  0.00  0.00     0.163 HD
HETATM    2  N           1     -35.241  -1.870 -12.287  0.00  0.00    -0.345 N 
HETATM    3  C           1     -34.577  -2.905 -12.890  0.00  0.00     0.251 C 
HETATM    4  O           1     -34.578  -3.004 -14.094  0.00  0.00    -0.271 OA
ENDROOT
BRANCH   2   5
HETATM    5  C           1     -35.945  -0.893 -13.095  0.00  0.00     0.186 C 
BRANCH   5   6
HETATM    6  C           1     -34.989   0.198 -13.512  0.00  0.00     0.196 C 
HETATM    7  O           1     -34.576   1.023 -12.668  0.00  0.00    -0.646 OA
HETATM    8  O           1     -34.610   0.277 -14.700  0.00  0.00    -0.646 OA
ENDBRANCH   5   6
BRANCH   5   9
HETATM    9  C           1     -37.083  -0.289 -12.283  0.00  0.00     0.046 C 
BRANCH   9  10
HETATM   10  C           1     -36.961  -0.730 -10.831  0.00  0.00     0.076 C 
BRANCH  10  11
HETATM   11  S           1     -37.164   0.708  -9.741  0.00  0.00    -0.173 SA
HETATM   12  C           1     -37.481  -0.236  -8.224  0.00  0.00     0.089 C 
ENDBRANCH  10  11
ENDBRANCH   9  10
ENDBRANCH   5   9
ENDBRANCH   2   5
BRANCH   3  13
HETATM   13  C           1     -33.844  -3.923 -12.050  0.00  0.00     0.297 C 
BRANCH  13  14
HETATM   14  N           1     -33.594  -3.355 -10.684  0.00  0.00    -0.064 N 
HETATM   15  H           1     -32.571  -3.389 -10.475  0.00  0.00     0.275 HD
HETATM   16  H           1     -34.114  -3.916  -9.973  0.00  0.00     0.275 HD
HETATM   17  H           1     -33.924  -2.363 -10.653  0.00  0.00     0.275 HD
ENDBRANCH  13  14
BRANCH  13  18
HETATM   18  C           1     -34.689  -5.184 -11.928  0.00  0.00     0.206 C 
BRANCH  18  19
HETATM   19  O           1     -35.094  -5.601 -13.203  0.00  0.00    -0.398 OA
HETATM   20  H           1     -36.032  -5.680 -13.181  0.00  0.00     0.209 HD
ENDBRANCH  18  19
ENDBRANCH  13  18
ENDBRANCH   3  13
TORSDOF 9
ENDMDL
MODEL 4
REMARK VINA RESULT:      -5.0      9.859     11.728
REMARK  9 active torsions:
REMARK  status: ('A' for Active; 'I' for Inactive)
REMARK    1  A    between atoms: C_1  and  C_3 
REMARK    2  A    between atoms: C_3  and  C_9 
REMARK    3  A    between atoms: C_3  and  N_15 
REMARK    4  A    between atoms: S_7  and  C_8 
REMARK    5  A    between atoms: C_8  and  C_9 
REMARK    6  A    between atoms: O_11  and  C_16 
REMARK    7  A    between atoms: N_12  and  C_17 
REMARK       I    between atoms: N_15  and  C_18 
REMARK    8  A    between atoms: C_16  and  C_17 
REMARK    9  A    between atoms: C_17  and  C_18 
ROOT
HETATM    1  H           1     -36.047  -2.368 -13.156  0.00  0.00     0.163 HD
HETATM    2  N           1     -35.404  -1.999 -12.467  0.00  0.00    -0.345 N 
HETATM    3  C           1     -34.371  -2.774 -12.011  0.00  0.00     0.251 C 
HETATM    4  O           1     -33.603  -2.334 -11.189  0.00  0.00    -0.271 OA
ENDROOT
BRANCH   2   5
HETATM    5  C           1     -35.576  -0.650 -11.963  0.00  0.00     0.186 C 
BRANCH   5   6
HETATM    6  C           1     -36.571  -0.660 -10.829  0.00  0.00     0.196 C 
HETATM    7  O           1     -37.739  -1.059 -11.026  0.00  0.00    -0.646 OA
HETATM    8  O           1     -36.227  -0.268  -9.693  0.00  0.00    -0.646 OA
ENDBRANCH   5   6
BRANCH   5   9
HETATM    9  C           1     -36.089   0.247 -13.082  0.00  0.00     0.046 C 
BRANCH   9  10
HETATM   10  C           1     -35.112   0.214 -14.249  0.00  0.00     0.076 C 
BRANCH  10  11
HETATM   11  S           1     -36.001  -0.217 -15.772  0.00  0.00    -0.173 SA
HETATM   12  C           1     -37.670   0.059 -15.113  0.00  0.00     0.089 C 
ENDBRANCH  10  11
ENDBRANCH   9  10
ENDBRANCH   5   9
ENDBRANCH   2   5
BRANCH   3  13
HETATM   13  C           1     -34.192  -4.178 -12.535  0.00  0.00     0.297 C 
BRANCH  13  14
HETATM   14  N           1     -33.695  -4.123 -13.949  0.00  0.00    -0.064 N 
HETATM   15  H           1     -33.477  -3.132 -14.203  0.00  0.00     0.275 HD
HETATM   16  H           1     -34.430  -4.495 -14.591  0.00  0.00     0.275 HD
HETATM   17  H           1     -32.830  -4.704 -14.038  0.00  0.00     0.275 HD
ENDBRANCH  13  14
BRANCH  13  18
HETATM   18  C           1     -33.180  -4.918 -11.670  0.00  0.00     0.206 C 
BRANCH  18  19
HETATM   19  O           1     -31.912  -4.840 -12.263  0.00  0.00    -0.398 OA
HETATM   20  H           1     -31.282  -5.032 -11.589  0.00  0.00     0.209 HD
ENDBRANCH  18  19
ENDBRANCH  13  18
ENDBRANCH   3  13
TORSDOF 9
ENDMDL
MODEL 5
REMARK VINA RESULT:      -4.8     10.231     12.161
REMARK  9 active torsions:
REMARK  status: ('A' for Active; 'I' for Inactive)
REMARK    1  A    between atoms: C_1  and  C_3 
REMARK    2  A    between atoms: C_3  and  C_9 
REMARK    3  A    between atoms: C_3  and  N_15 
REMARK    4  A    between atoms: S_7  and  C_8 
REMARK    5  A    between atoms: C_8  and  C_9 
REMARK    6  A    between atoms: O_11  and  C_16 
REMARK    7  A    between atoms: N_12  and  C_17 
REMARK       I    between atoms: N_15  and  C_18 
REMARK    8  A    between atoms: C_16  and  C_17 
REMARK    9  A    between atoms: C_17  and  C_18 
ROOT
HETATM    1  H           1     -21.951  -6.076  -9.061  0.00  0.00     0.163 HD
HETATM    2  N           1     -22.034  -5.182  -8.596  0.00  0.00    -0.345 N 
HETATM    3  C           1     -23.103  -4.368  -8.861  0.00  0.00     0.251 C 
HETATM    4  O           1     -23.201  -3.300  -8.304  0.00  0.00    -0.271 OA
ENDROOT
BRANCH   2   5
HETATM    5  C           1     -21.020  -4.762  -7.647  0.00  0.00     0.186 C 
BRANCH   5   6
HETATM    6  C           1     -19.820  -4.236  -8.394  0.00  0.00     0.196 C 
HETATM    7  O           1     -18.738  -4.059  -7.793  0.00  0.00    -0.646 OA
HETATM    8  O           1     -19.907  -3.976  -9.613  0.00  0.00    -0.646 OA
ENDBRANCH   5   6
BRANCH   5   9
HETATM    9  C           1     -20.606  -5.950  -6.789  0.00  0.00     0.046 C 
BRANCH   9  10
HETATM   10  C           1     -20.776  -5.599  -5.318  0.00  0.00     0.076 C 
BRANCH  10  11
HETATM   11  S           1     -21.951  -6.752  -4.552  0.00  0.00    -0.173 SA
HETATM   12  C           1     -21.574  -6.306  -2.833  0.00  0.00     0.089 C 
ENDBRANCH  10  11
ENDBRANCH   9  10
ENDBRANCH   5   9
ENDBRANCH   2   5
BRANCH   3  13
HETATM   13  C           1     -24.158  -4.804  -9.848  0.00  0.00     0.297 C 
BRANCH  13  14
HETATM   14  N           1     -25.328  -3.868  -9.774  0.00  0.00    -0.064 N 
HETATM   15  H           1     -25.995  -4.084 -10.549  0.00  0.00     0.275 HD
HETATM   16  H           1     -24.992  -2.883  -9.866  0.00  0.00     0.275 HD
HETATM   17  H           1     -25.811  -3.986  -8.855  0.00  0.00     0.275 HD
ENDBRANCH  13  14
BRANCH  13  18
HETATM   18  C           1     -23.577  -4.780 -11.255  0.00  0.00     0.206 C 
BRANCH  18  19
HETATM   19  O           1     -22.508  -3.875 -11.306  0.00  0.00    -0.398 OA
HETATM   20  H           1     -22.111  -3.967 -12.155  0.00  0.00     0.209 HD
ENDBRANCH  18  19
ENDBRANCH  13  18
ENDBRANCH   3  13
TORSDOF 9
ENDMDL
MODEL 6
REMARK VINA RESULT:      -4.6      2.172      2.825
REMARK  9 active torsions:
REMARK  status: ('A' for Active; 'I' for Inactive)
REMARK    1  A    between atoms: C_1  and  C_3 
REMARK    2  A    between atoms: C_3  and  C_9 
REMARK    3  A    between atoms: C_3  and  N_15 
REMARK    4  A    between atoms: S_7  and  C_8 
REMARK    5  A    between atoms: C_8  and  C_9 
REMARK    6  A    between atoms: O_11  and  C_16 
REMARK    7  A    between atoms: N_12  and  C_17 
REMARK       I    between atoms: N_15  and  C_18 
REMARK    8  A    between atoms: C_16  and  C_17 
REMARK    9  A    between atoms: C_17  and  C_18 
ROOT
HETATM    1  H           1     -27.676  -6.905 -19.544  0.00  0.00     0.163 HD
HETATM    2  N           1     -27.322  -6.531 -18.673  0.00  0.00    -0.345 N 
HETATM    3  C           1     -25.976  -6.538 -18.421  0.00  0.00     0.251 C 
HETATM    4  O           1     -25.553  -6.092 -17.380  0.00  0.00    -0.271 OA
ENDROOT
BRANCH   2   5
HETATM    5  C           1     -28.240  -5.988 -17.690  0.00  0.00     0.186 C 
BRANCH   5   6
HETATM    6  C           1     -28.941  -7.119 -16.979  0.00  0.00     0.196 C 
HETATM    7  O           1     -29.808  -7.792 -17.577  0.00  0.00    -0.646 OA
HETATM    8  O           1     -28.656  -7.382 -15.791  0.00  0.00    -0.646 OA
ENDBRANCH   5   6
BRANCH   5   9
HETATM    9  C           1     -29.270  -5.111 -18.390  0.00  0.00     0.046 C 
BRANCH   9  10
HETATM   10  C           1     -29.532  -3.867 -17.553  0.00  0.00     0.076 C 
BRANCH  10  11
HETATM   11  S           1     -31.272  -3.380 -17.717  0.00  0.00    -0.173 SA
HETATM   12  C           1     -31.948  -4.697 -16.667  0.00  0.00     0.089 C 
ENDBRANCH  10  11
ENDBRANCH   9  10
ENDBRANCH   5   9
ENDBRANCH   2   5
BRANCH   3  13
HETATM   13  C           1     -25.019  -7.103 -19.443  0.00  0.00     0.297 C 
BRANCH  13  14
HETATM   14  N           1     -25.223  -6.406 -20.755  0.00  0.00    -0.064 N 
HETATM   15  H           1     -24.331  -6.423 -21.300  0.00  0.00     0.275 HD
HETATM   16  H           1     -25.508  -5.416 -20.583  0.00  0.00     0.275 HD
HETATM   17  H           1     -25.972  -6.894 -21.297  0.00  0.00     0.275 HD
ENDBRANCH  13  14
BRANCH  13  18
HETATM   18  C           1     -23.587  -6.889 -18.971  0.00  0.00     0.206 C 
BRANCH  18  19
HETATM   19  O           1     -23.398  -7.534 -17.742  0.00  0.00    -0.398 OA
HETATM   20  H           1     -22.468  -7.614 -17.615  0.00  0.00     0.209 HD
ENDBRANCH  18  19
ENDBRANCH  13  18
ENDBRANCH   3  13
TORSDOF 9
ENDMDL
MODEL 7
REMARK VINA RESULT:      -4.5     12.511     14.441
REMARK  9 active torsions:
REMARK  status: ('A' for Active; 'I' for Inactive)
REMARK    1  A    between atoms: C_1  and  C_3 
REMARK    2  A    between atoms: C_3  and  C_9 
REMARK    3  A    between atoms: C_3  and  N_15 
REMARK    4  A    between atoms: S_7  and  C_8 
REMARK    5  A    between atoms: C_8  and  C_9 
REMARK    6  A    between atoms: O_11  and  C_16 
REMARK    7  A    between atoms: N_12  and  C_17 
REMARK       I    between atoms: N_15  and  C_18 
REMARK    8  A    between atoms: C_16  and  C_17 
REMARK    9  A    between atoms: C_17  and  C_18 
ROOT
HETATM    1  H           1     -21.722  -6.572  -7.023  0.00  0.00     0.163 HD
HETATM    2  N           1     -21.196  -6.118  -6.287  0.00  0.00    -0.345 N 
HETATM    3  C           1     -20.861  -4.795  -6.401  0.00  0.00     0.251 C 
HETATM    4  O           1     -20.233  -4.253  -5.522  0.00  0.00    -0.271 OA
ENDROOT
BRANCH   2   5
HETATM    5  C           1     -20.798  -6.869  -5.112  0.00  0.00     0.186 C 
BRANCH   5   6
HETATM    6  C           1     -20.357  -8.252  -5.523  0.00  0.00     0.196 C 
HETATM    7  O           1     -21.202  -9.164  -5.651  0.00  0.00    -0.646 OA
HETATM    8  O           1     -19.148  -8.485  -5.735  0.00  0.00    -0.646 OA
ENDBRANCH   5   6
BRANCH   5   9
HETATM    9  C           1     -21.978  -6.974  -4.154  0.00  0.00     0.046 C 
BRANCH   9  10
HETATM   10  C           1     -21.586  -6.403  -2.799  0.00  0.00     0.076 C 
BRANCH  10  11
HETATM   11  S           1     -21.188  -7.761  -1.661  0.00  0.00    -0.173 SA
HETATM   12  C           1     -22.470  -7.375  -0.436  0.00  0.00     0.089 C 
ENDBRANCH  10  11
ENDBRANCH   9  10
ENDBRANCH   5   9
ENDBRANCH   2   5
BRANCH   3  13
HETATM   13  C           1     -21.275  -4.014  -7.624  0.00  0.00     0.297 C 
BRANCH  13  14
HETATM   14  N           1     -20.354  -4.344  -8.761  0.00  0.00    -0.064 N 
HETATM   15  H           1     -19.760  -5.164  -8.502  0.00  0.00     0.275 HD
HETATM   16  H           1     -19.742  -3.521  -8.964  0.00  0.00     0.275 HD
HETATM   17  H           1     -20.918  -4.575  -9.611  0.00  0.00     0.275 HD
ENDBRANCH  13  14
BRANCH  13  18
HETATM   18  C           1     -22.702  -4.383  -8.004  0.00  0.00     0.206 C 
BRANCH  18  19
HETATM   19  O           1     -23.505  -4.391  -6.855  0.00  0.00    -0.398 OA
HETATM   20  H           1     -22.936  -4.231  -6.122  0.00  0.00     0.209 HD
ENDBRANCH  18  19
ENDBRANCH  13  18
ENDBRANCH   3  13
TORSDOF 9
ENDMDL
MODEL 8
REMARK VINA RESULT:      -4.4     16.217     18.314
REMARK  9 active torsions:
REMARK  status: ('A' for Active; 'I' for Inactive)
REMARK    1  A    between atoms: C_1  and  C_3 
REMARK    2  A    between atoms: C_3  and  C_9 
REMARK    3  A    between atoms: C_3  and  N_15 
REMARK    4  A    between atoms: S_7  and  C_8 
REMARK    5  A    between atoms: C_8  and  C_9 
REMARK    6  A    between atoms: O_11  and  C_16 
REMARK    7  A    between atoms: N_12  and  C_17 
REMARK       I    between atoms: N_15  and  C_18 
REMARK    8  A    between atoms: C_16  and  C_17 
REMARK    9  A    between atoms: C_17  and  C_18 
ROOT
HETATM    1  H           1     -22.249  -9.795  -1.903  0.00  0.00     0.163 HD
HETATM    2  N           1     -21.784  -9.505  -1.052  0.00  0.00    -0.345 N 
HETATM    3  C           1     -21.645 -10.386  -0.013  0.00  0.00     0.251 C 
HETATM    4  O           1     -21.089 -10.039   1.002  0.00  0.00    -0.271 OA
ENDROOT
BRANCH   2   5
HETATM    5  C           1     -21.264  -8.156  -0.935  0.00  0.00     0.186 C 
BRANCH   5   6
HETATM    6  C           1     -22.407  -7.191  -0.740  0.00  0.00     0.196 C 
HETATM    7  O           1     -23.321  -7.460   0.069  0.00  0.00    -0.646 OA
HETATM    8  O           1     -22.441  -6.124  -1.390  0.00  0.00    -0.646 OA
ENDBRANCH   5   6
BRANCH   5   9
HETATM    9  C           1     -20.502  -7.794  -2.203  0.00  0.00     0.046 C 
BRANCH   9  10
HETATM   10  C           1     -20.982  -8.670  -3.352  0.00  0.00     0.076 C 
BRANCH  10  11
HETATM   11  S           1     -20.661  -7.830  -4.929  0.00  0.00    -0.173 SA
HETATM   12  C           1     -22.133  -6.768  -4.892  0.00  0.00     0.089 C 
ENDBRANCH  10  11
ENDBRANCH   9  10
ENDBRANCH   5   9
ENDBRANCH   2   5
BRANCH   3  13
HETATM   13  C           1     -22.186 -11.789  -0.135  0.00  0.00     0.297 C 
BRANCH  13  14
HETATM   14  N           1     -21.707 -12.611   1.024  0.00  0.00    -0.064 N 
HETATM   15  H           1     -22.498 -13.186   1.394  0.00  0.00     0.275 HD
HETATM   16  H           1     -21.353 -11.979   1.777  0.00  0.00     0.275 HD
HETATM   17  H           1     -20.935 -13.242   0.709  0.00  0.00     0.275 HD
ENDBRANCH  13  14
BRANCH  13  18
HETATM   18  C           1     -23.708 -11.748  -0.133  0.00  0.00     0.206 C 
BRANCH  18  19
HETATM   19  O           1     -24.142 -10.443   0.137  0.00  0.00    -0.398 OA
HETATM   20  H           1     -23.392  -9.880   0.041  0.00  0.00     0.209 HD
ENDBRANCH  18  19
ENDBRANCH  13  18
ENDBRANCH   3  13
TORSDOF 9
ENDMDL
MODEL 9
REMARK VINA RESULT:      -4.4     13.059     15.010
REMARK  9 active torsions:
REMARK  status: ('A' for Active; 'I' for Inactive)
REMARK    1  A    between atoms: C_1  and  C_3 
REMARK    2  A    between atoms: C_3  and  C_9 
REMARK    3  A    between atoms: C_3  and  N_15 
REMARK    4  A    between atoms: S_7  and  C_8 
REMARK    5  A    between atoms: C_8  and  C_9 
REMARK    6  A    between atoms: O_11  and  C_16 
REMARK    7  A    between atoms: N_12  and  C_17 
REMARK       I    between atoms: N_15  and  C_18 
REMARK    8  A    between atoms: C_16  and  C_17 
REMARK    9  A    between atoms: C_17  and  C_18 
ROOT
HETATM    1  H           1     -19.871  -6.268  -5.033  0.00  0.00     0.163 HD
HETATM    2  N           1     -20.882  -6.295  -5.072  0.00  0.00    -0.345 N 
HETATM    3  C           1     -21.560  -5.420  -5.877  0.00  0.00     0.251 C 
HETATM    4  O           1     -22.767  -5.452  -5.924  0.00  0.00    -0.271 OA
ENDROOT
BRANCH   2   5
HETATM    5  C           1     -21.612  -7.262  -4.275  0.00  0.00     0.186 C 
BRANCH   5   6
HETATM    6  C           1     -21.624  -6.819  -2.833  0.00  0.00     0.196 C 
HETATM    7  O           1     -22.436  -5.947  -2.454  0.00  0.00    -0.646 OA
HETATM    8  O           1     -20.822  -7.322  -2.018  0.00  0.00    -0.646 OA
ENDBRANCH   5   6
BRANCH   5   9
HETATM    9  C           1     -20.937  -8.623  -4.384  0.00  0.00     0.046 C 
BRANCH   9  10
HETATM   10  C           1     -19.590  -8.468  -5.077  0.00  0.00     0.076 C 
BRANCH  10  11
HETATM   11  S           1     -18.551  -9.911  -4.712  0.00  0.00    -0.173 SA
HETATM   12  C           1     -18.077  -9.396  -3.037  0.00  0.00     0.089 C 
ENDBRANCH  10  11
ENDBRANCH   9  10
ENDBRANCH   5   9
ENDBRANCH   2   5
BRANCH   3  13
HETATM   13  C           1     -20.801  -4.413  -6.706  0.00  0.00     0.297 C 
BRANCH  13  14
HETATM   14  N           1     -19.392  -4.890  -6.901  0.00  0.00    -0.064 N 
HETATM   15  H           1     -19.340  -5.482  -7.762  0.00  0.00     0.275 HD
HETATM   16  H           1     -19.096  -5.453  -6.073  0.00  0.00     0.275 HD
HETATM   17  H           1     -18.756  -4.066  -7.006  0.00  0.00     0.275 HD
ENDBRANCH  13  14
BRANCH  13  18
HETATM   18  C           1     -21.476  -4.258  -8.062  0.00  0.00     0.206 C 
BRANCH  18  19
HETATM   19  O           1     -22.526  -3.336  -7.959  0.00  0.00    -0.398 OA
HETATM   20  H           1     -22.204  -2.609  -7.455  0.00  0.00     0.209 HD
ENDBRANCH  18  19
ENDBRANCH  13  18
ENDBRANCH   3  13
TORSDOF 9
ENDMDL
