MODEL 1
REMARK VINA RESULT:      -8.6      0.000      0.000
REMARK  9 active torsions:
REMARK  status: ('A' for Active; 'I' for Inactive)
REMARK       I    between atoms: C_2  and  N_10 
REMARK    1  A    between atoms: C_2  and  C_26 
REMARK    2  A    between atoms: C_8  and  C_11 
REMARK    3  A    between atoms: C_8  and  C_13 
REMARK    4  A    between atoms: N_10  and  C_13 
REMARK    5  A    between atoms: C_13  and  C_14 
REMARK    6  A    between atoms: O_19  and  C_20 
REMARK    7  A    between atoms: N_24  and  C_26 
REMARK    8  A    between atoms: C_26  and  C_27 
REMARK    9  A    between atoms: C_27  and  C_28 
ROOT
HETATM    1  C           1     -20.590  -7.707  -5.749  0.00  0.00     0.249 C 
HETATM    2  N           1     -21.377  -6.631  -6.058  0.00  0.00    -0.344 N 
HETATM    3  O           1     -19.480  -7.797  -6.215  0.00  0.00    -0.271 OA
HETATM    4  H           1     -22.308  -6.556  -5.667  0.00  0.00     0.163 HD
ENDROOT
BRANCH   2   5
HETATM    5  C           1     -20.878  -5.597  -6.944  0.00  0.00     0.189 C 
BRANCH   5   6
HETATM    6  C           1     -22.030  -4.701  -7.377  0.00  0.00     0.074 C 
BRANCH   6   7
HETATM    7  C           1     -21.961  -4.479  -8.856  0.00  0.00    -0.056 A 
HETATM    8  C           1     -23.129  -4.490  -9.618  0.00  0.00     0.010 A 
HETATM    9  C           1     -23.064  -4.283 -10.996  0.00  0.00     0.037 A 
HETATM   10  C           1     -21.832  -4.064 -11.612  0.00  0.00     0.065 A 
HETATM   11  C           1     -20.664  -4.053 -10.849  0.00  0.00     0.037 A 
HETATM   12  C           1     -20.728  -4.260  -9.471  0.00  0.00     0.010 A 
BRANCH  10  13
HETATM   13  O           1     -21.769  -3.863 -12.951  0.00  0.00    -0.361 OA
HETATM   14  H           1     -22.360  -3.124 -13.172  0.00  0.00     0.217 HD
ENDBRANCH  10  13
ENDBRANCH   6   7
ENDBRANCH   5   6
BRANCH   5  15
HETATM   15  C           1     -19.843  -4.773  -6.220  0.00  0.00     0.197 C 
HETATM   16  O           1     -18.764  -4.487  -6.784  0.00  0.00    -0.646 OA
HETATM   17  O           1     -20.063  -4.375  -5.055  0.00  0.00    -0.646 OA
ENDBRANCH   5  15
ENDBRANCH   2   5
BRANCH   1  18
HETATM   18  C           1     -21.110  -8.783  -4.827  0.00  0.00     0.278 C 
BRANCH  18  19
HETATM   19  N           1     -21.021 -10.114  -5.513  0.00  0.00    -0.066 N 
HETATM   20  H           1     -21.701 -10.142  -6.307  0.00  0.00     0.275 HD
HETATM   21  H           1     -21.249 -10.873  -4.832  0.00  0.00     0.275 HD
HETATM   22  H           1     -20.053 -10.254  -5.880  0.00  0.00     0.275 HD
ENDBRANCH  18  19
BRANCH  18  23
HETATM   23  C           1     -20.272  -8.811  -3.556  0.00  0.00     0.081 C 
BRANCH  23  24
HETATM   24  C           1     -21.091  -8.313  -2.406  0.00  0.00    -0.056 A 
HETATM   25  C           1     -21.526  -6.988  -2.382  0.00  0.00     0.007 A 
HETATM   26  C           1     -22.289  -6.525  -1.310  0.00  0.00     0.001 A 
HETATM   27  C           1     -22.617  -7.386  -0.263  0.00  0.00     0.000 A 
HETATM   28  C           1     -22.183  -8.711  -0.288  0.00  0.00     0.001 A 
HETATM   29  C           1     -21.420  -9.175  -1.359  0.00  0.00     0.007 A 
ENDBRANCH  23  24
ENDBRANCH  18  23
ENDBRANCH   1  18
TORSDOF 9
ENDMDL
MODEL 2
REMARK VINA RESULT:      -8.4      1.707      2.382
REMARK  9 active torsions:
REMARK  status: ('A' for Active; 'I' for Inactive)
REMARK       I    between atoms: C_2  and  N_10 
REMARK    1  A    between atoms: C_2  and  C_26 
REMARK    2  A    between atoms: C_8  and  C_11 
REMARK    3  A    between atoms: C_8  and  C_13 
REMARK    4  A    between atoms: N_10  and  C_13 
REMARK    5  A    between atoms: C_13  and  C_14 
REMARK    6  A    between atoms: O_19  and  C_20 
REMARK    7  A    between atoms: N_24  and  C_26 
REMARK    8  A    between atoms: C_26  and  C_27 
REMARK    9  A    between atoms: C_27  and  C_28 
ROOT
HETATM    1  C           1     -21.344  -6.208  -4.456  0.00  0.00     0.249 C 
HETATM    2  N           1     -21.042  -5.112  -5.217  0.00  0.00    -0.344 N 
HETATM    3  O           1     -21.614  -7.259  -4.988  0.00  0.00    -0.271 OA
HETATM    4  H           1     -20.817  -4.232  -4.771  0.00  0.00     0.163 HD
ENDROOT
BRANCH   2   5
HETATM    5  C           1     -21.045  -5.210  -6.664  0.00  0.00     0.189 C 
BRANCH   5   6
HETATM    6  C           1     -21.497  -3.885  -7.261  0.00  0.00     0.074 C 
BRANCH   6   7
HETATM    7  C           1     -22.070  -4.121  -8.625  0.00  0.00    -0.056 A 
HETATM    8  C           1     -21.239  -4.089  -9.745  0.00  0.00     0.010 A 
HETATM    9  C           1     -21.773  -4.308 -11.014  0.00  0.00     0.037 A 
HETATM   10  C           1     -23.137  -4.559 -11.165  0.00  0.00     0.065 A 
HETATM   11  C           1     -23.967  -4.589 -10.044  0.00  0.00     0.037 A 
HETATM   12  C           1     -23.434  -4.370  -8.774  0.00  0.00     0.010 A 
BRANCH  10  13
HETATM   13  O           1     -23.656  -4.771 -12.398  0.00  0.00    -0.361 OA
HETATM   14  H           1     -22.962  -5.164 -12.953  0.00  0.00     0.217 HD
ENDBRANCH  10  13
ENDBRANCH   6   7
ENDBRANCH   5   6
BRANCH   5  15
HETATM   15  C           1     -19.654  -5.533  -7.148  0.00  0.00     0.197 C 
HETATM   16  O           1     -19.323  -6.721  -7.354  0.00  0.00    -0.646 OA
HETATM   17  O           1     -18.830  -4.613  -7.343  0.00  0.00    -0.646 OA
ENDBRANCH   5  15
ENDBRANCH   2   5
BRANCH   1  18
HETATM   18  C           1     -21.341  -6.106  -2.950  0.00  0.00     0.278 C 
BRANCH  18  19
HETATM   19  N           1     -22.754  -6.032  -2.452  0.00  0.00    -0.066 N 
HETATM   20  H           1     -22.919  -6.798  -1.759  0.00  0.00     0.275 HD
HETATM   21  H           1     -23.413  -6.141  -3.255  0.00  0.00     0.275 HD
HETATM   22  H           1     -22.914  -5.108  -1.992  0.00  0.00     0.275 HD
ENDBRANCH  18  19
BRANCH  18  23
HETATM   23  C           1     -20.658  -7.332  -2.359  0.00  0.00     0.081 C 
BRANCH  23  24
HETATM   24  C           1     -21.617  -8.054  -1.463  0.00  0.00    -0.056 A 
HETATM   25  C           1     -22.022  -9.351  -1.777  0.00  0.00     0.007 A 
HETATM   26  C           1     -22.915 -10.023  -0.942  0.00  0.00     0.001 A 
HETATM   27  C           1     -23.403  -9.398   0.205  0.00  0.00     0.000 A 
HETATM   28  C           1     -22.998  -8.101   0.519  0.00  0.00     0.001 A 
HETATM   29  C           1     -22.104  -7.429  -0.315  0.00  0.00     0.007 A 
ENDBRANCH  23  24
ENDBRANCH  18  23
ENDBRANCH   1  18
TORSDOF 9
ENDMDL
MODEL 3
REMARK VINA RESULT:      -8.2      2.141      8.280
REMARK  9 active torsions:
REMARK  status: ('A' for Active; 'I' for Inactive)
REMARK       I    between atoms: C_2  and  N_10 
REMARK    1  A    between atoms: C_2  and  C_26 
REMARK    2  A    between atoms: C_8  and  C_11 
REMARK    3  A    between atoms: C_8  and  C_13 
REMARK    4  A    between atoms: N_10  and  C_13 
REMARK    5  A    between atoms: C_13  and  C_14 
REMARK    6  A    between atoms: O_19  and  C_20 
REMARK    7  A    between atoms: N_24  and  C_26 
REMARK    8  A    between atoms: C_26  and  C_27 
REMARK    9  A    between atoms: C_27  and  C_28 
ROOT
HETATM    1  C           1     -21.419  -6.080  -5.537  0.00  0.00     0.249 C 
HETATM    2  N           1     -21.308  -7.443  -5.483  0.00  0.00    -0.344 N 
HETATM    3  O           1     -20.915  -5.398  -4.677  0.00  0.00    -0.271 OA
HETATM    4  H           1     -21.731  -8.014  -6.203  0.00  0.00     0.163 HD
ENDROOT
BRANCH   2   5
HETATM    5  C           1     -20.586  -8.069  -4.393  0.00  0.00     0.189 C 
BRANCH   5   6
HETATM    6  C           1     -21.438  -9.177  -3.790  0.00  0.00     0.074 C 
BRANCH   6   7
HETATM    7  C           1     -21.818  -8.810  -2.389  0.00  0.00    -0.056 A 
HETATM    8  C           1     -22.147  -9.808  -1.472  0.00  0.00     0.010 A 
HETATM    9  C           1     -22.501  -9.466  -0.167  0.00  0.00     0.037 A 
HETATM   10  C           1     -22.525  -8.126   0.222  0.00  0.00     0.065 A 
HETATM   11  C           1     -22.196  -7.129  -0.696  0.00  0.00     0.037 A 
HETATM   12  C           1     -21.843  -7.470  -2.002  0.00  0.00     0.010 A 
BRANCH  10  13
HETATM   13  O           1     -22.870  -7.793   1.489  0.00  0.00    -0.361 OA
HETATM   14  H           1     -22.917  -6.824   1.543  0.00  0.00     0.217 HD
ENDBRANCH  10  13
ENDBRANCH   6   7
ENDBRANCH   5   6
BRANCH   5  15
HETATM   15  C           1     -19.297  -8.652  -4.915  0.00  0.00     0.197 C 
HETATM   16  O           1     -18.991  -8.517  -6.120  0.00  0.00    -0.646 OA
HETATM   17  O           1     -18.533  -9.272  -4.143  0.00  0.00    -0.646 OA
ENDBRANCH   5  15
ENDBRANCH   2   5
BRANCH   1  18
HETATM   18  C           1     -22.171  -5.428  -6.672  0.00  0.00     0.278 C 
BRANCH  18  19
HETATM   19  N           1     -23.545  -5.045  -6.205  0.00  0.00    -0.066 N 
HETATM   20  H           1     -23.482  -4.614  -5.255  0.00  0.00     0.275 HD
HETATM   21  H           1     -24.148  -5.897  -6.163  0.00  0.00     0.275 HD
HETATM   22  H           1     -23.960  -4.355  -6.872  0.00  0.00     0.275 HD
ENDBRANCH  18  19
BRANCH  18  23
HETATM   23  C           1     -21.424  -4.181  -7.127  0.00  0.00     0.081 C 
BRANCH  23  24
HETATM   24  C           1     -21.402  -4.130  -8.623  0.00  0.00    -0.056 A 
HETATM   25  C           1     -20.246  -4.492  -9.316  0.00  0.00     0.007 A 
HETATM   26  C           1     -20.226  -4.444 -10.710  0.00  0.00     0.001 A 
HETATM   27  C           1     -21.360  -4.035 -11.410  0.00  0.00     0.000 A 
HETATM   28  C           1     -22.516  -3.674 -10.717  0.00  0.00     0.001 A 
HETATM   29  C           1     -22.537  -3.722  -9.324  0.00  0.00     0.007 A 
ENDBRANCH  23  24
ENDBRANCH  18  23
ENDBRANCH   1  18
TORSDOF 9
ENDMDL
MODEL 4
REMARK VINA RESULT:      -8.1     13.577     16.167
REMARK  9 active torsions:
REMARK  status: ('A' for Active; 'I' for Inactive)
REMARK       I    between atoms: C_2  and  N_10 
REMARK    1  A    between atoms: C_2  and  C_26 
REMARK    2  A    between atoms: C_8  and  C_11 
REMARK    3  A    between atoms: C_8  and  C_13 
REMARK    4  A    between atoms: N_10  and  C_13 
REMARK    5  A    between atoms: C_13  and  C_14 
REMARK    6  A    between atoms: O_19  and  C_20 
REMARK    7  A    between atoms: N_24  and  C_26 
REMARK    8  A    between atoms: C_26  and  C_27 
REMARK    9  A    between atoms: C_27  and  C_28 
ROOT
HETATM    1  C           1     -33.833  -4.485 -15.375  0.00  0.00     0.249 C 
HETATM    2  N           1     -33.392  -3.904 -14.217  0.00  0.00    -0.344 N 
HETATM    3  O           1     -34.947  -4.949 -15.431  0.00  0.00    -0.271 OA
HETATM    4  H           1     -32.458  -3.515 -14.170  0.00  0.00     0.163 HD
ENDROOT
BRANCH   2   5
HETATM    5  C           1     -34.259  -3.845 -13.058  0.00  0.00     0.189 C 
BRANCH   5   6
HETATM    6  C           1     -33.424  -3.975 -11.792  0.00  0.00     0.074 C 
BRANCH   6   7
HETATM    7  C           1     -33.711  -5.290 -11.135  0.00  0.00    -0.056 A 
HETATM    8  C           1     -32.767  -6.315 -11.187  0.00  0.00     0.010 A 
HETATM    9  C           1     -33.034  -7.540 -10.576  0.00  0.00     0.037 A 
HETATM   10  C           1     -34.245  -7.740  -9.913  0.00  0.00     0.065 A 
HETATM   11  C           1     -35.189  -6.714  -9.863  0.00  0.00     0.037 A 
HETATM   12  C           1     -34.922  -5.489 -10.474  0.00  0.00     0.010 A 
BRANCH  10  13
HETATM   13  O           1     -34.505  -8.930  -9.320  0.00  0.00    -0.361 OA
HETATM   14  H           1     -34.289  -8.849  -8.376  0.00  0.00     0.217 HD
ENDBRANCH  10  13
ENDBRANCH   6   7
ENDBRANCH   5   6
BRANCH   5  15
HETATM   15  C           1     -34.993  -2.527 -13.045  0.00  0.00     0.197 C 
HETATM   16  O           1     -35.775  -2.255 -12.109  0.00  0.00    -0.646 OA
HETATM   17  O           1     -34.818  -1.706 -13.972  0.00  0.00    -0.646 OA
ENDBRANCH   5  15
ENDBRANCH   2   5
BRANCH   1  18
HETATM   18  C           1     -32.929  -4.546 -16.583  0.00  0.00     0.278 C 
BRANCH  18  19
HETATM   19  N           1     -33.169  -3.342 -17.445  0.00  0.00    -0.066 N 
HETATM   20  H           1     -32.477  -3.333 -18.230  0.00  0.00     0.275 HD
HETATM   21  H           1     -33.057  -2.475 -16.872  0.00  0.00     0.275 HD
HETATM   22  H           1     -34.137  -3.379 -17.836  0.00  0.00     0.275 HD
ENDBRANCH  18  19
BRANCH  18  23
HETATM   23  C           1     -31.476  -4.564 -16.130  0.00  0.00     0.081 C 
BRANCH  23  24
HETATM   24  C           1     -30.674  -5.419 -17.061  0.00  0.00    -0.056 A 
HETATM   25  C           1     -29.502  -4.920 -17.630  0.00  0.00     0.007 A 
HETATM   26  C           1     -28.755  -5.716 -18.498  0.00  0.00     0.001 A 
HETATM   27  C           1     -29.179  -7.010 -18.797  0.00  0.00     0.000 A 
HETATM   28  C           1     -30.351  -7.509 -18.228  0.00  0.00     0.001 A 
HETATM   29  C           1     -31.098  -6.714 -17.360  0.00  0.00     0.007 A 
ENDBRANCH  23  24
ENDBRANCH  18  23
ENDBRANCH   1  18
TORSDOF 9
ENDMDL
MODEL 5
REMARK VINA RESULT:      -8.0      2.215      8.111
REMARK  9 active torsions:
REMARK  status: ('A' for Active; 'I' for Inactive)
REMARK       I    between atoms: C_2  and  N_10 
REMARK    1  A    between atoms: C_2  and  C_26 
REMARK    2  A    between atoms: C_8  and  C_11 
REMARK    3  A    between atoms: C_8  and  C_13 
REMARK    4  A    between atoms: N_10  and  C_13 
REMARK    5  A    between atoms: C_13  and  C_14 
REMARK    6  A    between atoms: O_19  and  C_20 
REMARK    7  A    between atoms: N_24  and  C_26 
REMARK    8  A    between atoms: C_26  and  C_27 
REMARK    9  A    between atoms: C_27  and  C_28 
ROOT
HETATM    1  C           1     -20.630  -7.335  -5.609  0.00  0.00     0.249 C 
HETATM    2  N           1     -20.903  -8.120  -4.522  0.00  0.00    -0.344 N 
HETATM    3  O           1     -19.591  -7.473  -6.209  0.00  0.00    -0.271 OA
HETATM    4  H           1     -21.773  -8.004  -4.019  0.00  0.00     0.163 HD
ENDROOT
BRANCH   2   5
HETATM    5  C           1     -19.944  -9.118  -4.089  0.00  0.00     0.189 C 
BRANCH   5   6
HETATM    6  C           1     -19.428  -8.758  -2.703  0.00  0.00     0.074 C 
BRANCH   6   7
HETATM    7  C           1     -20.585  -8.461  -1.800  0.00  0.00    -0.056 A 
HETATM    8  C           1     -21.201  -7.210  -1.845  0.00  0.00     0.010 A 
HETATM    9  C           1     -22.278  -6.933  -1.004  0.00  0.00     0.037 A 
HETATM   10  C           1     -22.740  -7.907  -0.118  0.00  0.00     0.065 A 
HETATM   11  C           1     -22.123  -9.157  -0.073  0.00  0.00     0.037 A 
HETATM   12  C           1     -21.046  -9.434  -0.915  0.00  0.00     0.010 A 
BRANCH  10  13
HETATM   13  O           1     -23.787  -7.637   0.700  0.00  0.00    -0.361 OA
HETATM   14  H           1     -24.110  -6.746   0.490  0.00  0.00     0.217 HD
ENDBRANCH  10  13
ENDBRANCH   6   7
ENDBRANCH   5   6
BRANCH   5  15
HETATM   15  C           1     -20.613 -10.469  -4.043  0.00  0.00     0.197 C 
HETATM   16  O           1     -19.949 -11.486  -3.747  0.00  0.00    -0.646 OA
HETATM   17  O           1     -21.832 -10.572  -4.301  0.00  0.00    -0.646 OA
ENDBRANCH   5  15
ENDBRANCH   2   5
BRANCH   1  18
HETATM   18  C           1     -21.629  -6.296  -6.060  0.00  0.00     0.278 C 
BRANCH  18  19
HETATM   19  N           1     -22.636  -6.067  -4.972  0.00  0.00    -0.066 N 
HETATM   20  H           1     -22.156  -6.093  -4.043  0.00  0.00     0.275 HD
HETATM   21  H           1     -23.365  -6.814  -5.009  0.00  0.00     0.275 HD
HETATM   22  H           1     -23.086  -5.133  -5.103  0.00  0.00     0.275 HD
ENDBRANCH  18  19
BRANCH  18  23
HETATM   23  C           1     -20.903  -4.992  -6.362  0.00  0.00     0.081 C 
BRANCH  23  24
HETATM   24  C           1     -21.147  -4.604  -7.788  0.00  0.00    -0.056 A 
HETATM   25  C           1     -20.120  -4.714  -8.726  0.00  0.00     0.007 A 
HETATM   26  C           1     -20.347  -4.352 -10.053  0.00  0.00     0.001 A 
HETATM   27  C           1     -21.601  -3.881 -10.443  0.00  0.00     0.000 A 
HETATM   28  C           1     -22.628  -3.771  -9.506  0.00  0.00     0.001 A 
HETATM   29  C           1     -22.401  -4.133  -8.178  0.00  0.00     0.007 A 
ENDBRANCH  23  24
ENDBRANCH  18  23
ENDBRANCH   1  18
TORSDOF 9
ENDMDL
MODEL 6
REMARK VINA RESULT:      -7.8      2.139      7.937
REMARK  9 active torsions:
REMARK  status: ('A' for Active; 'I' for Inactive)
REMARK       I    between atoms: C_2  and  N_10 
REMARK    1  A    between atoms: C_2  and  C_26 
REMARK    2  A    between atoms: C_8  and  C_11 
REMARK    3  A    between atoms: C_8  and  C_13 
REMARK    4  A    between atoms: N_10  and  C_13 
REMARK    5  A    between atoms: C_13  and  C_14 
REMARK    6  A    between atoms: O_19  and  C_20 
REMARK    7  A    between atoms: N_24  and  C_26 
REMARK    8  A    between atoms: C_26  and  C_27 
REMARK    9  A    between atoms: C_27  and  C_28 
ROOT
HETATM    1  C           1     -20.036  -5.396  -5.963  0.00  0.00     0.249 C 
HETATM    2  N           1     -19.966  -6.760  -6.035  0.00  0.00    -0.344 N 
HETATM    3  O           1     -20.183  -4.854  -4.893  0.00  0.00    -0.271 OA
HETATM    4  H           1     -19.842  -7.214  -6.931  0.00  0.00     0.163 HD
ENDROOT
BRANCH   2   5
HETATM    5  C           1     -20.069  -7.557  -4.828  0.00  0.00     0.189 C 
BRANCH   5   6
HETATM    6  C           1     -21.532  -7.869  -4.550  0.00  0.00     0.074 C 
BRANCH   6   7
HETATM    7  C           1     -21.771  -7.871  -3.071  0.00  0.00    -0.056 A 
HETATM    8  C           1     -22.028  -6.673  -2.405  0.00  0.00     0.010 A 
HETATM    9  C           1     -22.250  -6.675  -1.028  0.00  0.00     0.037 A 
HETATM   10  C           1     -22.215  -7.874  -0.317  0.00  0.00     0.065 A 
HETATM   11  C           1     -21.957  -9.072  -0.984  0.00  0.00     0.037 A 
HETATM   12  C           1     -21.735  -9.071  -2.361  0.00  0.00     0.010 A 
BRANCH  10  13
HETATM   13  O           1     -22.429  -7.876   1.021  0.00  0.00    -0.361 OA
HETATM   14  H           1     -23.027  -8.614   1.228  0.00  0.00     0.217 HD
ENDBRANCH  10  13
ENDBRANCH   6   7
ENDBRANCH   5   6
BRANCH   5  15
HETATM   15  C           1     -19.305  -8.845  -5.011  0.00  0.00     0.197 C 
HETATM   16  O           1     -19.604  -9.624  -5.942  0.00  0.00    -0.646 OA
HETATM   17  O           1     -18.373  -9.135  -4.230  0.00  0.00    -0.646 OA
ENDBRANCH   5  15
ENDBRANCH   2   5
BRANCH   1  18
HETATM   18  C           1     -19.928  -4.566  -7.219  0.00  0.00     0.278 C 
BRANCH  18  19
HETATM   19  N           1     -18.499  -4.159  -7.427  0.00  0.00    -0.066 N 
HETATM   20  H           1     -17.878  -4.752  -6.830  0.00  0.00     0.275 HD
HETATM   21  H           1     -18.380  -3.155  -7.163  0.00  0.00     0.275 HD
HETATM   22  H           1     -18.242  -4.289  -8.432  0.00  0.00     0.275 HD
ENDBRANCH  18  19
BRANCH  18  23
HETATM   23  C           1     -20.400  -5.385  -8.412  0.00  0.00     0.081 C 
BRANCH  23  24
HETATM   24  C           1     -21.581  -4.714  -9.042  0.00  0.00    -0.056 A 
HETATM   25  C           1     -22.711  -4.427  -8.276  0.00  0.00     0.007 A 
HETATM   26  C           1     -23.811  -3.802  -8.865  0.00  0.00     0.001 A 
HETATM   27  C           1     -23.781  -3.465 -10.217  0.00  0.00     0.000 A 
HETATM   28  C           1     -22.651  -3.752 -10.983  0.00  0.00     0.001 A 
HETATM   29  C           1     -21.551  -4.376 -10.396  0.00  0.00     0.007 A 
ENDBRANCH  23  24
ENDBRANCH  18  23
ENDBRANCH   1  18
TORSDOF 9
ENDMDL
MODEL 7
REMARK VINA RESULT:      -7.4      3.355      8.018
REMARK  9 active torsions:
REMARK  status: ('A' for Active; 'I' for Inactive)
REMARK       I    between atoms: C_2  and  N_10 
REMARK    1  A    between atoms: C_2  and  C_26 
REMARK    2  A    between atoms: C_8  and  C_11 
REMARK    3  A    between atoms: C_8  and  C_13 
REMARK    4  A    between atoms: N_10  and  C_13 
REMARK    5  A    between atoms: C_13  and  C_14 
REMARK    6  A    between atoms: O_19  and  C_20 
REMARK    7  A    between atoms: N_24  and  C_26 
REMARK    8  A    between atoms: C_26  and  C_27 
REMARK    9  A    between atoms: C_27  and  C_28 
ROOT
HETATM    1  C           1     -20.415  -7.506  -5.008  0.00  0.00     0.249 C 
HETATM    2  N           1     -20.329  -8.288  -3.889  0.00  0.00    -0.344 N 
HETATM    3  O           1     -19.818  -7.819  -6.011  0.00  0.00    -0.271 OA
HETATM    4  H           1     -20.829  -8.026  -3.049  0.00  0.00     0.163 HD
ENDROOT
BRANCH   2   5
HETATM    5  C           1     -19.523  -9.493  -3.905  0.00  0.00     0.189 C 
BRANCH   5   6
HETATM    6  C           1     -18.279  -9.282  -3.053  0.00  0.00     0.074 C 
BRANCH   6   7
HETATM    7  C           1     -17.118  -9.993  -3.677  0.00  0.00    -0.056 A 
HETATM    8  C           1     -16.915  -9.919  -5.055  0.00  0.00     0.010 A 
HETATM    9  C           1     -15.835 -10.581  -5.637  0.00  0.00     0.037 A 
HETATM   10  C           1     -14.957 -11.318  -4.841  0.00  0.00     0.065 A 
HETATM   11  C           1     -15.161 -11.391  -3.463  0.00  0.00     0.037 A 
HETATM   12  C           1     -16.242 -10.729  -2.881  0.00  0.00     0.010 A 
BRANCH  10  13
HETATM   13  O           1     -13.907 -11.962  -5.406  0.00  0.00    -0.361 OA
HETATM   14  H           1     -13.963 -11.841  -6.368  0.00  0.00     0.217 HD
ENDBRANCH  10  13
ENDBRANCH   6   7
ENDBRANCH   5   6
BRANCH   5  15
HETATM   15  C           1     -20.326 -10.642  -3.348  0.00  0.00     0.197 C 
HETATM   16  O           1     -20.831 -10.558  -2.208  0.00  0.00    -0.646 OA
HETATM   17  O           1     -20.486 -11.680  -4.027  0.00  0.00    -0.646 OA
ENDBRANCH   5  15
ENDBRANCH   2   5
BRANCH   1  18
HETATM   18  C           1     -21.255  -6.252  -4.992  0.00  0.00     0.278 C 
BRANCH  18  19
HETATM   19  N           1     -21.734  -5.992  -3.594  0.00  0.00    -0.066 N 
HETATM   20  H           1     -21.004  -6.301  -2.913  0.00  0.00     0.275 HD
HETATM   21  H           1     -22.617  -6.524  -3.424  0.00  0.00     0.275 HD
HETATM   22  H           1     -21.914  -4.969  -3.472  0.00  0.00     0.275 HD
ENDBRANCH  18  19
BRANCH  18  23
HETATM   23  C           1     -20.418  -5.073  -5.469  0.00  0.00     0.081 C 
BRANCH  23  24
HETATM   24  C           1     -20.808  -4.719  -6.870  0.00  0.00    -0.056 A 
HETATM   25  C           1     -19.832  -4.623  -7.862  0.00  0.00     0.007 A 
HETATM   26  C           1     -20.195  -4.292  -9.168  0.00  0.00     0.001 A 
HETATM   27  C           1     -21.534  -4.058  -9.481  0.00  0.00     0.000 A 
HETATM   28  C           1     -22.510  -4.155  -8.489  0.00  0.00     0.001 A 
HETATM   29  C           1     -22.147  -4.485  -7.184  0.00  0.00     0.007 A 
ENDBRANCH  23  24
ENDBRANCH  18  23
ENDBRANCH   1  18
TORSDOF 9
ENDMDL
MODEL 8
REMARK VINA RESULT:      -7.3      5.071      8.522
REMARK  9 active torsions:
REMARK  status: ('A' for Active; 'I' for Inactive)
REMARK       I    between atoms: C_2  and  N_10 
REMARK    1  A    between atoms: C_2  and  C_26 
REMARK    2  A    between atoms: C_8  and  C_11 
REMARK    3  A    between atoms: C_8  and  C_13 
REMARK    4  A    between atoms: N_10  and  C_13 
REMARK    5  A    between atoms: C_13  and  C_14 
REMARK    6  A    between atoms: O_19  and  C_20 
REMARK    7  A    between atoms: N_24  and  C_26 
REMARK    8  A    between atoms: C_26  and  C_27 
REMARK    9  A    between atoms: C_27  and  C_28 
ROOT
HETATM    1  C           1     -21.246  -9.631  -3.771  0.00  0.00     0.249 C 
HETATM    2  N           1     -20.948  -8.618  -2.901  0.00  0.00    -0.344 N 
HETATM    3  O           1     -22.330 -10.163  -3.731  0.00  0.00    -0.271 OA
HETATM    4  H           1     -20.040  -8.173  -2.934  0.00  0.00     0.163 HD
ENDROOT
BRANCH   2   5
HETATM    5  C           1     -21.932  -8.183  -1.929  0.00  0.00     0.189 C 
BRANCH   5   6
HETATM    6  C           1     -21.455  -8.539  -0.529  0.00  0.00     0.074 C 
BRANCH   6   7
HETATM    7  C           1     -21.989  -9.885  -0.146  0.00  0.00    -0.056 A 
HETATM    8  C           1     -23.340 -10.178  -0.332  0.00  0.00     0.010 A 
HETATM    9  C           1     -23.837 -11.431   0.024  0.00  0.00     0.037 A 
HETATM   10  C           1     -22.983 -12.392   0.568  0.00  0.00     0.065 A 
HETATM   11  C           1     -21.633 -12.098   0.754  0.00  0.00     0.037 A 
HETATM   12  C           1     -21.135 -10.844   0.398  0.00  0.00     0.010 A 
BRANCH  10  13
HETATM   13  O           1     -23.466 -13.609   0.915  0.00  0.00    -0.361 OA
HETATM   14  H           1     -22.782 -14.068   1.431  0.00  0.00     0.217 HD
ENDBRANCH  10  13
ENDBRANCH   6   7
ENDBRANCH   5   6
BRANCH   5  15
HETATM   15  C           1     -22.115  -6.689  -2.035  0.00  0.00     0.197 C 
HETATM   16  O           1     -22.370  -6.016  -1.013  0.00  0.00    -0.646 OA
HETATM   17  O           1     -22.012  -6.124  -3.145  0.00  0.00    -0.646 OA
ENDBRANCH   5  15
ENDBRANCH   2   5
BRANCH   1  18
HETATM   18  C           1     -20.222 -10.084  -4.783  0.00  0.00     0.278 C 
BRANCH  18  19
HETATM   19  N           1     -20.893 -10.311  -6.105  0.00  0.00    -0.066 N 
HETATM   20  H           1     -20.410  -9.748  -6.842  0.00  0.00     0.275 HD
HETATM   21  H           1     -21.894 -10.018  -6.043  0.00  0.00     0.275 HD
HETATM   22  H           1     -20.841 -11.325  -6.353  0.00  0.00     0.275 HD
ENDBRANCH  18  19
BRANCH  18  23
HETATM   23  C           1     -19.150  -9.014  -4.936  0.00  0.00     0.081 C 
BRANCH  23  24
HETATM   24  C           1     -17.828  -9.565  -4.500  0.00  0.00    -0.056 A 
HETATM   25  C           1     -16.967 -10.137  -5.437  0.00  0.00     0.007 A 
HETATM   26  C           1     -15.736 -10.650  -5.030  0.00  0.00     0.001 A 
HETATM   27  C           1     -15.365 -10.592  -3.687  0.00  0.00     0.000 A 
HETATM   28  C           1     -16.226 -10.021  -2.750  0.00  0.00     0.001 A 
HETATM   29  C           1     -17.457  -9.507  -3.156  0.00  0.00     0.007 A 
ENDBRANCH  23  24
ENDBRANCH  18  23
ENDBRANCH   1  18
TORSDOF 9
ENDMDL
MODEL 9
REMARK VINA RESULT:      -7.2      2.754      8.060
REMARK  9 active torsions:
REMARK  status: ('A' for Active; 'I' for Inactive)
REMARK       I    between atoms: C_2  and  N_10 
REMARK    1  A    between atoms: C_2  and  C_26 
REMARK    2  A    between atoms: C_8  and  C_11 
REMARK    3  A    between atoms: C_8  and  C_13 
REMARK    4  A    between atoms: N_10  and  C_13 
REMARK    5  A    between atoms: C_13  and  C_14 
REMARK    6  A    between atoms: O_19  and  C_20 
REMARK    7  A    between atoms: N_24  and  C_26 
REMARK    8  A    between atoms: C_26  and  C_27 
REMARK    9  A    between atoms: C_27  and  C_28 
ROOT
HETATM    1  C           1     -20.937  -7.356  -4.857  0.00  0.00     0.249 C 
HETATM    2  N           1     -20.393  -8.500  -5.377  0.00  0.00    -0.344 N 
HETATM    3  O           1     -20.772  -7.084  -3.692  0.00  0.00    -0.271 OA
HETATM    4  H           1     -20.532  -8.727  -6.353  0.00  0.00     0.163 HD
ENDROOT
BRANCH   2   5
HETATM    5  C           1     -19.620  -9.386  -4.529  0.00  0.00     0.189 C 
BRANCH   5   6
HETATM    6  C           1     -20.343 -10.719  -4.396  0.00  0.00     0.074 C 
BRANCH   6   7
HETATM    7  C           1     -21.278 -10.666  -3.227  0.00  0.00    -0.056 A 
HETATM    8  C           1     -20.878 -10.049  -2.042  0.00  0.00     0.010 A 
HETATM    9  C           1     -21.748 -10.000  -0.954  0.00  0.00     0.037 A 
HETATM   10  C           1     -23.019 -10.568  -1.049  0.00  0.00     0.065 A 
HETATM   11  C           1     -23.417 -11.186  -2.234  0.00  0.00     0.037 A 
HETATM   12  C           1     -22.547 -11.236  -3.324  0.00  0.00     0.010 A 
BRANCH  10  13
HETATM   13  O           1     -23.864 -10.522   0.008  0.00  0.00    -0.361 OA
HETATM   14  H           1     -24.686 -10.975  -0.244  0.00  0.00     0.217 HD
ENDBRANCH  10  13
ENDBRANCH   6   7
ENDBRANCH   5   6
BRANCH   5  15
HETATM   15  C           1     -18.261  -9.609  -5.144  0.00  0.00     0.197 C 
HETATM   16  O           1     -17.275  -9.849  -4.413  0.00  0.00    -0.646 OA
HETATM   17  O           1     -18.119  -9.553  -6.384  0.00  0.00    -0.646 OA
ENDBRANCH   5  15
ENDBRANCH   2   5
BRANCH   1  18
HETATM   18  C           1     -21.741  -6.433  -5.740  0.00  0.00     0.278 C 
BRANCH  18  19
HETATM   19  N           1     -23.036  -6.097  -5.061  0.00  0.00    -0.066 N 
HETATM   20  H           1     -23.012  -5.102  -4.739  0.00  0.00     0.275 HD
HETATM   21  H           1     -23.172  -6.727  -4.238  0.00  0.00     0.275 HD
HETATM   22  H           1     -23.826  -6.226  -5.733  0.00  0.00     0.275 HD
ENDBRANCH  18  19
BRANCH  18  23
HETATM   23  C           1     -20.954  -5.155  -5.991  0.00  0.00     0.081 C 
BRANCH  23  24
HETATM   24  C           1     -21.116  -4.741  -7.421  0.00  0.00    -0.056 A 
HETATM   25  C           1     -20.078  -4.950  -8.329  0.00  0.00     0.007 A 
HETATM   26  C           1     -20.229  -4.564  -9.661  0.00  0.00     0.001 A 
HETATM   27  C           1     -21.418  -3.970 -10.085  0.00  0.00     0.000 A 
HETATM   28  C           1     -22.456  -3.761  -9.176  0.00  0.00     0.001 A 
HETATM   29  C           1     -22.305  -4.147  -7.845  0.00  0.00     0.007 A 
ENDBRANCH  23  24
ENDBRANCH  18  23
ENDBRANCH   1  18
TORSDOF 9
ENDMDL
