MODEL 1
REMARK VINA RESULT:      -5.8      0.000      0.000
REMARK  9 active torsions:
REMARK  status: ('A' for Active; 'I' for Inactive)
REMARK    1  A    between atoms: C_2  and  C_19 
REMARK    2  A    between atoms: N_5  and  C_7 
REMARK       I    between atoms: N_5  and  C_15 
REMARK    3  A    between atoms: O_6  and  C_12 
REMARK    4  A    between atoms: C_7  and  C_14 
REMARK    5  A    between atoms: C_7  and  C_18 
REMARK    6  A    between atoms: N_11  and  C_13 
REMARK    7  A    between atoms: C_12  and  C_13 
REMARK    8  A    between atoms: C_13  and  C_15 
REMARK    9  A    between atoms: C_14  and  C_19 
ROOT
HETATM    1  N           1     -21.856  -4.311  -9.286  0.00  0.00    -0.345 N 
HETATM    2  O           1     -19.834  -5.082  -8.733  0.00  0.00    -0.271 OA
HETATM    3  C           1     -20.907  -4.666  -8.365  0.00  0.00     0.251 C 
HETATM    4  H           1     -22.754  -3.963  -8.979  0.00  0.00     0.163 HD
ENDROOT
BRANCH   1   5
HETATM    5  C           1     -21.572  -4.435 -10.704  0.00  0.00     0.186 C 
BRANCH   5   6
HETATM    6  C           1     -22.842  -4.840 -11.441  0.00  0.00     0.046 C 
BRANCH   6   7
HETATM    7  C           1     -23.970  -5.040 -10.437  0.00  0.00     0.116 C 
BRANCH   7   8
HETATM    8  C           1     -24.624  -3.711 -10.145  0.00  0.00     0.172 C 
HETATM    9  O           1     -24.499  -3.187  -9.017  0.00  0.00    -0.648 OA
HETATM   10  O           1     -25.292  -3.135 -11.032  0.00  0.00    -0.648 OA
ENDBRANCH   7   8
ENDBRANCH   6   7
ENDBRANCH   5   6
BRANCH   5  11
HETATM   11  C           1     -21.083  -3.110 -11.235  0.00  0.00     0.196 C 
HETATM   12  O           1     -19.860  -2.850 -11.233  0.00  0.00    -0.646 OA
HETATM   13  O           1     -21.899  -2.272 -11.675  0.00  0.00    -0.646 OA
ENDBRANCH   5  11
ENDBRANCH   1   5
BRANCH   3  14
HETATM   14  C           1     -21.201  -4.537  -6.891  0.00  0.00     0.302 C 
BRANCH  14  15
HETATM   15  N           1     -22.685  -4.452  -6.685  0.00  0.00    -0.064 N 
HETATM   16  H           1     -22.960  -5.054  -5.875  0.00  0.00     0.275 HD
HETATM   17  H           1     -22.952  -3.461  -6.488  0.00  0.00     0.275 HD
HETATM   18  H           1     -23.176  -4.782  -7.546  0.00  0.00     0.275 HD
ENDBRANCH  14  15
BRANCH  14  19
HETATM   19  C           1     -20.656  -5.755  -6.155  0.00  0.00     0.153 C 
HETATM   20  C           1     -21.235  -5.797  -4.748  0.00  0.00     0.042 C 
BRANCH  19  21
HETATM   21  O           1     -21.021  -6.920  -6.845  0.00  0.00    -0.393 OA
HETATM   22  H           1     -20.361  -7.067  -7.501  0.00  0.00     0.210 HD
ENDBRANCH  19  21
ENDBRANCH  14  19
ENDBRANCH   3  14
TORSDOF 9
ENDMDL
MODEL 2
REMARK VINA RESULT:      -5.6      1.674      2.604
REMARK  9 active torsions:
REMARK  status: ('A' for Active; 'I' for Inactive)
REMARK    1  A    between atoms: C_2  and  C_19 
REMARK    2  A    between atoms: N_5  and  C_7 
REMARK       I    between atoms: N_5  and  C_15 
REMARK    3  A    between atoms: O_6  and  C_12 
REMARK    4  A    between atoms: C_7  and  C_14 
REMARK    5  A    between atoms: C_7  and  C_18 
REMARK    6  A    between atoms: N_11  and  C_13 
REMARK    7  A    between atoms: C_12  and  C_13 
REMARK    8  A    between atoms: C_13  and  C_15 
REMARK    9  A    between atoms: C_14  and  C_19 
ROOT
HETATM    1  N           1     -21.208  -4.810  -6.918  0.00  0.00    -0.345 N 
HETATM    2  O           1     -21.078  -7.038  -7.008  0.00  0.00    -0.271 OA
HETATM    3  C           1     -20.999  -6.035  -6.341  0.00  0.00     0.251 C 
HETATM    4  H           1     -21.141  -3.970  -6.359  0.00  0.00     0.163 HD
ENDROOT
BRANCH   1   5
HETATM    5  C           1     -21.525  -4.719  -8.331  0.00  0.00     0.186 C 
BRANCH   5   6
HETATM    6  C           1     -22.580  -3.642  -8.545  0.00  0.00     0.046 C 
BRANCH   6   7
HETATM    7  C           1     -23.859  -4.282  -9.067  0.00  0.00     0.116 C 
BRANCH   7   8
HETATM    8  C           1     -24.100  -3.837 -10.489  0.00  0.00     0.172 C 
HETATM    9  O           1     -23.275  -4.126 -11.383  0.00  0.00    -0.648 OA
HETATM   10  O           1     -25.125  -3.179 -10.774  0.00  0.00    -0.648 OA
ENDBRANCH   7   8
ENDBRANCH   6   7
ENDBRANCH   5   6
BRANCH   5  11
HETATM   11  C           1     -20.278  -4.364  -9.102  0.00  0.00     0.196 C 
HETATM   12  O           1     -20.177  -4.684 -10.307  0.00  0.00    -0.646 OA
HETATM   13  O           1     -19.346  -3.751  -8.539  0.00  0.00    -0.646 OA
ENDBRANCH   5  11
ENDBRANCH   1   5
BRANCH   3  14
HETATM   14  C           1     -20.669  -6.129  -4.872  0.00  0.00     0.302 C 
BRANCH  14  15
HETATM   15  N           1     -20.297  -4.771  -4.356  0.00  0.00    -0.064 N 
HETATM   16  H           1     -19.930  -4.187  -5.141  0.00  0.00     0.275 HD
HETATM   17  H           1     -21.141  -4.311  -3.946  0.00  0.00     0.275 HD
HETATM   18  H           1     -19.560  -4.867  -3.621  0.00  0.00     0.275 HD
ENDBRANCH  14  15
BRANCH  14  19
HETATM   19  C           1     -21.883  -6.646  -4.111  0.00  0.00     0.153 C 
HETATM   20  C           1     -21.835  -6.139  -2.675  0.00  0.00     0.042 C 
BRANCH  19  21
HETATM   21  O           1     -23.054  -6.185  -4.729  0.00  0.00    -0.393 OA
HETATM   22  H           1     -22.809  -5.882  -5.587  0.00  0.00     0.210 HD
ENDBRANCH  19  21
ENDBRANCH  14  19
ENDBRANCH   3  14
TORSDOF 9
ENDMDL
MODEL 3
REMARK VINA RESULT:      -5.3      2.933      6.885
REMARK  9 active torsions:
REMARK  status: ('A' for Active; 'I' for Inactive)
REMARK    1  A    between atoms: C_2  and  C_19 
REMARK    2  A    between atoms: N_5  and  C_7 
REMARK       I    between atoms: N_5  and  C_15 
REMARK    3  A    between atoms: O_6  and  C_12 
REMARK    4  A    between atoms: C_7  and  C_14 
REMARK    5  A    between atoms: C_7  and  C_18 
REMARK    6  A    between atoms: N_11  and  C_13 
REMARK    7  A    between atoms: C_12  and  C_13 
REMARK    8  A    between atoms: C_13  and  C_15 
REMARK    9  A    between atoms: C_14  and  C_19 
ROOT
HETATM    1  N           1     -21.012  -6.738  -6.289  0.00  0.00    -0.345 N 
HETATM    2  O           1     -20.661  -4.571  -5.880  0.00  0.00    -0.271 OA
HETATM    3  C           1     -21.030  -5.419  -6.657  0.00  0.00     0.251 C 
HETATM    4  H           1     -21.322  -7.449  -6.939  0.00  0.00     0.163 HD
ENDROOT
BRANCH   1   5
HETATM    5  C           1     -20.549  -7.116  -4.967  0.00  0.00     0.186 C 
BRANCH   5   6
HETATM    6  C           1     -21.747  -7.314  -4.048  0.00  0.00     0.046 C 
BRANCH   6   7
HETATM    7  C           1     -21.687  -6.304  -2.910  0.00  0.00     0.116 C 
BRANCH   7   8
HETATM    8  C           1     -21.779  -7.029  -1.589  0.00  0.00     0.172 C 
HETATM    9  O           1     -20.889  -7.841  -1.257  0.00  0.00    -0.648 OA
HETATM   10  O           1     -22.747  -6.817  -0.826  0.00  0.00    -0.648 OA
ENDBRANCH   7   8
ENDBRANCH   6   7
ENDBRANCH   5   6
BRANCH   5  11
HETATM   11  C           1     -19.766  -8.402  -5.059  0.00  0.00     0.196 C 
HETATM   12  O           1     -19.853  -9.252  -4.146  0.00  0.00    -0.646 OA
HETATM   13  O           1     -19.030  -8.618  -6.045  0.00  0.00    -0.646 OA
ENDBRANCH   5  11
ENDBRANCH   1   5
BRANCH   3  14
HETATM   14  C           1     -21.512  -5.026  -8.031  0.00  0.00     0.302 C 
BRANCH  14  15
HETATM   15  N           1     -22.408  -3.828  -7.923  0.00  0.00    -0.064 N 
HETATM   16  H           1     -21.835  -2.982  -7.704  0.00  0.00     0.275 HD
HETATM   17  H           1     -22.908  -3.684  -8.829  0.00  0.00     0.275 HD
HETATM   18  H           1     -23.105  -3.983  -7.160  0.00  0.00     0.275 HD
ENDBRANCH  14  15
BRANCH  14  19
HETATM   19  C           1     -20.315  -4.686  -8.911  0.00  0.00     0.153 C 
HETATM   20  C           1     -20.806  -4.193 -10.266  0.00  0.00     0.042 C 
BRANCH  19  21
HETATM   21  O           1     -19.554  -3.681  -8.297  0.00  0.00    -0.393 OA
HETATM   22  H           1     -19.971  -2.860  -8.500  0.00  0.00     0.210 HD
ENDBRANCH  19  21
ENDBRANCH  14  19
ENDBRANCH   3  14
TORSDOF 9
ENDMDL
MODEL 4
REMARK VINA RESULT:      -5.3      4.308      7.321
REMARK  9 active torsions:
REMARK  status: ('A' for Active; 'I' for Inactive)
REMARK    1  A    between atoms: C_2  and  C_19 
REMARK    2  A    between atoms: N_5  and  C_7 
REMARK       I    between atoms: N_5  and  C_15 
REMARK    3  A    between atoms: O_6  and  C_12 
REMARK    4  A    between atoms: C_7  and  C_14 
REMARK    5  A    between atoms: C_7  and  C_18 
REMARK    6  A    between atoms: N_11  and  C_13 
REMARK    7  A    between atoms: C_12  and  C_13 
REMARK    8  A    between atoms: C_13  and  C_15 
REMARK    9  A    between atoms: C_14  and  C_19 
ROOT
HETATM    1  N           1     -21.587  -7.859  -4.869  0.00  0.00    -0.345 N 
HETATM    2  O           1     -19.704  -7.389  -5.974  0.00  0.00    -0.271 OA
HETATM    3  C           1     -20.863  -7.120  -5.768  0.00  0.00     0.251 C 
HETATM    4  H           1     -22.558  -7.635  -4.696  0.00  0.00     0.163 HD
ENDROOT
BRANCH   1   5
HETATM    5  C           1     -20.961  -8.963  -4.167  0.00  0.00     0.186 C 
BRANCH   5   6
HETATM    6  C           1     -21.400  -8.949  -2.709  0.00  0.00     0.046 C 
BRANCH   6   7
HETATM    7  C           1     -20.911  -7.670  -2.043  0.00  0.00     0.116 C 
BRANCH   7   8
HETATM    8  C           1     -22.086  -6.761  -1.775  0.00  0.00     0.172 C 
HETATM    9  O           1     -22.441  -5.927  -2.636  0.00  0.00    -0.648 OA
HETATM   10  O           1     -22.706  -6.843  -0.692  0.00  0.00    -0.648 OA
ENDBRANCH   7   8
ENDBRANCH   6   7
ENDBRANCH   5   6
BRANCH   5  11
HETATM   11  C           1     -21.377 -10.265  -4.806  0.00  0.00     0.196 C 
HETATM   12  O           1     -22.108 -11.063  -4.180  0.00  0.00    -0.646 OA
HETATM   13  O           1     -20.992 -10.546  -5.961  0.00  0.00    -0.646 OA
ENDBRANCH   5  11
ENDBRANCH   1   5
BRANCH   3  14
HETATM   14  C           1     -21.514  -5.973  -6.498  0.00  0.00     0.302 C 
BRANCH  14  15
HETATM   15  N           1     -22.746  -5.544  -5.758  0.00  0.00    -0.064 N 
HETATM   16  H           1     -22.594  -4.595  -5.347  0.00  0.00     0.275 HD
HETATM   17  H           1     -23.555  -5.512  -6.417  0.00  0.00     0.275 HD
HETATM   18  H           1     -22.946  -6.225  -4.991  0.00  0.00     0.275 HD
ENDBRANCH  14  15
BRANCH  14  19
HETATM   19  C           1     -20.540  -4.805  -6.581  0.00  0.00     0.153 C 
HETATM   20  C           1     -21.249  -3.595  -7.175  0.00  0.00     0.042 C 
BRANCH  19  21
HETATM   21  O           1     -20.078  -4.490  -5.295  0.00  0.00    -0.393 OA
HETATM   22  H           1     -20.459  -5.119  -4.706  0.00  0.00     0.210 HD
ENDBRANCH  19  21
ENDBRANCH  14  19
ENDBRANCH   3  14
TORSDOF 9
ENDMDL
MODEL 5
REMARK VINA RESULT:      -5.2      1.803      5.617
REMARK  9 active torsions:
REMARK  status: ('A' for Active; 'I' for Inactive)
REMARK    1  A    between atoms: C_2  and  C_19 
REMARK    2  A    between atoms: N_5  and  C_7 
REMARK       I    between atoms: N_5  and  C_15 
REMARK    3  A    between atoms: O_6  and  C_12 
REMARK    4  A    between atoms: C_7  and  C_14 
REMARK    5  A    between atoms: C_7  and  C_18 
REMARK    6  A    between atoms: N_11  and  C_13 
REMARK    7  A    between atoms: C_12  and  C_13 
REMARK    8  A    between atoms: C_13  and  C_15 
REMARK    9  A    between atoms: C_14  and  C_19 
ROOT
HETATM    1  N           1     -21.917  -5.039  -7.180  0.00  0.00    -0.345 N 
HETATM    2  O           1     -21.384  -3.290  -8.463  0.00  0.00    -0.271 OA
HETATM    3  C           1     -22.132  -4.215  -8.253  0.00  0.00     0.251 C 
HETATM    4  H           1     -22.542  -5.814  -7.003  0.00  0.00     0.163 HD
ENDROOT
BRANCH   1   5
HETATM    5  C           1     -20.791  -4.800  -6.297  0.00  0.00     0.186 C 
BRANCH   5   6
HETATM    6  C           1     -21.006  -5.546  -4.987  0.00  0.00     0.046 C 
BRANCH   6   7
HETATM    7  C           1     -22.155  -6.533  -5.148  0.00  0.00     0.116 C 
BRANCH   7   8
HETATM    8  C           1     -21.655  -7.934  -4.890  0.00  0.00     0.172 C 
HETATM    9  O           1     -21.254  -8.640  -5.841  0.00  0.00    -0.648 OA
HETATM   10  O           1     -21.642  -8.388  -3.725  0.00  0.00    -0.648 OA
ENDBRANCH   7   8
ENDBRANCH   6   7
ENDBRANCH   5   6
BRANCH   5  11
HETATM   11  C           1     -19.525  -5.291  -6.955  0.00  0.00     0.196 C 
HETATM   12  O           1     -19.408  -6.497  -7.261  0.00  0.00    -0.646 OA
HETATM   13  O           1     -18.593  -4.493  -7.193  0.00  0.00    -0.646 OA
ENDBRANCH   5  11
ENDBRANCH   1   5
BRANCH   3  14
HETATM   14  C           1     -23.303  -4.464  -9.171  0.00  0.00     0.302 C 
BRANCH  14  15
HETATM   15  N           1     -24.416  -3.520  -8.826  0.00  0.00    -0.064 N 
HETATM   16  H           1     -24.018  -2.588  -8.569  0.00  0.00     0.275 HD
HETATM   17  H           1     -25.049  -3.411  -9.651  0.00  0.00     0.275 HD
HETATM   18  H           1     -24.958  -3.900  -8.018  0.00  0.00     0.275 HD
ENDBRANCH  14  15
BRANCH  14  19
HETATM   19  C           1     -22.874  -4.237 -10.615  0.00  0.00     0.153 C 
HETATM   20  C           1     -23.695  -5.131 -11.534  0.00  0.00     0.042 C 
BRANCH  19  21
HETATM   21  O           1     -23.086  -2.894 -10.959  0.00  0.00    -0.393 OA
HETATM   22  H           1     -22.412  -2.392 -10.532  0.00  0.00     0.210 HD
ENDBRANCH  19  21
ENDBRANCH  14  19
ENDBRANCH   3  14
TORSDOF 9
ENDMDL
MODEL 6
REMARK VINA RESULT:      -5.1      6.013      9.084
REMARK  9 active torsions:
REMARK  status: ('A' for Active; 'I' for Inactive)
REMARK    1  A    between atoms: C_2  and  C_19 
REMARK    2  A    between atoms: N_5  and  C_7 
REMARK       I    between atoms: N_5  and  C_15 
REMARK    3  A    between atoms: O_6  and  C_12 
REMARK    4  A    between atoms: C_7  and  C_14 
REMARK    5  A    between atoms: C_7  and  C_18 
REMARK    6  A    between atoms: N_11  and  C_13 
REMARK    7  A    between atoms: C_12  and  C_13 
REMARK    8  A    between atoms: C_13  and  C_15 
REMARK    9  A    between atoms: C_14  and  C_19 
ROOT
HETATM    1  N           1     -21.875  -9.203  -1.907  0.00  0.00    -0.345 N 
HETATM    2  O           1     -20.813 -10.023  -0.121  0.00  0.00    -0.271 OA
HETATM    3  C           1     -21.581 -10.216  -1.034  0.00  0.00     0.251 C 
HETATM    4  H           1     -22.518  -9.364  -2.671  0.00  0.00     0.163 HD
ENDROOT
BRANCH   1   5
HETATM    5  C           1     -21.265  -7.898  -1.734  0.00  0.00     0.186 C 
BRANCH   5   6
HETATM    6  C           1     -20.719  -7.413  -3.071  0.00  0.00     0.046 C 
BRANCH   6   7
HETATM    7  C           1     -21.472  -8.097  -4.205  0.00  0.00     0.116 C 
BRANCH   7   8
HETATM    8  C           1     -21.761  -7.093  -5.294  0.00  0.00     0.172 C 
HETATM    9  O           1     -22.596  -6.184  -5.101  0.00  0.00    -0.648 OA
HETATM   10  O           1     -21.165  -7.172  -6.391  0.00  0.00    -0.648 OA
ENDBRANCH   7   8
ENDBRANCH   6   7
ENDBRANCH   5   6
BRANCH   5  11
HETATM   11  C           1     -22.301  -6.923  -1.230  0.00  0.00     0.196 C 
HETATM   12  O           1     -23.038  -7.236  -0.270  0.00  0.00    -0.646 OA
HETATM   13  O           1     -22.422  -5.803  -1.771  0.00  0.00    -0.646 OA
ENDBRANCH   5  11
ENDBRANCH   1   5
BRANCH   3  14
HETATM   14  C           1     -22.215 -11.573  -1.213  0.00  0.00     0.302 C 
BRANCH  14  15
HETATM   15  N           1     -21.306 -12.626  -0.652  0.00  0.00    -0.064 N 
HETATM   16  H           1     -21.736 -13.569  -0.791  0.00  0.00     0.275 HD
HETATM   17  H           1     -20.384 -12.589  -1.143  0.00  0.00     0.275 HD
HETATM   18  H           1     -21.165 -12.457   0.369  0.00  0.00     0.275 HD
ENDBRANCH  14  15
BRANCH  14  19
HETATM   19  C           1     -23.549 -11.612  -0.479  0.00  0.00     0.153 C 
HETATM   20  C           1     -23.441 -12.545   0.720  0.00  0.00     0.042 C 
BRANCH  19  21
HETATM   21  O           1     -23.877 -10.321  -0.037  0.00  0.00    -0.393 OA
HETATM   22  H           1     -23.446 -10.198   0.792  0.00  0.00     0.210 HD
ENDBRANCH  19  21
ENDBRANCH  14  19
ENDBRANCH   3  14
TORSDOF 9
ENDMDL
MODEL 7
REMARK VINA RESULT:      -5.1      2.249      3.508
REMARK  9 active torsions:
REMARK  status: ('A' for Active; 'I' for Inactive)
REMARK    1  A    between atoms: C_2  and  C_19 
REMARK    2  A    between atoms: N_5  and  C_7 
REMARK       I    between atoms: N_5  and  C_15 
REMARK    3  A    between atoms: O_6  and  C_12 
REMARK    4  A    between atoms: C_7  and  C_14 
REMARK    5  A    between atoms: C_7  and  C_18 
REMARK    6  A    between atoms: N_11  and  C_13 
REMARK    7  A    between atoms: C_12  and  C_13 
REMARK    8  A    between atoms: C_13  and  C_15 
REMARK    9  A    between atoms: C_14  and  C_19 
ROOT
HETATM    1  N           1     -20.980  -6.179  -7.395  0.00  0.00    -0.345 N 
HETATM    2  O           1     -19.946  -5.505  -5.533  0.00  0.00    -0.271 OA
HETATM    3  C           1     -20.557  -6.375  -6.107  0.00  0.00     0.251 C 
HETATM    4  H           1     -21.491  -6.907  -7.876  0.00  0.00     0.163 HD
ENDROOT
BRANCH   1   5
HETATM    5  C           1     -20.694  -4.926  -8.069  0.00  0.00     0.186 C 
BRANCH   5   6
HETATM    6  C           1     -20.625  -5.164  -9.571  0.00  0.00     0.046 C 
BRANCH   6   7
HETATM    7  C           1     -20.382  -3.840 -10.284  0.00  0.00     0.116 C 
BRANCH   7   8
HETATM    8  C           1     -21.448  -3.630 -11.332  0.00  0.00     0.172 C 
HETATM    9  O           1     -22.076  -4.608 -11.790  0.00  0.00    -0.648 OA
HETATM   10  O           1     -21.701  -2.476 -11.743  0.00  0.00    -0.648 OA
ENDBRANCH   7   8
ENDBRANCH   6   7
ENDBRANCH   5   6
BRANCH   5  11
HETATM   11  C           1     -21.788  -3.932  -7.765  0.00  0.00     0.196 C 
HETATM   12  O           1     -21.523  -2.886  -7.133  0.00  0.00    -0.646 OA
HETATM   13  O           1     -22.958  -4.154  -8.144  0.00  0.00    -0.646 OA
ENDBRANCH   5  11
ENDBRANCH   1   5
BRANCH   3  14
HETATM   14  C           1     -20.854  -7.677  -5.406  0.00  0.00     0.302 C 
BRANCH  14  15
HETATM   15  N           1     -19.594  -8.214  -4.795  0.00  0.00    -0.064 N 
HETATM   16  H           1     -19.514  -7.880  -3.808  0.00  0.00     0.275 HD
HETATM   17  H           1     -19.619  -9.259  -4.807  0.00  0.00     0.275 HD
HETATM   18  H           1     -18.770  -7.878  -5.343  0.00  0.00     0.275 HD
ENDBRANCH  14  15
BRANCH  14  19
HETATM   19  C           1     -21.888  -7.442  -4.312  0.00  0.00     0.153 C 
HETATM   20  C           1     -21.193  -7.406  -2.957  0.00  0.00     0.042 C 
BRANCH  19  21
HETATM   21  O           1     -22.535  -6.218  -4.536  0.00  0.00    -0.393 OA
HETATM   22  H           1     -21.945  -5.685  -5.041  0.00  0.00     0.210 HD
ENDBRANCH  19  21
ENDBRANCH  14  19
ENDBRANCH   3  14
TORSDOF 9
ENDMDL
MODEL 8
REMARK VINA RESULT:      -4.9      3.890      8.112
REMARK  9 active torsions:
REMARK  status: ('A' for Active; 'I' for Inactive)
REMARK    1  A    between atoms: C_2  and  C_19 
REMARK    2  A    between atoms: N_5  and  C_7 
REMARK       I    between atoms: N_5  and  C_15 
REMARK    3  A    between atoms: O_6  and  C_12 
REMARK    4  A    between atoms: C_7  and  C_14 
REMARK    5  A    between atoms: C_7  and  C_18 
REMARK    6  A    between atoms: N_11  and  C_13 
REMARK    7  A    between atoms: C_12  and  C_13 
REMARK    8  A    between atoms: C_13  and  C_15 
REMARK    9  A    between atoms: C_14  and  C_19 
ROOT
HETATM    1  N           1     -20.759  -6.658  -3.691  0.00  0.00    -0.345 N 
HETATM    2  O           1     -21.294  -7.951  -5.432  0.00  0.00    -0.271 OA
HETATM    3  C           1     -20.833  -6.907  -5.036  0.00  0.00     0.251 C 
HETATM    4  H           1     -20.373  -5.784  -3.359  0.00  0.00     0.163 HD
ENDROOT
BRANCH   1   5
HETATM    5  C           1     -21.234  -7.648  -2.743  0.00  0.00     0.186 C 
BRANCH   5   6
HETATM    6  C           1     -20.046  -8.273  -2.025  0.00  0.00     0.046 C 
BRANCH   6   7
HETATM    7  C           1     -19.656  -9.570  -2.722  0.00  0.00     0.116 C 
BRANCH   7   8
HETATM    8  C           1     -18.333  -9.385  -3.425  0.00  0.00     0.172 C 
HETATM    9  O           1     -17.279  -9.297  -2.760  0.00  0.00    -0.648 OA
HETATM   10  O           1     -18.292  -9.320  -4.673  0.00  0.00    -0.648 OA
ENDBRANCH   7   8
ENDBRANCH   6   7
ENDBRANCH   5   6
BRANCH   5  11
HETATM   11  C           1     -22.140  -6.983  -1.736  0.00  0.00     0.196 C 
HETATM   12  O           1     -22.441  -7.579  -0.679  0.00  0.00    -0.646 OA
HETATM   13  O           1     -22.589  -5.838  -1.957  0.00  0.00    -0.646 OA
ENDBRANCH   5  11
ENDBRANCH   1   5
BRANCH   3  14
HETATM   14  C           1     -20.339  -5.877  -6.022  0.00  0.00     0.302 C 
BRANCH  14  15
HETATM   15  N           1     -19.760  -6.571  -7.219  0.00  0.00    -0.064 N 
HETATM   16  H           1     -18.990  -5.989  -7.622  0.00  0.00     0.275 HD
HETATM   17  H           1     -19.378  -7.500  -6.933  0.00  0.00     0.275 HD
HETATM   18  H           1     -20.505  -6.705  -7.938  0.00  0.00     0.275 HD
ENDBRANCH  14  15
BRANCH  14  19
HETATM   19  C           1     -21.500  -4.994  -6.459  0.00  0.00     0.153 C 
HETATM   20  C           1     -21.621  -5.032  -7.977  0.00  0.00     0.042 C 
BRANCH  19  21
HETATM   21  O           1     -22.689  -5.466  -5.884  0.00  0.00    -0.393 OA
HETATM   22  H           1     -23.286  -5.637  -6.593  0.00  0.00     0.210 HD
ENDBRANCH  19  21
ENDBRANCH  14  19
ENDBRANCH   3  14
TORSDOF 9
ENDMDL
MODEL 9
REMARK VINA RESULT:      -4.9      5.311      7.941
REMARK  9 active torsions:
REMARK  status: ('A' for Active; 'I' for Inactive)
REMARK    1  A    between atoms: C_2  and  C_19 
REMARK    2  A    between atoms: N_5  and  C_7 
REMARK       I    between atoms: N_5  and  C_15 
REMARK    3  A    between atoms: O_6  and  C_12 
REMARK    4  A    between atoms: C_7  and  C_14 
REMARK    5  A    between atoms: C_7  and  C_18 
REMARK    6  A    between atoms: N_11  and  C_13 
REMARK    7  A    between atoms: C_12  and  C_13 
REMARK    8  A    between atoms: C_13  and  C_15 
REMARK    9  A    between atoms: C_14  and  C_19 
ROOT
HETATM    1  N           1     -20.381  -8.065  -4.059  0.00  0.00    -0.345 N 
HETATM    2  O           1     -21.493  -9.989  -3.843  0.00  0.00    -0.271 OA
HETATM    3  C           1     -20.439  -9.433  -4.040  0.00  0.00     0.251 C 
HETATM    4  H           1     -19.499  -7.598  -4.224  0.00  0.00     0.163 HD
ENDROOT
BRANCH   1   5
HETATM    5  C           1     -21.584  -7.284  -3.841  0.00  0.00     0.186 C 
BRANCH   5   6
HETATM    6  C           1     -21.311  -6.216  -2.791  0.00  0.00     0.046 C 
BRANCH   6   7
HETATM    7  C           1     -22.323  -6.344  -1.660  0.00  0.00     0.116 C 
BRANCH   7   8
HETATM    8  C           1     -21.956  -7.520  -0.787  0.00  0.00     0.172 C 
HETATM    9  O           1     -20.793  -7.978  -0.811  0.00  0.00    -0.648 OA
HETATM   10  O           1     -22.816  -8.037  -0.041  0.00  0.00    -0.648 OA
ENDBRANCH   7   8
ENDBRANCH   6   7
ENDBRANCH   5   6
BRANCH   5  11
HETATM   11  C           1     -21.997  -6.627  -5.134  0.00  0.00     0.196 C 
HETATM   12  O           1     -23.084  -6.012  -5.204  0.00  0.00    -0.646 OA
HETATM   13  O           1     -21.254  -6.696  -6.137  0.00  0.00    -0.646 OA
ENDBRANCH   5  11
ENDBRANCH   1   5
BRANCH   3  14
HETATM   14  C           1     -19.188 -10.244  -4.268  0.00  0.00     0.302 C 
BRANCH  14  15
HETATM   15  N           1     -18.299  -9.528  -5.241  0.00  0.00    -0.064 N 
HETATM   16  H           1     -17.312  -9.556  -4.898  0.00  0.00     0.275 HD
HETATM   17  H           1     -18.356  -9.996  -6.173  0.00  0.00     0.275 HD
HETATM   18  H           1     -18.608  -8.534  -5.329  0.00  0.00     0.275 HD
ENDBRANCH  14  15
BRANCH  14  19
HETATM   19  C           1     -18.452 -10.424  -2.946  0.00  0.00     0.153 C 
HETATM   20  C           1     -17.233  -9.512  -2.917  0.00  0.00     0.042 C 
BRANCH  19  21
HETATM   21  O           1     -19.308 -10.093  -1.885  0.00  0.00    -0.393 OA
HETATM   22  H           1     -19.455  -9.163  -1.933  0.00  0.00     0.210 HD
ENDBRANCH  19  21
ENDBRANCH  14  19
ENDBRANCH   3  14
TORSDOF 9
ENDMDL
