MODEL 1
REMARK VINA RESULT:      -7.3      0.000      0.000
REMARK  6 active torsions:
REMARK  status: ('A' for Active; 'I' for Inactive)
REMARK    1  A    between atoms: C_6  and  C_19 
REMARK    2  A    between atoms: C_6  and  C_14 
REMARK    3  A    between atoms: C_9  and  C_21 
REMARK    4  A    between atoms: N_11  and  C_14 
REMARK       I    between atoms: N_11  and  C_21 
REMARK    5  A    between atoms: C_14  and  C_23 
REMARK    6  A    between atoms: C_15  and  O_16 
ROOT
HETATM    1  C           1     -21.021  -5.045  -6.908  0.00  0.00     0.189 C 
ENDROOT
BRANCH   1   2
HETATM    2  C           1     -21.606  -3.776  -7.512  0.00  0.00     0.074 C 
BRANCH   2   3
HETATM    3  C           1     -22.158  -4.079  -8.871  0.00  0.00    -0.056 A 
HETATM    4  C           1     -21.318  -4.063  -9.985  0.00  0.00     0.010 A 
HETATM    5  C           1     -21.833  -4.345 -11.250  0.00  0.00     0.037 A 
HETATM    6  C           1     -23.188  -4.641 -11.402  0.00  0.00     0.065 A 
HETATM    7  C           1     -24.027  -4.656 -10.288  0.00  0.00     0.037 A 
HETATM    8  C           1     -23.512  -4.374  -9.022  0.00  0.00     0.010 A 
BRANCH   6   9
HETATM    9  O           1     -23.688  -4.915 -12.632  0.00  0.00    -0.361 OA
HETATM   10  H           1     -24.396  -5.572 -12.528  0.00  0.00     0.217 HD
ENDBRANCH   6   9
ENDBRANCH   2   3
ENDBRANCH   1   2
BRANCH   1  11
HETATM   11  N           1     -20.965  -4.912  -5.465  0.00  0.00    -0.344 N 
HETATM   12  H           1     -20.778  -4.009  -5.048  0.00  0.00     0.163 HD
HETATM   13  C           1     -21.166  -6.005  -4.668  0.00  0.00     0.251 C 
HETATM   14  O           1     -21.119  -5.894  -3.466  0.00  0.00    -0.271 OA
BRANCH  13  15
HETATM   15  C           1     -21.446  -7.352  -5.289  0.00  0.00     0.311 C 
HETATM   16  C           1     -22.014  -8.315  -4.262  0.00  0.00     0.047 C 
HETATM   17  C           1     -20.812  -9.091  -3.738  0.00  0.00     0.033 C 
HETATM   18  C           1     -19.620  -8.536  -4.499  0.00  0.00     0.271 C 
HETATM   19  N           1     -20.207  -7.993  -5.720  0.00  0.00     0.097 N 
HETATM   20  H           1     -20.401  -8.754  -6.372  0.00  0.00     0.317 HD
ENDBRANCH  13  15
ENDBRANCH   1  11
BRANCH   1  21
HETATM   21  C           1     -19.629  -5.265  -7.446  0.00  0.00     0.197 C 
HETATM   22  O           1     -18.810  -4.320  -7.466  0.00  0.00    -0.646 OA
HETATM   23  O           1     -19.294  -6.391  -7.872  0.00  0.00    -0.646 OA
ENDBRANCH   1  21
TORSDOF 6
ENDMDL
MODEL 2
REMARK VINA RESULT:      -6.8      3.100      7.325
REMARK  6 active torsions:
REMARK  status: ('A' for Active; 'I' for Inactive)
REMARK    1  A    between atoms: C_6  and  C_19 
REMARK    2  A    between atoms: C_6  and  C_14 
REMARK    3  A    between atoms: C_9  and  C_21 
REMARK    4  A    between atoms: N_11  and  C_14 
REMARK       I    between atoms: N_11  and  C_21 
REMARK    5  A    between atoms: C_14  and  C_23 
REMARK    6  A    between atoms: C_15  and  O_16 
ROOT
HETATM    1  C           1     -20.226  -8.702  -4.425  0.00  0.00     0.189 C 
ENDROOT
BRANCH   1   2
HETATM    2  C           1     -19.692  -8.843  -3.007  0.00  0.00     0.074 C 
BRANCH   2   3
HETATM    3  C           1     -20.796  -8.580  -2.029  0.00  0.00    -0.056 A 
HETATM    4  C           1     -21.106  -7.270  -1.665  0.00  0.00     0.010 A 
HETATM    5  C           1     -22.134  -7.025  -0.754  0.00  0.00     0.037 A 
HETATM    6  C           1     -22.851  -8.089  -0.208  0.00  0.00     0.065 A 
HETATM    7  C           1     -22.540  -9.399  -0.572  0.00  0.00     0.037 A 
HETATM    8  C           1     -21.512  -9.645  -1.483  0.00  0.00     0.010 A 
BRANCH   6   9
HETATM    9  O           1     -23.850  -7.851   0.677  0.00  0.00    -0.361 OA
HETATM   10  H           1     -23.609  -7.067   1.198  0.00  0.00     0.217 HD
ENDBRANCH   6   9
ENDBRANCH   2   3
ENDBRANCH   1   2
BRANCH   1  11
HETATM   11  N           1     -21.461  -7.943  -4.404  0.00  0.00    -0.344 N 
HETATM   12  H           1     -22.273  -8.313  -3.925  0.00  0.00     0.163 HD
HETATM   13  C           1     -21.530  -6.728  -5.029  0.00  0.00     0.251 C 
HETATM   14  O           1     -22.560  -6.097  -5.011  0.00  0.00    -0.271 OA
BRANCH  13  15
HETATM   15  C           1     -20.320  -6.176  -5.742  0.00  0.00     0.311 C 
HETATM   16  C           1     -20.262  -4.664  -5.618  0.00  0.00     0.047 C 
HETATM   17  C           1     -20.931  -4.135  -6.881  0.00  0.00     0.033 C 
HETATM   18  C           1     -21.331  -5.373  -7.665  0.00  0.00     0.271 C 
HETATM   19  N           1     -20.417  -6.404  -7.181  0.00  0.00     0.097 N 
HETATM   20  H           1     -19.506  -6.288  -7.628  0.00  0.00     0.317 HD
ENDBRANCH  13  15
ENDBRANCH   1  11
BRANCH   1  21
HETATM   21  C           1     -20.486 -10.070  -5.005  0.00  0.00     0.197 C 
HETATM   22  O           1     -20.096 -11.091  -4.397  0.00  0.00    -0.646 OA
HETATM   23  O           1     -21.093 -10.183  -6.092  0.00  0.00    -0.646 OA
ENDBRANCH   1  21
TORSDOF 6
ENDMDL
MODEL 3
REMARK VINA RESULT:      -6.6     10.806     13.120
REMARK  6 active torsions:
REMARK  status: ('A' for Active; 'I' for Inactive)
REMARK    1  A    between atoms: C_6  and  C_19 
REMARK    2  A    between atoms: C_6  and  C_14 
REMARK    3  A    between atoms: C_9  and  C_21 
REMARK    4  A    between atoms: N_11  and  C_14 
REMARK       I    between atoms: N_11  and  C_21 
REMARK    5  A    between atoms: C_14  and  C_23 
REMARK    6  A    between atoms: C_15  and  O_16 
ROOT
HETATM    1  C           1     -26.540  -5.970 -17.017  0.00  0.00     0.189 C 
ENDROOT
BRANCH   1   2
HETATM    2  C           1     -27.430  -5.513 -15.870  0.00  0.00     0.074 C 
BRANCH   2   3
HETATM    3  C           1     -28.656  -4.852 -16.421  0.00  0.00    -0.056 A 
HETATM    4  C           1     -29.897  -5.477 -16.306  0.00  0.00     0.010 A 
HETATM    5  C           1     -31.038  -4.862 -16.819  0.00  0.00     0.037 A 
HETATM    6  C           1     -30.939  -3.620 -17.448  0.00  0.00     0.065 A 
HETATM    7  C           1     -29.697  -2.996 -17.564  0.00  0.00     0.037 A 
HETATM    8  C           1     -28.555  -3.612 -17.051  0.00  0.00     0.010 A 
BRANCH   6   9
HETATM    9  O           1     -32.048  -3.022 -17.947  0.00  0.00    -0.361 OA
HETATM   10  H           1     -32.066  -3.175 -18.906  0.00  0.00     0.217 HD
ENDBRANCH   6   9
ENDBRANCH   2   3
ENDBRANCH   1   2
BRANCH   1  11
HETATM   11  N           1     -27.341  -6.674 -17.999  0.00  0.00    -0.344 N 
HETATM   12  H           1     -28.268  -6.999 -17.757  0.00  0.00     0.163 HD
HETATM   13  C           1     -26.844  -6.900 -19.254  0.00  0.00     0.251 C 
HETATM   14  O           1     -27.511  -7.487 -20.072  0.00  0.00    -0.271 OA
BRANCH  13  15
HETATM   15  C           1     -25.461  -6.416 -19.617  0.00  0.00     0.311 C 
HETATM   16  C           1     -25.417  -5.930 -21.054  0.00  0.00     0.047 C 
HETATM   17  C           1     -24.934  -7.127 -21.864  0.00  0.00     0.033 C 
HETATM   18  C           1     -24.719  -8.233 -20.846  0.00  0.00     0.271 C 
HETATM   19  N           1     -24.502  -7.517 -19.592  0.00  0.00     0.097 N 
HETATM   20  H           1     -23.546  -7.162 -19.564  0.00  0.00     0.317 HD
ENDBRANCH  13  15
ENDBRANCH   1  11
BRANCH   1  21
HETATM   21  C           1     -25.470  -6.892 -16.488  0.00  0.00     0.197 C 
HETATM   22  O           1     -25.758  -7.761 -15.637  0.00  0.00    -0.646 OA
HETATM   23  O           1     -24.294  -6.787 -16.900  0.00  0.00    -0.646 OA
ENDBRANCH   1  21
TORSDOF 6
ENDMDL
MODEL 4
REMARK VINA RESULT:      -6.4     10.922     13.121
REMARK  6 active torsions:
REMARK  status: ('A' for Active; 'I' for Inactive)
REMARK    1  A    between atoms: C_6  and  C_19 
REMARK    2  A    between atoms: C_6  and  C_14 
REMARK    3  A    between atoms: C_9  and  C_21 
REMARK    4  A    between atoms: N_11  and  C_14 
REMARK       I    between atoms: N_11  and  C_21 
REMARK    5  A    between atoms: C_14  and  C_23 
REMARK    6  A    between atoms: C_15  and  O_16 
ROOT
HETATM    1  C           1     -26.885  -6.143 -17.021  0.00  0.00     0.189 C 
ENDROOT
BRANCH   1   2
HETATM    2  C           1     -25.398  -6.297 -17.310  0.00  0.00     0.074 C 
BRANCH   2   3
HETATM    3  C           1     -25.211  -6.831 -18.697  0.00  0.00    -0.056 A 
HETATM    4  C           1     -26.275  -6.817 -19.599  0.00  0.00     0.010 A 
HETATM    5  C           1     -26.100  -7.314 -20.890  0.00  0.00     0.037 A 
HETATM    6  C           1     -24.862  -7.826 -21.280  0.00  0.00     0.065 A 
HETATM    7  C           1     -23.799  -7.840 -20.377  0.00  0.00     0.037 A 
HETATM    8  C           1     -23.973  -7.343 -19.085  0.00  0.00     0.010 A 
BRANCH   6   9
HETATM    9  O           1     -24.692  -8.309 -22.535  0.00  0.00    -0.361 OA
HETATM   10  H           1     -24.980  -7.625 -23.161  0.00  0.00     0.217 HD
ENDBRANCH   6   9
ENDBRANCH   2   3
ENDBRANCH   1   2
BRANCH   1  11
HETATM   11  N           1     -27.140  -4.817 -16.495  0.00  0.00    -0.344 N 
HETATM   12  H           1     -26.500  -4.406 -15.828  0.00  0.00     0.163 HD
HETATM   13  C           1     -28.245  -4.120 -16.902  0.00  0.00     0.251 C 
HETATM   14  O           1     -28.458  -3.014 -16.463  0.00  0.00    -0.271 OA
BRANCH  13  15
HETATM   15  C           1     -29.200  -4.731 -17.898  0.00  0.00     0.311 C 
HETATM   16  C           1     -30.153  -3.685 -18.447  0.00  0.00     0.047 C 
HETATM   17  C           1     -31.399  -3.786 -17.575  0.00  0.00     0.033 C 
HETATM   18  C           1     -31.096  -4.891 -16.577  0.00  0.00     0.271 C 
HETATM   19  N           1     -30.081  -5.698 -17.247  0.00  0.00     0.097 N 
HETATM   20  H           1     -30.527  -6.302 -17.938  0.00  0.00     0.317 HD
ENDBRANCH  13  15
ENDBRANCH   1  11
BRANCH   1  21
HETATM   21  C           1     -27.311  -7.176 -16.007  0.00  0.00     0.197 C 
HETATM   22  O           1     -28.472  -7.640 -16.037  0.00  0.00    -0.646 OA
HETATM   23  O           1     -26.504  -7.568 -15.137  0.00  0.00    -0.646 OA
ENDBRANCH   1  21
TORSDOF 6
ENDMDL
MODEL 5
REMARK VINA RESULT:      -6.4      2.457      4.264
REMARK  6 active torsions:
REMARK  status: ('A' for Active; 'I' for Inactive)
REMARK    1  A    between atoms: C_6  and  C_19 
REMARK    2  A    between atoms: C_6  and  C_14 
REMARK    3  A    between atoms: C_9  and  C_21 
REMARK    4  A    between atoms: N_11  and  C_14 
REMARK       I    between atoms: N_11  and  C_21 
REMARK    5  A    between atoms: C_14  and  C_23 
REMARK    6  A    between atoms: C_15  and  O_16 
ROOT
HETATM    1  C           1     -21.420  -7.203  -4.123  0.00  0.00     0.189 C 
ENDROOT
BRANCH   1   2
HETATM    2  C           1     -22.414  -6.374  -4.923  0.00  0.00     0.074 C 
BRANCH   2   3
HETATM    3  C           1     -21.696  -5.659  -6.026  0.00  0.00    -0.056 A 
HETATM    4  C           1     -20.323  -5.838  -6.194  0.00  0.00     0.010 A 
HETATM    5  C           1     -19.654  -5.172  -7.221  0.00  0.00     0.037 A 
HETATM    6  C           1     -20.358  -4.327  -8.079  0.00  0.00     0.065 A 
HETATM    7  C           1     -21.730  -4.148  -7.910  0.00  0.00     0.037 A 
HETATM    8  C           1     -22.400  -4.814  -6.883  0.00  0.00     0.010 A 
BRANCH   6   9
HETATM    9  O           1     -19.708  -3.679  -9.077  0.00  0.00    -0.361 OA
HETATM   10  H           1     -18.770  -3.929  -9.037  0.00  0.00     0.217 HD
ENDBRANCH   6   9
ENDBRANCH   2   3
ENDBRANCH   1   2
BRANCH   1  11
HETATM   11  N           1     -21.680  -8.613  -4.343  0.00  0.00    -0.344 N 
HETATM   12  H           1     -22.629  -8.963  -4.310  0.00  0.00     0.163 HD
HETATM   13  C           1     -20.643  -9.470  -4.594  0.00  0.00     0.251 C 
HETATM   14  O           1     -20.860 -10.644  -4.777  0.00  0.00    -0.271 OA
BRANCH  13  15
HETATM   15  C           1     -19.228  -8.948  -4.644  0.00  0.00     0.311 C 
HETATM   16  C           1     -18.360  -9.821  -5.533  0.00  0.00     0.047 C 
HETATM   17  C           1     -17.692 -10.811  -4.587  0.00  0.00     0.033 C 
HETATM   18  C           1     -18.207 -10.447  -3.205  0.00  0.00     0.271 C 
HETATM   19  N           1     -18.592  -9.046  -3.334  0.00  0.00     0.097 N 
HETATM   20  H           1     -17.758  -8.458  -3.292  0.00  0.00     0.317 HD
ENDBRANCH  13  15
ENDBRANCH   1  11
BRANCH   1  21
HETATM   21  C           1     -21.567  -6.888  -2.655  0.00  0.00     0.197 C 
HETATM   22  O           1     -22.393  -6.028  -2.280  0.00  0.00    -0.646 OA
HETATM   23  O           1     -20.862  -7.487  -1.814  0.00  0.00    -0.646 OA
ENDBRANCH   1  21
TORSDOF 6
ENDMDL
MODEL 6
REMARK VINA RESULT:      -6.3      5.773      8.603
REMARK  6 active torsions:
REMARK  status: ('A' for Active; 'I' for Inactive)
REMARK    1  A    between atoms: C_6  and  C_19 
REMARK    2  A    between atoms: C_6  and  C_14 
REMARK    3  A    between atoms: C_9  and  C_21 
REMARK    4  A    between atoms: N_11  and  C_14 
REMARK       I    between atoms: N_11  and  C_21 
REMARK    5  A    between atoms: C_14  and  C_23 
REMARK    6  A    between atoms: C_15  and  O_16 
ROOT
HETATM    1  C           1     -21.580  -7.983  -1.859  0.00  0.00     0.189 C 
ENDROOT
BRANCH   1   2
HETATM    2  C           1     -21.566  -8.250  -0.361  0.00  0.00     0.074 C 
BRANCH   2   3
HETATM    3  C           1     -22.054  -9.641  -0.097  0.00  0.00    -0.056 A 
HETATM    4  C           1     -23.391  -9.966  -0.326  0.00  0.00     0.010 A 
HETATM    5  C           1     -23.845 -11.262  -0.080  0.00  0.00     0.037 A 
HETATM    6  C           1     -22.963 -12.232   0.396  0.00  0.00     0.065 A 
HETATM    7  C           1     -21.627 -11.906   0.626  0.00  0.00     0.037 A 
HETATM    8  C           1     -21.172 -10.610   0.380  0.00  0.00     0.010 A 
BRANCH   6   9
HETATM    9  O           1     -23.404 -13.491   0.635  0.00  0.00    -0.361 OA
HETATM   10  H           1     -22.903 -13.847   1.387  0.00  0.00     0.217 HD
ENDBRANCH   6   9
ENDBRANCH   2   3
ENDBRANCH   1   2
BRANCH   1  11
HETATM   11  N           1     -20.254  -8.205  -2.402  0.00  0.00    -0.344 N 
HETATM   12  H           1     -19.444  -7.829  -1.926  0.00  0.00     0.163 HD
HETATM   13  C           1     -20.097  -8.922  -3.557  0.00  0.00     0.251 C 
HETATM   14  O           1     -18.992  -9.107  -4.009  0.00  0.00    -0.271 OA
BRANCH  13  15
HETATM   15  C           1     -21.305  -9.483  -4.267  0.00  0.00     0.311 C 
HETATM   16  C           1     -21.746 -10.790  -3.634  0.00  0.00     0.047 C 
HETATM   17  C           1     -21.072 -11.879  -4.459  0.00  0.00     0.033 C 
HETATM   18  C           1     -20.286 -11.137  -5.527  0.00  0.00     0.271 C 
HETATM   19  N           1     -20.974  -9.855  -5.639  0.00  0.00     0.097 N 
HETATM   20  H           1     -21.822  -9.971  -6.196  0.00  0.00     0.317 HD
ENDBRANCH  13  15
ENDBRANCH   1  11
BRANCH   1  21
HETATM   21  C           1     -21.993  -6.554  -2.113  0.00  0.00     0.197 C 
HETATM   22  O           1     -21.986  -6.098  -3.277  0.00  0.00    -0.646 OA
HETATM   23  O           1     -22.343  -5.826  -1.159  0.00  0.00    -0.646 OA
ENDBRANCH   1  21
TORSDOF 6
ENDMDL
MODEL 7
REMARK VINA RESULT:      -6.2      4.736      7.444
REMARK  6 active torsions:
REMARK  status: ('A' for Active; 'I' for Inactive)
REMARK    1  A    between atoms: C_6  and  C_19 
REMARK    2  A    between atoms: C_6  and  C_14 
REMARK    3  A    between atoms: C_9  and  C_21 
REMARK    4  A    between atoms: N_11  and  C_14 
REMARK       I    between atoms: N_11  and  C_21 
REMARK    5  A    between atoms: C_14  and  C_23 
REMARK    6  A    between atoms: C_15  and  O_16 
ROOT
HETATM    1  C           1     -21.746  -9.067  -0.540  0.00  0.00     0.189 C 
ENDROOT
BRANCH   1   2
HETATM    2  C           1     -21.830  -7.605  -0.955  0.00  0.00     0.074 C 
BRANCH   2   3
HETATM    3  C           1     -21.364  -7.460  -2.371  0.00  0.00    -0.056 A 
HETATM    4  C           1     -21.677  -6.308  -3.093  0.00  0.00     0.010 A 
HETATM    5  C           1     -21.243  -6.173  -4.411  0.00  0.00     0.037 A 
HETATM    6  C           1     -20.497  -7.189  -5.008  0.00  0.00     0.065 A 
HETATM    7  C           1     -20.185  -8.341  -4.286  0.00  0.00     0.037 A 
HETATM    8  C           1     -20.619  -8.476  -2.967  0.00  0.00     0.010 A 
BRANCH   6   9
HETATM    9  O           1     -20.075  -7.058  -6.290  0.00  0.00    -0.361 OA
HETATM   10  H           1     -20.855  -7.096  -6.868  0.00  0.00     0.217 HD
ENDBRANCH   6   9
ENDBRANCH   2   3
ENDBRANCH   1   2
BRANCH   1  11
HETATM   11  N           1     -23.075  -9.645  -0.534  0.00  0.00    -0.344 N 
HETATM   12  H           1     -23.835  -9.160  -0.074  0.00  0.00     0.163 HD
HETATM   13  C           1     -23.303 -10.846  -1.149  0.00  0.00     0.251 C 
HETATM   14  O           1     -24.410 -11.328  -1.144  0.00  0.00    -0.271 OA
BRANCH  13  15
HETATM   15  C           1     -22.170 -11.569  -1.835  0.00  0.00     0.311 C 
HETATM   16  C           1     -22.700 -12.587  -2.829  0.00  0.00     0.047 C 
HETATM   17  C           1     -22.741 -13.905  -2.065  0.00  0.00     0.033 C 
HETATM   18  C           1     -22.224 -13.573  -0.675  0.00  0.00     0.271 C 
HETATM   19  N           1     -21.415 -12.376  -0.880  0.00  0.00     0.097 N 
HETATM   20  H           1     -20.508 -12.640  -1.268  0.00  0.00     0.317 HD
ENDBRANCH  13  15
ENDBRANCH   1  11
BRANCH   1  21
HETATM   21  C           1     -21.150  -9.165   0.843  0.00  0.00     0.197 C 
HETATM   22  O           1     -21.200  -8.183   1.616  0.00  0.00    -0.646 OA
HETATM   23  O           1     -20.605 -10.227   1.216  0.00  0.00    -0.646 OA
ENDBRANCH   1  21
TORSDOF 6
ENDMDL
MODEL 8
REMARK VINA RESULT:      -6.1      3.299      5.205
REMARK  6 active torsions:
REMARK  status: ('A' for Active; 'I' for Inactive)
REMARK    1  A    between atoms: C_6  and  C_19 
REMARK    2  A    between atoms: C_6  and  C_14 
REMARK    3  A    between atoms: C_9  and  C_21 
REMARK    4  A    between atoms: N_11  and  C_14 
REMARK       I    between atoms: N_11  and  C_21 
REMARK    5  A    between atoms: C_14  and  C_23 
REMARK    6  A    between atoms: C_15  and  O_16 
ROOT
HETATM    1  C           1     -20.479  -9.281  -4.362  0.00  0.00     0.189 C 
ENDROOT
BRANCH   1   2
HETATM    2  C           1     -19.547  -8.289  -5.044  0.00  0.00     0.074 C 
BRANCH   2   3
HETATM    3  C           1     -20.350  -7.162  -5.617  0.00  0.00    -0.056 A 
HETATM    4  C           1     -21.657  -6.945  -5.182  0.00  0.00     0.010 A 
HETATM    5  C           1     -22.405  -5.896  -5.716  0.00  0.00     0.037 A 
HETATM    6  C           1     -21.846  -5.064  -6.686  0.00  0.00     0.065 A 
HETATM    7  C           1     -20.539  -5.282  -7.122  0.00  0.00     0.037 A 
HETATM    8  C           1     -19.791  -6.331  -6.587  0.00  0.00     0.010 A 
BRANCH   6   9
HETATM    9  O           1     -22.573  -4.045  -7.206  0.00  0.00    -0.361 OA
HETATM   10  H           1     -21.965  -3.312  -7.401  0.00  0.00     0.217 HD
ENDBRANCH   6   9
ENDBRANCH   2   3
ENDBRANCH   1   2
BRANCH   1  11
HETATM   11  N           1     -19.859  -9.769  -3.146  0.00  0.00    -0.344 N 
HETATM   12  H           1     -18.932 -10.174  -3.178  0.00  0.00     0.163 HD
HETATM   13  C           1     -20.525  -9.680  -1.954  0.00  0.00     0.251 C 
HETATM   14  O           1     -20.009 -10.086  -0.940  0.00  0.00    -0.271 OA
BRANCH  13  15
HETATM   15  C           1     -21.907  -9.074  -1.905  0.00  0.00     0.311 C 
HETATM   16  C           1     -21.843  -7.614  -1.495  0.00  0.00     0.047 C 
HETATM   17  C           1     -22.067  -7.614   0.012  0.00  0.00     0.033 C 
HETATM   18  C           1     -22.254  -9.075   0.385  0.00  0.00     0.271 C 
HETATM   19  N           1     -22.709  -9.696  -0.855  0.00  0.00     0.097 N 
HETATM   20  H           1     -23.701  -9.496  -0.992  0.00  0.00     0.317 HD
ENDBRANCH  13  15
ENDBRANCH   1  11
BRANCH   1  21
HETATM   21  C           1     -20.745 -10.441  -5.289  0.00  0.00     0.197 C 
HETATM   22  O           1     -21.757 -11.155  -5.122  0.00  0.00    -0.646 OA
HETATM   23  O           1     -19.954 -10.688  -6.225  0.00  0.00    -0.646 OA
ENDBRANCH   1  21
TORSDOF 6
ENDMDL
MODEL 9
REMARK VINA RESULT:      -6.0      5.205      7.165
REMARK  6 active torsions:
REMARK  status: ('A' for Active; 'I' for Inactive)
REMARK    1  A    between atoms: C_6  and  C_19 
REMARK    2  A    between atoms: C_6  and  C_14 
REMARK    3  A    between atoms: C_9  and  C_21 
REMARK    4  A    between atoms: N_11  and  C_14 
REMARK       I    between atoms: N_11  and  C_21 
REMARK    5  A    between atoms: C_14  and  C_23 
REMARK    6  A    between atoms: C_15  and  O_16 
ROOT
HETATM    1  C           1     -20.045  -9.897  -5.106  0.00  0.00     0.189 C 
ENDROOT
BRANCH   1   2
HETATM    2  C           1     -20.797  -8.579  -5.222  0.00  0.00     0.074 C 
BRANCH   2   3
HETATM    3  C           1     -21.214  -8.120  -3.858  0.00  0.00    -0.056 A 
HETATM    4  C           1     -21.579  -6.789  -3.652  0.00  0.00     0.010 A 
HETATM    5  C           1     -21.967  -6.362  -2.382  0.00  0.00     0.037 A 
HETATM    6  C           1     -21.990  -7.265  -1.319  0.00  0.00     0.065 A 
HETATM    7  C           1     -21.625  -8.595  -1.526  0.00  0.00     0.037 A 
HETATM    8  C           1     -21.236  -9.023  -2.796  0.00  0.00     0.010 A 
BRANCH   6   9
HETATM    9  O           1     -22.367  -6.850  -0.085  0.00  0.00    -0.361 OA
HETATM   10  H           1     -21.782  -7.273   0.565  0.00  0.00     0.217 HD
ENDBRANCH   6   9
ENDBRANCH   2   3
ENDBRANCH   1   2
BRANCH   1  11
HETATM   11  N           1     -18.756  -9.777  -5.758  0.00  0.00    -0.344 N 
HETATM   12  H           1     -18.704  -9.698  -6.765  0.00  0.00     0.163 HD
HETATM   13  C           1     -17.609  -9.769  -5.011  0.00  0.00     0.251 C 
HETATM   14  O           1     -16.535  -9.669  -5.554  0.00  0.00    -0.271 OA
BRANCH  13  15
HETATM   15  C           1     -17.686  -9.885  -3.508  0.00  0.00     0.311 C 
HETATM   16  C           1     -16.360  -9.516  -2.868  0.00  0.00     0.047 C 
HETATM   17  C           1     -15.628 -10.839  -2.678  0.00  0.00     0.033 C 
HETATM   18  C           1     -16.578 -11.897  -3.214  0.00  0.00     0.271 C 
HETATM   19  N           1     -17.893 -11.273  -3.105  0.00  0.00     0.097 N 
HETATM   20  H           1     -18.215 -11.324  -2.137  0.00  0.00     0.317 HD
ENDBRANCH  13  15
ENDBRANCH   1  11
BRANCH   1  21
HETATM   21  C           1     -20.843 -10.992  -5.771  0.00  0.00     0.197 C 
HETATM   22  O           1     -20.449 -11.485  -6.850  0.00  0.00    -0.646 OA
HETATM   23  O           1     -21.898 -11.406  -5.242  0.00  0.00    -0.646 OA
ENDBRANCH   1  21
TORSDOF 6
ENDMDL
