MODEL 1
REMARK VINA RESULT:      -7.6      0.000      0.000
REMARK  9 active torsions:
REMARK  status: ('A' for Active; 'I' for Inactive)
REMARK    1  A    between atoms: C_3  and  C_13 
REMARK    2  A    between atoms: C_3  and  C_4 
REMARK    3  A    between atoms: C_3  and  N_21 
REMARK    4  A    between atoms: C_4  and  C_26 
REMARK    5  A    between atoms: O_5  and  C_10 
REMARK    6  A    between atoms: N_12  and  C_22 
REMARK    7  A    between atoms: C_14  and  C_22 
REMARK    8  A    between atoms: C_14  and  C_30 
REMARK       I    between atoms: C_20  and  N_21 
REMARK    9  A    between atoms: C_20  and  C_22 
ROOT
HETATM    1  C           1     -33.883  -4.521 -15.342  0.00  0.00     0.249 C 
HETATM    2  N           1     -33.293  -4.022 -14.212  0.00  0.00    -0.344 N 
HETATM    3  H           1     -32.365  -3.621 -14.261  0.00  0.00     0.163 HD
HETATM    4  O           1     -34.991  -5.000 -15.284  0.00  0.00    -0.271 OA
ENDROOT
BRANCH   1   5
HETATM    5  C           1     -33.150  -4.475 -16.660  0.00  0.00     0.278 C 
BRANCH   5   6
HETATM    6  N           1     -33.534  -3.228 -17.401  0.00  0.00    -0.066 N 
HETATM    7  H           1     -34.133  -3.480 -18.219  0.00  0.00     0.275 HD
HETATM    8  H           1     -34.064  -2.593 -16.765  0.00  0.00     0.275 HD
HETATM    9  H           1     -32.671  -2.745 -17.738  0.00  0.00     0.275 HD
ENDBRANCH   5   6
BRANCH   5  10
HETATM   10  C           1     -31.649  -4.473 -16.408  0.00  0.00     0.081 C 
BRANCH  10  11
HETATM   11  C           1     -31.015  -5.607 -17.153  0.00  0.00    -0.056 A 
HETATM   12  C           1     -31.802  -6.658 -17.625  0.00  0.00     0.010 A 
HETATM   13  C           1     -31.212  -7.713 -18.319  0.00  0.00     0.037 A 
HETATM   14  C           1     -29.835  -7.720 -18.542  0.00  0.00     0.065 A 
HETATM   15  C           1     -29.048  -6.669 -18.071  0.00  0.00     0.037 A 
HETATM   16  C           1     -29.639  -5.612 -17.376  0.00  0.00     0.010 A 
BRANCH  14  17
HETATM   17  O           1     -29.262  -8.745 -19.217  0.00  0.00    -0.361 OA
HETATM   18  H           1     -28.305  -8.579 -19.258  0.00  0.00     0.217 HD
ENDBRANCH  14  17
ENDBRANCH  10  11
ENDBRANCH   5  10
ENDBRANCH   1   5
BRANCH   2  19
HETATM   19  C           1     -33.998  -4.066 -12.946  0.00  0.00     0.191 C 
BRANCH  19  20
HETATM   20  C           1     -34.511  -2.688 -12.606  0.00  0.00     0.197 C 
HETATM   21  O           1     -35.464  -2.199 -13.250  0.00  0.00    -0.646 OA
HETATM   22  O           1     -33.981  -2.037 -11.680  0.00  0.00    -0.646 OA
ENDBRANCH  19  20
BRANCH  19  23
HETATM   23  C           1     -33.050  -4.539 -11.853  0.00  0.00     0.094 C 
BRANCH  23  24
HETATM   24  C           1     -33.676  -5.672 -11.103  0.00  0.00     0.028 A 
HETATM   25  C           1     -34.857  -5.589 -10.404  0.00  0.00     0.114 A 
HETATM   26  N           1     -35.050  -6.838  -9.883  0.00  0.00    -0.360 N 
HETATM   27  C           1     -33.999  -7.615 -10.280  0.00  0.00     0.180 A 
HETATM   28  H           1     -35.858  -7.146  -9.288  0.00  0.00     0.166 HD
HETATM   29  N           1     -33.152  -6.936 -11.018  0.00  0.00    -0.354 N 
ATOM     30  HN          1     -32.287  -7.276 -11.439  1.00  0.00     0.166 HD
ENDBRANCH  23  24
ENDBRANCH  19  23
ENDBRANCH   2  19
TORSDOF 9
ENDMDL
MODEL 2
REMARK VINA RESULT:      -7.6     13.699     15.090
REMARK  9 active torsions:
REMARK  status: ('A' for Active; 'I' for Inactive)
REMARK    1  A    between atoms: C_3  and  C_13 
REMARK    2  A    between atoms: C_3  and  C_4 
REMARK    3  A    between atoms: C_3  and  N_21 
REMARK    4  A    between atoms: C_4  and  C_26 
REMARK    5  A    between atoms: O_5  and  C_10 
REMARK    6  A    between atoms: N_12  and  C_22 
REMARK    7  A    between atoms: C_14  and  C_22 
REMARK    8  A    between atoms: C_14  and  C_30 
REMARK       I    between atoms: C_20  and  N_21 
REMARK    9  A    between atoms: C_20  and  C_22 
ROOT
HETATM    1  C           1     -21.340  -6.064  -5.460  0.00  0.00     0.249 C 
HETATM    2  N           1     -21.085  -7.409  -5.441  0.00  0.00    -0.344 N 
HETATM    3  H           1     -21.377  -7.991  -6.216  0.00  0.00     0.163 HD
HETATM    4  O           1     -20.991  -5.369  -4.536  0.00  0.00    -0.271 OA
ENDROOT
BRANCH   1   5
HETATM    5  C           1     -22.059  -5.449  -6.636  0.00  0.00     0.278 C 
BRANCH   5   6
HETATM    6  N           1     -23.447  -5.058  -6.223  0.00  0.00    -0.066 N 
HETATM    7  H           1     -23.715  -5.583  -5.361  0.00  0.00     0.275 HD
HETATM    8  H           1     -23.477  -4.032  -6.028  0.00  0.00     0.275 HD
HETATM    9  H           1     -24.116  -5.287  -6.992  0.00  0.00     0.275 HD
ENDBRANCH   5   6
BRANCH   5  10
HETATM   10  C           1     -21.302  -4.214  -7.106  0.00  0.00     0.081 C 
BRANCH  10  11
HETATM   11  C           1     -21.394  -4.109  -8.597  0.00  0.00    -0.056 A 
HETATM   12  C           1     -20.296  -4.447  -9.389  0.00  0.00     0.010 A 
HETATM   13  C           1     -20.382  -4.349 -10.777  0.00  0.00     0.037 A 
HETATM   14  C           1     -21.565  -3.913 -11.375  0.00  0.00     0.065 A 
HETATM   15  C           1     -22.663  -3.577 -10.583  0.00  0.00     0.037 A 
HETATM   16  C           1     -22.577  -3.674  -9.193  0.00  0.00     0.010 A 
BRANCH  14  17
HETATM   17  O           1     -21.649  -3.819 -12.724  0.00  0.00    -0.361 OA
HETATM   18  H           1     -20.770  -3.582 -13.063  0.00  0.00     0.217 HD
ENDBRANCH  14  17
ENDBRANCH  10  11
ENDBRANCH   5  10
ENDBRANCH   1   5
BRANCH   2  19
HETATM   19  C           1     -20.394  -7.999  -4.311  0.00  0.00     0.191 C 
BRANCH  19  20
HETATM   20  C           1     -19.190  -8.765  -4.801  0.00  0.00     0.197 C 
HETATM   21  O           1     -18.986  -8.891  -6.028  0.00  0.00    -0.646 OA
HETATM   22  O           1     -18.397  -9.275  -3.979  0.00  0.00    -0.646 OA
ENDBRANCH  19  20
BRANCH  19  23
HETATM   23  C           1     -21.334  -8.946  -3.579  0.00  0.00     0.094 C 
BRANCH  23  24
HETATM   24  C           1     -21.743  -8.336  -2.275  0.00  0.00     0.028 A 
HETATM   25  C           1     -21.991  -9.046  -1.124  0.00  0.00     0.114 A 
HETATM   26  N           1     -22.329  -8.103  -0.193  0.00  0.00    -0.360 N 
HETATM   27  C           1     -22.272  -6.883  -0.804  0.00  0.00     0.180 A 
HETATM   28  H           1     -22.583  -8.284   0.810  0.00  0.00     0.166 HD
HETATM   29  N           1     -21.921  -6.993  -2.064  0.00  0.00    -0.354 N 
ATOM     30  HN          1     -21.805  -6.240  -2.742  1.00  0.00     0.166 HD
ENDBRANCH  23  24
ENDBRANCH  19  23
ENDBRANCH   2  19
TORSDOF 9
ENDMDL
MODEL 3
REMARK VINA RESULT:      -7.2     13.841     16.284
REMARK  9 active torsions:
REMARK  status: ('A' for Active; 'I' for Inactive)
REMARK    1  A    between atoms: C_3  and  C_13 
REMARK    2  A    between atoms: C_3  and  C_4 
REMARK    3  A    between atoms: C_3  and  N_21 
REMARK    4  A    between atoms: C_4  and  C_26 
REMARK    5  A    between atoms: O_5  and  C_10 
REMARK    6  A    between atoms: N_12  and  C_22 
REMARK    7  A    between atoms: C_14  and  C_22 
REMARK    8  A    between atoms: C_14  and  C_30 
REMARK       I    between atoms: C_20  and  N_21 
REMARK    9  A    between atoms: C_20  and  C_22 
ROOT
HETATM    1  C           1     -20.743  -7.507  -5.770  0.00  0.00     0.249 C 
HETATM    2  N           1     -21.648  -6.495  -5.952  0.00  0.00    -0.344 N 
HETATM    3  H           1     -22.531  -6.512  -5.458  0.00  0.00     0.163 HD
HETATM    4  O           1     -19.689  -7.488  -6.360  0.00  0.00    -0.271 OA
ENDROOT
BRANCH   1   5
HETATM    5  C           1     -21.063  -8.647  -4.834  0.00  0.00     0.278 C 
BRANCH   5   6
HETATM    6  N           1     -20.744  -9.949  -5.507  0.00  0.00    -0.066 N 
HETATM    7  H           1     -19.724  -9.986  -5.730  0.00  0.00     0.275 HD
HETATM    8  H           1     -20.990 -10.740  -4.870  0.00  0.00     0.275 HD
HETATM    9  H           1     -21.297 -10.028  -6.390  0.00  0.00     0.275 HD
ENDBRANCH   5   6
BRANCH   5  10
HETATM   10  C           1     -20.230  -8.513  -3.567  0.00  0.00     0.081 C 
BRANCH  10  11
HETATM   11  C           1     -21.135  -8.273  -2.397  0.00  0.00    -0.056 A 
HETATM   12  C           1     -21.553  -9.345  -1.608  0.00  0.00     0.010 A 
HETATM   13  C           1     -22.395  -9.122  -0.519  0.00  0.00     0.037 A 
HETATM   14  C           1     -22.819  -7.827  -0.219  0.00  0.00     0.065 A 
HETATM   15  C           1     -22.401  -6.756  -1.007  0.00  0.00     0.037 A 
HETATM   16  C           1     -21.558  -6.979  -2.097  0.00  0.00     0.010 A 
BRANCH  14  17
HETATM   17  O           1     -23.637  -7.610   0.840  0.00  0.00    -0.361 OA
HETATM   18  H           1     -23.262  -8.072   1.608  0.00  0.00     0.217 HD
ENDBRANCH  14  17
ENDBRANCH  10  11
ENDBRANCH   5  10
ENDBRANCH   1   5
BRANCH   2  19
HETATM   19  C           1     -21.340  -5.401  -6.851  0.00  0.00     0.191 C 
BRANCH  19  20
HETATM   20  C           1     -20.112  -4.674  -6.358  0.00  0.00     0.197 C 
HETATM   21  O           1     -20.020  -4.347  -5.156  0.00  0.00    -0.646 OA
HETATM   22  O           1     -19.189  -4.398  -7.154  0.00  0.00    -0.646 OA
ENDBRANCH  19  20
BRANCH  19  23
HETATM   23  C           1     -22.516  -4.436  -6.898  0.00  0.00     0.094 C 
BRANCH  23  24
HETATM   24  C           1     -22.954  -4.249  -8.316  0.00  0.00     0.028 A 
HETATM   25  C           1     -22.190  -4.557  -9.417  0.00  0.00     0.114 A 
HETATM   26  N           1     -22.970  -4.231 -10.492  0.00  0.00    -0.360 N 
HETATM   27  C           1     -24.153  -3.749 -10.010  0.00  0.00     0.180 A 
HETATM   28  H           1     -22.709  -4.335 -11.504  0.00  0.00     0.166 HD
HETATM   29  N           1     -24.172  -3.747  -8.697  0.00  0.00    -0.354 N 
ATOM     30  HN          1     -24.931  -3.438  -8.089  1.00  0.00     0.166 HD
ENDBRANCH  23  24
ENDBRANCH  19  23
ENDBRANCH   2  19
TORSDOF 9
ENDMDL
MODEL 4
REMARK VINA RESULT:      -6.9     14.758     16.171
REMARK  9 active torsions:
REMARK  status: ('A' for Active; 'I' for Inactive)
REMARK    1  A    between atoms: C_3  and  C_13 
REMARK    2  A    between atoms: C_3  and  C_4 
REMARK    3  A    between atoms: C_3  and  N_21 
REMARK    4  A    between atoms: C_4  and  C_26 
REMARK    5  A    between atoms: O_5  and  C_10 
REMARK    6  A    between atoms: N_12  and  C_22 
REMARK    7  A    between atoms: C_14  and  C_22 
REMARK    8  A    between atoms: C_14  and  C_30 
REMARK       I    between atoms: C_20  and  N_21 
REMARK    9  A    between atoms: C_20  and  C_22 
ROOT
HETATM    1  C           1     -20.413  -6.930  -6.161  0.00  0.00     0.249 C 
HETATM    2  N           1     -20.595  -7.754  -5.084  0.00  0.00    -0.344 N 
HETATM    3  H           1     -21.460  -7.718  -4.559  0.00  0.00     0.163 HD
HETATM    4  O           1     -19.380  -6.972  -6.787  0.00  0.00    -0.271 OA
ENDROOT
BRANCH   1   5
HETATM    5  C           1     -21.501  -5.966  -6.566  0.00  0.00     0.278 C 
BRANCH   5   6
HETATM    6  N           1     -22.409  -5.718  -5.398  0.00  0.00    -0.066 N 
HETATM    7  H           1     -21.836  -5.519  -4.547  0.00  0.00     0.275 HD
HETATM    8  H           1     -23.024  -4.899  -5.602  0.00  0.00     0.275 HD
HETATM    9  H           1     -22.998  -6.564  -5.230  0.00  0.00     0.275 HD
ENDBRANCH   5   6
BRANCH   5  10
HETATM   10  C           1     -20.876  -4.651  -7.011  0.00  0.00     0.081 C 
BRANCH  10  11
HETATM   11  C           1     -21.112  -4.456  -8.477  0.00  0.00    -0.056 A 
HETATM   12  C           1     -20.058  -4.605  -9.379  0.00  0.00     0.010 A 
HETATM   13  C           1     -20.278  -4.424 -10.744  0.00  0.00     0.037 A 
HETATM   14  C           1     -21.551  -4.093 -11.208  0.00  0.00     0.065 A 
HETATM   15  C           1     -22.605  -3.945 -10.307  0.00  0.00     0.037 A 
HETATM   16  C           1     -22.385  -4.126  -8.940  0.00  0.00     0.010 A 
BRANCH  14  17
HETATM   17  O           1     -21.765  -3.918 -12.535  0.00  0.00    -0.361 OA
HETATM   18  H           1     -22.619  -4.323 -12.757  0.00  0.00     0.217 HD
ENDBRANCH  14  17
ENDBRANCH  10  11
ENDBRANCH   5  10
ENDBRANCH   1   5
BRANCH   2  19
HETATM   19  C           1     -19.550  -8.680  -4.695  0.00  0.00     0.191 C 
BRANCH  19  20
HETATM   20  C           1     -19.805 -10.025  -5.330  0.00  0.00     0.197 C 
HETATM   21  O           1     -19.015 -10.471  -6.189  0.00  0.00    -0.646 OA
HETATM   22  O           1     -20.809 -10.692  -4.997  0.00  0.00    -0.646 OA
ENDBRANCH  19  20
BRANCH  19  23
HETATM   23  C           1     -19.540  -8.829  -3.180  0.00  0.00     0.094 C 
BRANCH  23  24
HETATM   24  C           1     -18.352  -9.638  -2.764  0.00  0.00     0.028 A 
HETATM   25  C           1     -18.414 -10.791  -2.018  0.00  0.00     0.114 A 
HETATM   26  N           1     -17.114 -11.191  -1.875  0.00  0.00    -0.360 N 
HETATM   27  C           1     -16.331 -10.283  -2.529  0.00  0.00     0.180 A 
HETATM   28  H           1     -16.779 -12.042  -1.359  0.00  0.00     0.166 HD
HETATM   29  N           1     -17.052  -9.332  -3.076  0.00  0.00    -0.354 N 
ATOM     30  HN          1     -16.718  -8.535  -3.617  1.00  0.00     0.166 HD
ENDBRANCH  23  24
ENDBRANCH  19  23
ENDBRANCH   2  19
TORSDOF 9
ENDMDL
MODEL 5
REMARK VINA RESULT:      -6.8     13.730     16.068
REMARK  9 active torsions:
REMARK  status: ('A' for Active; 'I' for Inactive)
REMARK    1  A    between atoms: C_3  and  C_13 
REMARK    2  A    between atoms: C_3  and  C_4 
REMARK    3  A    between atoms: C_3  and  N_21 
REMARK    4  A    between atoms: C_4  and  C_26 
REMARK    5  A    between atoms: O_5  and  C_10 
REMARK    6  A    between atoms: N_12  and  C_22 
REMARK    7  A    between atoms: C_14  and  C_22 
REMARK    8  A    between atoms: C_14  and  C_30 
REMARK       I    between atoms: C_20  and  N_21 
REMARK    9  A    between atoms: C_20  and  C_22 
ROOT
HETATM    1  C           1     -20.980  -6.201  -5.969  0.00  0.00     0.249 C 
HETATM    2  N           1     -21.128  -4.955  -6.515  0.00  0.00    -0.344 N 
HETATM    3  H           1     -21.093  -4.135  -5.923  0.00  0.00     0.163 HD
HETATM    4  O           1     -21.023  -7.180  -6.676  0.00  0.00    -0.271 OA
ENDROOT
BRANCH   1   5
HETATM    5  C           1     -20.764  -6.354  -4.483  0.00  0.00     0.278 C 
BRANCH   5   6
HETATM    6  N           1     -20.245  -5.064  -3.919  0.00  0.00    -0.066 N 
HETATM    7  H           1     -19.296  -4.870  -4.310  0.00  0.00     0.275 HD
HETATM    8  H           1     -20.892  -4.286  -4.176  0.00  0.00     0.275 HD
HETATM    9  H           1     -20.185  -5.139  -2.879  0.00  0.00     0.275 HD
ENDBRANCH   5   6
BRANCH   5  10
HETATM   10  C           1     -22.083  -6.707  -3.811  0.00  0.00     0.081 C 
BRANCH  10  11
HETATM   11  C           1     -21.814  -7.301  -2.463  0.00  0.00    -0.056 A 
HETATM   12  C           1     -22.443  -6.779  -1.333  0.00  0.00     0.010 A 
HETATM   13  C           1     -22.193  -7.332  -0.078  0.00  0.00     0.037 A 
HETATM   14  C           1     -21.313  -8.408   0.048  0.00  0.00     0.065 A 
HETATM   15  C           1     -20.685  -8.931  -1.082  0.00  0.00     0.037 A 
HETATM   16  C           1     -20.936  -8.377  -2.338  0.00  0.00     0.010 A 
BRANCH  14  17
HETATM   17  O           1     -21.070  -8.946   1.268  0.00  0.00    -0.361 OA
HETATM   18  H           1     -21.926  -9.142   1.685  0.00  0.00     0.217 HD
ENDBRANCH  14  17
ENDBRANCH  10  11
ENDBRANCH   5  10
ENDBRANCH   1   5
BRANCH   2  19
HETATM   19  C           1     -21.335  -4.810  -7.943  0.00  0.00     0.191 C 
BRANCH  19  20
HETATM   20  C           1     -20.004  -4.621  -8.629  0.00  0.00     0.197 C 
HETATM   21  O           1     -19.034  -4.158  -7.992  0.00  0.00    -0.646 OA
HETATM   22  O           1     -19.874  -4.928  -9.833  0.00  0.00    -0.646 OA
ENDBRANCH  19  20
BRANCH  19  23
HETATM   23  C           1     -22.218  -3.597  -8.207  0.00  0.00     0.094 C 
BRANCH  23  24
HETATM   24  C           1     -23.140  -3.890  -9.349  0.00  0.00     0.028 A 
HETATM   25  C           1     -24.384  -3.329  -9.513  0.00  0.00     0.114 A 
HETATM   26  N           1     -24.868  -3.870 -10.671  0.00  0.00    -0.360 N 
HETATM   27  C           1     -23.915  -4.720 -11.156  0.00  0.00     0.180 A 
HETATM   28  H           1     -25.800  -3.668 -11.110  0.00  0.00     0.166 HD
HETATM   29  N           1     -22.859  -4.753 -10.377  0.00  0.00    -0.354 N 
ATOM     30  HN          1     -22.010  -5.303 -10.508  1.00  0.00     0.166 HD
ENDBRANCH  23  24
ENDBRANCH  19  23
ENDBRANCH   2  19
TORSDOF 9
ENDMDL
MODEL 6
REMARK VINA RESULT:      -6.8     13.859     15.192
REMARK  9 active torsions:
REMARK  status: ('A' for Active; 'I' for Inactive)
REMARK    1  A    between atoms: C_3  and  C_13 
REMARK    2  A    between atoms: C_3  and  C_4 
REMARK    3  A    between atoms: C_3  and  N_21 
REMARK    4  A    between atoms: C_4  and  C_26 
REMARK    5  A    between atoms: O_5  and  C_10 
REMARK    6  A    between atoms: N_12  and  C_22 
REMARK    7  A    between atoms: C_14  and  C_22 
REMARK    8  A    between atoms: C_14  and  C_30 
REMARK       I    between atoms: C_20  and  N_21 
REMARK    9  A    between atoms: C_20  and  C_22 
ROOT
HETATM    1  C           1     -21.270  -5.954  -5.538  0.00  0.00     0.249 C 
HETATM    2  N           1     -20.809  -6.902  -4.665  0.00  0.00    -0.344 N 
HETATM    3  H           1     -19.823  -7.132  -4.642  0.00  0.00     0.163 HD
HETATM    4  O           1     -22.447  -5.680  -5.567  0.00  0.00    -0.271 OA
ENDROOT
BRANCH   1   5
HETATM    5  C           1     -20.310  -5.253  -6.468  0.00  0.00     0.278 C 
BRANCH   5   6
HETATM    6  N           1     -20.010  -6.141  -7.639  0.00  0.00    -0.066 N 
HETATM    7  H           1     -19.027  -6.487  -7.571  0.00  0.00     0.275 HD
HETATM    8  H           1     -20.665  -6.955  -7.636  0.00  0.00     0.275 HD
HETATM    9  H           1     -20.129  -5.600  -8.525  0.00  0.00     0.275 HD
ENDBRANCH   5   6
BRANCH   5  10
HETATM   10  C           1     -20.937  -3.956  -6.962  0.00  0.00     0.081 C 
BRANCH  10  11
HETATM   11  C           1     -21.274  -4.086  -8.416  0.00  0.00    -0.056 A 
HETATM   12  C           1     -22.587  -4.351  -8.805  0.00  0.00     0.010 A 
HETATM   13  C           1     -22.901  -4.472 -10.159  0.00  0.00     0.037 A 
HETATM   14  C           1     -21.903  -4.328 -11.123  0.00  0.00     0.065 A 
HETATM   15  C           1     -20.590  -4.061 -10.733  0.00  0.00     0.037 A 
HETATM   16  C           1     -20.276  -3.941  -9.378  0.00  0.00     0.010 A 
BRANCH  14  17
HETATM   17  O           1     -22.208  -4.444 -12.438  0.00  0.00    -0.361 OA
HETATM   18  H           1     -22.880  -5.139 -12.529  0.00  0.00     0.217 HD
ENDBRANCH  14  17
ENDBRANCH  10  11
ENDBRANCH   5  10
ENDBRANCH   1   5
BRANCH   2  19
HETATM   19  C           1     -21.732  -7.575  -3.772  0.00  0.00     0.191 C 
BRANCH  19  20
HETATM   20  C           1     -21.672  -6.933  -2.408  0.00  0.00     0.197 C 
HETATM   21  O           1     -20.963  -7.436  -1.511  0.00  0.00    -0.646 OA
HETATM   22  O           1     -22.334  -5.898  -2.177  0.00  0.00    -0.646 OA
ENDBRANCH  19  20
BRANCH  19  23
HETATM   23  C           1     -21.347  -9.044  -3.658  0.00  0.00     0.094 C 
BRANCH  23  24
HETATM   24  C           1     -19.968  -9.244  -4.204  0.00  0.00     0.028 A 
HETATM   25  C           1     -18.822  -9.264  -3.445  0.00  0.00     0.114 A 
HETATM   26  N           1     -17.808  -9.470  -4.338  0.00  0.00    -0.360 N 
HETATM   27  C           1     -18.369  -9.567  -5.580  0.00  0.00     0.180 A 
HETATM   28  H           1     -16.786  -9.543  -4.112  0.00  0.00     0.166 HD
HETATM   29  N           1     -19.674  -9.434  -5.530  0.00  0.00    -0.354 N 
ATOM     30  HN          1     -20.330  -9.464  -6.310  1.00  0.00     0.166 HD
ENDBRANCH  23  24
ENDBRANCH  19  23
ENDBRANCH   2  19
TORSDOF 9
ENDMDL
MODEL 7
REMARK VINA RESULT:      -6.7     14.930     16.433
REMARK  9 active torsions:
REMARK  status: ('A' for Active; 'I' for Inactive)
REMARK    1  A    between atoms: C_3  and  C_13 
REMARK    2  A    between atoms: C_3  and  C_4 
REMARK    3  A    between atoms: C_3  and  N_21 
REMARK    4  A    between atoms: C_4  and  C_26 
REMARK    5  A    between atoms: O_5  and  C_10 
REMARK    6  A    between atoms: N_12  and  C_22 
REMARK    7  A    between atoms: C_14  and  C_22 
REMARK    8  A    between atoms: C_14  and  C_30 
REMARK       I    between atoms: C_20  and  N_21 
REMARK    9  A    between atoms: C_20  and  C_22 
ROOT
HETATM    1  C           1     -20.812  -7.903  -5.420  0.00  0.00     0.249 C 
HETATM    2  N           1     -19.755  -8.066  -4.565  0.00  0.00    -0.344 N 
HETATM    3  H           1     -19.398  -7.275  -4.045  0.00  0.00     0.163 HD
HETATM    4  O           1     -21.239  -8.846  -6.042  0.00  0.00    -0.271 OA
ENDROOT
BRANCH   1   5
HETATM    5  C           1     -21.445  -6.542  -5.586  0.00  0.00     0.278 C 
BRANCH   5   6
HETATM    6  N           1     -21.907  -6.040  -4.250  0.00  0.00    -0.066 N 
HETATM    7  H           1     -21.476  -6.616  -3.493  0.00  0.00     0.275 HD
HETATM    8  H           1     -21.621  -5.043  -4.134  0.00  0.00     0.275 HD
HETATM    9  H           1     -22.948  -6.114  -4.193  0.00  0.00     0.275 HD
ENDBRANCH   5   6
BRANCH   5  10
HETATM   10  C           1     -20.424  -5.574  -6.166  0.00  0.00     0.081 C 
BRANCH  10  11
HETATM   11  C           1     -20.963  -4.976  -7.429  0.00  0.00    -0.056 A 
HETATM   12  C           1     -20.157  -4.902  -8.565  0.00  0.00     0.010 A 
HETATM   13  C           1     -20.660  -4.346  -9.741  0.00  0.00     0.037 A 
HETATM   14  C           1     -21.968  -3.863  -9.782  0.00  0.00     0.065 A 
HETATM   15  C           1     -22.774  -3.938  -8.646  0.00  0.00     0.037 A 
HETATM   16  C           1     -22.271  -4.495  -7.469  0.00  0.00     0.010 A 
BRANCH  14  17
HETATM   17  O           1     -22.457  -3.323 -10.924  0.00  0.00    -0.361 OA
HETATM   18  H           1     -21.703  -3.071 -11.483  0.00  0.00     0.217 HD
ENDBRANCH  14  17
ENDBRANCH  10  11
ENDBRANCH   5  10
ENDBRANCH   1   5
BRANCH   2  19
HETATM   19  C           1     -19.148  -9.373  -4.406  0.00  0.00     0.191 C 
BRANCH  19  20
HETATM   20  C           1     -18.634  -9.521  -2.995  0.00  0.00     0.197 C 
HETATM   21  O           1     -17.421  -9.344  -2.751  0.00  0.00    -0.646 OA
HETATM   22  O           1     -19.421  -9.822  -2.072  0.00  0.00    -0.646 OA
ENDBRANCH  19  20
BRANCH  19  23
HETATM   23  C           1     -17.991  -9.519  -5.386  0.00  0.00     0.094 C 
BRANCH  23  24
HETATM   24  C           1     -18.163 -10.776  -6.179  0.00  0.00     0.028 A 
HETATM   25  C           1     -17.169 -11.698  -6.408  0.00  0.00     0.114 A 
HETATM   26  N           1     -17.756 -12.672  -7.165  0.00  0.00    -0.360 N 
HETATM   27  C           1     -19.059 -12.311  -7.361  0.00  0.00     0.180 A 
HETATM   28  H           1     -17.292 -13.541  -7.529  0.00  0.00     0.166 HD
HETATM   29  N           1     -19.333 -11.168  -6.776  0.00  0.00    -0.354 N 
ATOM     30  HN          1     -20.227 -10.675  -6.768  1.00  0.00     0.166 HD
ENDBRANCH  23  24
ENDBRANCH  19  23
ENDBRANCH   2  19
TORSDOF 9
ENDMDL
MODEL 8
REMARK VINA RESULT:      -6.7     14.203     15.629
REMARK  9 active torsions:
REMARK  status: ('A' for Active; 'I' for Inactive)
REMARK    1  A    between atoms: C_3  and  C_13 
REMARK    2  A    between atoms: C_3  and  C_4 
REMARK    3  A    between atoms: C_3  and  N_21 
REMARK    4  A    between atoms: C_4  and  C_26 
REMARK    5  A    between atoms: O_5  and  C_10 
REMARK    6  A    between atoms: N_12  and  C_22 
REMARK    7  A    between atoms: C_14  and  C_22 
REMARK    8  A    between atoms: C_14  and  C_30 
REMARK       I    between atoms: C_20  and  N_21 
REMARK    9  A    between atoms: C_20  and  C_22 
ROOT
HETATM    1  C           1     -20.755  -7.436  -5.321  0.00  0.00     0.249 C 
HETATM    2  N           1     -21.153  -8.022  -4.150  0.00  0.00    -0.344 N 
HETATM    3  H           1     -22.039  -7.767  -3.732  0.00  0.00     0.163 HD
HETATM    4  O           1     -19.697  -7.740  -5.820  0.00  0.00    -0.271 OA
ENDROOT
BRANCH   1   5
HETATM    5  C           1     -21.635  -6.408  -5.989  0.00  0.00     0.278 C 
BRANCH   5   6
HETATM    6  N           1     -22.772  -6.056  -5.076  0.00  0.00    -0.066 N 
HETATM    7  H           1     -23.555  -6.733  -5.217  0.00  0.00     0.275 HD
HETATM    8  H           1     -22.450  -6.101  -4.084  0.00  0.00     0.275 HD
HETATM    9  H           1     -23.105  -5.090  -5.292  0.00  0.00     0.275 HD
ENDBRANCH   5   6
BRANCH   5  10
HETATM   10  C           1     -20.820  -5.158  -6.289  0.00  0.00     0.081 C 
BRANCH  10  11
HETATM   11  C           1     -21.125  -4.684  -7.677  0.00  0.00    -0.056 A 
HETATM   12  C           1     -20.166  -4.808  -8.682  0.00  0.00     0.010 A 
HETATM   13  C           1     -20.450  -4.367  -9.974  0.00  0.00     0.037 A 
HETATM   14  C           1     -21.693  -3.802 -10.262  0.00  0.00     0.065 A 
HETATM   15  C           1     -22.652  -3.679  -9.256  0.00  0.00     0.037 A 
HETATM   16  C           1     -22.367  -4.120  -7.963  0.00  0.00     0.010 A 
BRANCH  14  17
HETATM   17  O           1     -21.969  -3.374 -11.517  0.00  0.00    -0.361 OA
HETATM   18  H           1     -21.728  -4.083 -12.136  0.00  0.00     0.217 HD
ENDBRANCH  14  17
ENDBRANCH  10  11
ENDBRANCH   5  10
ENDBRANCH   1   5
BRANCH   2  19
HETATM   19  C           1     -20.307  -9.010  -3.509  0.00  0.00     0.191 C 
BRANCH  19  20
HETATM   20  C           1     -21.047 -10.322  -3.412  0.00  0.00     0.197 C 
HETATM   21  O           1     -20.463 -11.338  -2.979  0.00  0.00    -0.646 OA
HETATM   22  O           1     -22.244 -10.390  -3.766  0.00  0.00    -0.646 OA
ENDBRANCH  19  20
BRANCH  19  23
HETATM   23  C           1     -19.937  -8.532  -2.112  0.00  0.00     0.094 C 
BRANCH  23  24
HETATM   24  C           1     -21.174  -8.427  -1.276  0.00  0.00     0.028 A 
HETATM   25  C           1     -21.853  -7.258  -1.027  0.00  0.00     0.114 A 
HETATM   26  N           1     -22.904  -7.621  -0.231  0.00  0.00    -0.360 N 
HETATM   27  C           1     -22.823  -8.970  -0.034  0.00  0.00     0.180 A 
HETATM   28  H           1     -23.641  -6.981   0.156  0.00  0.00     0.166 HD
HETATM   29  N           1     -21.786  -9.485  -0.653  0.00  0.00    -0.354 N 
ATOM     30  HN          1     -21.497 -10.463  -0.668  1.00  0.00     0.166 HD
ENDBRANCH  23  24
ENDBRANCH  19  23
ENDBRANCH   2  19
TORSDOF 9
ENDMDL
MODEL 9
REMARK VINA RESULT:      -6.7     13.462     14.807
REMARK  9 active torsions:
REMARK  status: ('A' for Active; 'I' for Inactive)
REMARK    1  A    between atoms: C_3  and  C_13 
REMARK    2  A    between atoms: C_3  and  C_4 
REMARK    3  A    between atoms: C_3  and  N_21 
REMARK    4  A    between atoms: C_4  and  C_26 
REMARK    5  A    between atoms: O_5  and  C_10 
REMARK    6  A    between atoms: N_12  and  C_22 
REMARK    7  A    between atoms: C_14  and  C_22 
REMARK    8  A    between atoms: C_14  and  C_30 
REMARK       I    between atoms: C_20  and  N_21 
REMARK    9  A    between atoms: C_20  and  C_22 
ROOT
HETATM    1  C           1     -21.241  -6.033  -5.482  0.00  0.00     0.249 C 
HETATM    2  N           1     -20.656  -6.900  -4.600  0.00  0.00    -0.344 N 
HETATM    3  H           1     -19.651  -7.018  -4.598  0.00  0.00     0.163 HD
HETATM    4  O           1     -22.441  -5.892  -5.486  0.00  0.00    -0.271 OA
ENDROOT
BRANCH   1   5
HETATM    5  C           1     -20.388  -5.254  -6.454  0.00  0.00     0.278 C 
BRANCH   5   6
HETATM    6  N           1     -20.071  -6.114  -7.641  0.00  0.00    -0.066 N 
HETATM    7  H           1     -19.267  -5.702  -8.166  0.00  0.00     0.275 HD
HETATM    8  H           1     -19.819  -7.075  -7.318  0.00  0.00     0.275 HD
HETATM    9  H           1     -20.906  -6.164  -8.267  0.00  0.00     0.275 HD
ENDBRANCH   5   6
BRANCH   5  10
HETATM   10  C           1     -21.143  -4.014  -6.912  0.00  0.00     0.081 C 
BRANCH  10  11
HETATM   11  C           1     -21.421  -4.112  -8.381  0.00  0.00    -0.056 A 
HETATM   12  C           1     -22.710  -4.400  -8.828  0.00  0.00     0.010 A 
HETATM   13  C           1     -22.969  -4.491 -10.195  0.00  0.00     0.037 A 
HETATM   14  C           1     -21.939  -4.296 -11.116  0.00  0.00     0.065 A 
HETATM   15  C           1     -20.650  -4.008 -10.668  0.00  0.00     0.037 A 
HETATM   16  C           1     -20.391  -3.916  -9.299  0.00  0.00     0.010 A 
BRANCH  14  17
HETATM   17  O           1     -22.190  -4.384 -12.444  0.00  0.00    -0.361 OA
HETATM   18  H           1     -21.726  -3.654 -12.886  0.00  0.00     0.217 HD
ENDBRANCH  14  17
ENDBRANCH  10  11
ENDBRANCH   5  10
ENDBRANCH   1   5
BRANCH   2  19
HETATM   19  C           1     -21.476  -7.648  -3.667  0.00  0.00     0.191 C 
BRANCH  19  20
HETATM   20  C           1     -21.579  -6.890  -2.366  0.00  0.00     0.197 C 
HETATM   21  O           1     -20.811  -7.166  -1.420  0.00  0.00    -0.646 OA
HETATM   22  O           1     -22.433  -5.986  -2.237  0.00  0.00    -0.646 OA
ENDBRANCH  19  20
BRANCH  19  23
HETATM   23  C           1     -20.843  -9.009  -3.412  0.00  0.00     0.094 C 
BRANCH  23  24
HETATM   24  C           1     -21.841  -9.910  -2.757  0.00  0.00     0.028 A 
HETATM   25  C           1     -22.622 -10.826  -3.421  0.00  0.00     0.114 A 
HETATM   26  N           1     -23.376 -11.421  -2.449  0.00  0.00    -0.360 N 
HETATM   27  C           1     -23.029 -10.855  -1.256  0.00  0.00     0.180 A 
HETATM   28  H           1     -24.091 -12.177  -2.592  0.00  0.00     0.166 HD
HETATM   29  N           1     -22.103  -9.937  -1.411  0.00  0.00    -0.354 N 
ATOM     30  HN          1     -21.670  -9.365  -0.685  1.00  0.00     0.166 HD
ENDBRANCH  23  24
ENDBRANCH  19  23
ENDBRANCH   2  19
TORSDOF 9
ENDMDL
