MODEL 1
REMARK VINA RESULT:      -7.4      0.000      0.000
REMARK  11 active torsions:
REMARK  status: ('A' for Active; 'I' for Inactive)
REMARK    1  A    between atoms: C_2  and  O_3 
REMARK    2  A    between atoms: N_11  and  C_18 
REMARK    3  A    between atoms: O_14  and  P_15 
REMARK    4  A    between atoms: P_15  and  O_16 
REMARK    5  A    between atoms: O_16  and  C_17 
REMARK    6  A    between atoms: C_17  and  C_18 
REMARK    7  A    between atoms: C_18  and  C_19 
REMARK       I    between atoms: C_19  and  N_20 
REMARK    8  A    between atoms: N_20  and  C_24 
REMARK    9  A    between atoms: C_23  and  C_24 
REMARK   10  A    between atoms: C_24  and  C_25 
REMARK   11  A    between atoms: C_25  and  C_28 
ROOT
HETATM    1  H           1     -21.053  -4.430  -4.699  0.00  0.00     0.163 HD
HETATM    2  O           1     -21.391  -7.525  -5.088  0.00  0.00    -0.271 OA
HETATM    3  C           1     -21.283  -6.477  -4.497  0.00  0.00     0.251 C 
HETATM    4  N           1     -21.144  -5.308  -5.196  0.00  0.00    -0.344 N 
ENDROOT
BRANCH   4   5
HETATM    5  C           1     -21.126  -5.328  -6.645  0.00  0.00     0.189 C 
BRANCH   5   6
HETATM    6  C           1     -19.711  -5.527  -7.128  0.00  0.00     0.197 C 
HETATM    7  O           1     -19.322  -6.665  -7.470  0.00  0.00    -0.646 OA
HETATM    8  O           1     -18.927  -4.555  -7.186  0.00  0.00    -0.646 OA
ENDBRANCH   5   6
BRANCH   5   9
HETATM    9  C           1     -21.664  -4.005  -7.177  0.00  0.00     0.074 C 
BRANCH   9  10
HETATM   10  C           1     -22.187  -4.201  -8.565  0.00  0.00    -0.056 A 
HETATM   11  C           1     -23.550  -4.407  -8.775  0.00  0.00     0.010 A 
HETATM   12  C           1     -24.038  -4.589 -10.069  0.00  0.00     0.037 A 
HETATM   13  C           1     -23.161  -4.565 -11.154  0.00  0.00     0.065 A 
HETATM   14  C           1     -21.797  -4.359 -10.945  0.00  0.00     0.037 A 
HETATM   15  C           1     -21.311  -4.177  -9.650  0.00  0.00     0.010 A 
BRANCH  13  16
HETATM   16  O           1     -23.635  -4.742 -12.411  0.00  0.00    -0.361 OA
HETATM   17  H           1     -23.681  -5.697 -12.583  0.00  0.00     0.217 HD
ENDBRANCH  13  16
ENDBRANCH   9  10
ENDBRANCH   5   9
ENDBRANCH   4   5
BRANCH   3  18
HETATM   18  C           1     -21.302  -6.457  -2.988  0.00  0.00     0.298 C 
BRANCH  18  19
HETATM   19  N           1     -22.599  -5.874  -2.512  0.00  0.00    -0.064 N 
HETATM   20  H           1     -23.332  -6.011  -3.245  0.00  0.00     0.275 HD
HETATM   21  H           1     -22.476  -4.853  -2.328  0.00  0.00     0.275 HD
HETATM   22  H           1     -22.895  -6.353  -1.631  0.00  0.00     0.275 HD
ENDBRANCH  18  19
BRANCH  18  23
HETATM   23  C           1     -21.160  -7.878  -2.459  0.00  0.00     0.224 C 
BRANCH  23  24
HETATM   24  O           1     -20.815  -7.840  -1.101  0.00  0.00    -0.287 OA
BRANCH  24  25
HETATM   25  P           1     -21.925  -8.406  -0.073  0.00  0.00     0.406 P 
HETATM   26  O           1     -22.401  -9.728  -0.540  0.00  0.00    -0.624 OA
HETATM   27  O           1     -21.325  -8.544   1.273  0.00  0.00    -0.624 OA
BRANCH  25  28
HETATM   28  O           1     -23.170  -7.380  -0.005  0.00  0.00    -0.300 OA
HETATM   29  H           1     -22.955  -6.694  -0.615  0.00  0.00     0.223 HD
ENDBRANCH  25  28
ENDBRANCH  24  25
ENDBRANCH  23  24
ENDBRANCH  18  23
ENDBRANCH   3  18
TORSDOF 11
ENDMDL
MODEL 2
REMARK VINA RESULT:      -7.1      3.002      8.187
REMARK  11 active torsions:
REMARK  status: ('A' for Active; 'I' for Inactive)
REMARK    1  A    between atoms: C_2  and  O_3 
REMARK    2  A    between atoms: N_11  and  C_18 
REMARK    3  A    between atoms: O_14  and  P_15 
REMARK    4  A    between atoms: P_15  and  O_16 
REMARK    5  A    between atoms: O_16  and  C_17 
REMARK    6  A    between atoms: C_17  and  C_18 
REMARK    7  A    between atoms: C_18  and  C_19 
REMARK       I    between atoms: C_19  and  N_20 
REMARK    8  A    between atoms: N_20  and  C_24 
REMARK    9  A    between atoms: C_23  and  C_24 
REMARK   10  A    between atoms: C_24  and  C_25 
REMARK   11  A    between atoms: C_25  and  C_28 
ROOT
HETATM    1  H           1     -21.200  -4.156  -5.358  0.00  0.00     0.163 HD
HETATM    2  O           1     -20.087  -6.437  -7.201  0.00  0.00    -0.271 OA
HETATM    3  C           1     -20.432  -5.324  -6.883  0.00  0.00     0.251 C 
HETATM    4  N           1     -20.911  -5.089  -5.623  0.00  0.00    -0.344 N 
ENDROOT
BRANCH   4   5
HETATM    5  C           1     -21.006  -6.176  -4.669  0.00  0.00     0.189 C 
BRANCH   5   6
HETATM    6  C           1     -22.277  -6.951  -4.913  0.00  0.00     0.197 C 
HETATM    7  O           1     -22.234  -8.191  -5.066  0.00  0.00    -0.646 OA
HETATM    8  O           1     -23.374  -6.353  -4.962  0.00  0.00    -0.646 OA
ENDBRANCH   5   6
BRANCH   5   9
HETATM    9  C           1     -21.018  -5.610  -3.255  0.00  0.00     0.074 C 
BRANCH   9  10
HETATM   10  C           1     -21.233  -6.721  -2.274  0.00  0.00    -0.056 A 
HETATM   11  C           1     -22.275  -6.646  -1.352  0.00  0.00     0.010 A 
HETATM   12  C           1     -22.475  -7.681  -0.438  0.00  0.00     0.037 A 
HETATM   13  C           1     -21.631  -8.792  -0.448  0.00  0.00     0.065 A 
HETATM   14  C           1     -20.588  -8.867  -1.371  0.00  0.00     0.037 A 
HETATM   15  C           1     -20.389  -7.832  -2.284  0.00  0.00     0.010 A 
BRANCH  13  16
HETATM   16  O           1     -21.825  -9.798   0.439  0.00  0.00    -0.361 OA
HETATM   17  H           1     -22.094 -10.588  -0.057  0.00  0.00     0.217 HD
ENDBRANCH  13  16
ENDBRANCH   9  10
ENDBRANCH   5   9
ENDBRANCH   4   5
BRANCH   3  18
HETATM   18  C           1     -20.334  -4.192  -7.877  0.00  0.00     0.298 C 
BRANCH  18  19
HETATM   19  N           1     -19.986  -4.742  -9.228  0.00  0.00    -0.064 N 
HETATM   20  H           1     -20.289  -4.067  -9.967  0.00  0.00     0.275 HD
HETATM   21  H           1     -20.474  -5.655  -9.369  0.00  0.00     0.275 HD
HETATM   22  H           1     -18.953  -4.886  -9.291  0.00  0.00     0.275 HD
ENDBRANCH  18  19
BRANCH  18  23
HETATM   23  C           1     -21.672  -3.467  -7.954  0.00  0.00     0.224 C 
BRANCH  23  24
HETATM   24  O           1     -22.666  -4.362  -8.372  0.00  0.00    -0.287 OA
BRANCH  24  25
HETATM   25  P           1     -23.515  -3.920  -9.673  0.00  0.00     0.406 P 
HETATM   26  O           1     -22.606  -3.310 -10.670  0.00  0.00    -0.624 OA
HETATM   27  O           1     -24.168  -5.110 -10.263  0.00  0.00    -0.624 OA
BRANCH  25  28
HETATM   28  O           1     -24.641  -2.846  -9.243  0.00  0.00    -0.300 OA
HETATM   29  H           1     -25.354  -3.362  -8.907  0.00  0.00     0.223 HD
ENDBRANCH  25  28
ENDBRANCH  24  25
ENDBRANCH  23  24
ENDBRANCH  18  23
ENDBRANCH   3  18
TORSDOF 11
ENDMDL
MODEL 3
REMARK VINA RESULT:      -7.1      3.206      8.078
REMARK  11 active torsions:
REMARK  status: ('A' for Active; 'I' for Inactive)
REMARK    1  A    between atoms: C_2  and  O_3 
REMARK    2  A    between atoms: N_11  and  C_18 
REMARK    3  A    between atoms: O_14  and  P_15 
REMARK    4  A    between atoms: P_15  and  O_16 
REMARK    5  A    between atoms: O_16  and  C_17 
REMARK    6  A    between atoms: C_17  and  C_18 
REMARK    7  A    between atoms: C_18  and  C_19 
REMARK       I    between atoms: C_19  and  N_20 
REMARK    8  A    between atoms: N_20  and  C_24 
REMARK    9  A    between atoms: C_23  and  C_24 
REMARK   10  A    between atoms: C_24  and  C_25 
REMARK   11  A    between atoms: C_25  and  C_28 
ROOT
HETATM    1  H           1     -20.471  -7.262  -7.088  0.00  0.00     0.163 HD
HETATM    2  O           1     -20.404  -4.848  -5.086  0.00  0.00    -0.271 OA
HETATM    3  C           1     -20.497  -5.420  -6.146  0.00  0.00     0.251 C 
HETATM    4  N           1     -20.394  -6.784  -6.199  0.00  0.00    -0.344 N 
ENDROOT
BRANCH   4   5
HETATM    5  C           1     -20.173  -7.542  -4.984  0.00  0.00     0.189 C 
BRANCH   5   6
HETATM    6  C           1     -19.087  -8.562  -5.217  0.00  0.00     0.197 C 
HETATM    7  O           1     -18.713  -9.303  -4.282  0.00  0.00    -0.646 OA
HETATM    8  O           1     -18.560  -8.667  -6.346  0.00  0.00    -0.646 OA
ENDBRANCH   5   6
BRANCH   5   9
HETATM    9  C           1     -21.461  -8.252  -4.588  0.00  0.00     0.074 C 
BRANCH   9  10
HETATM   10  C           1     -21.680  -8.107  -3.114  0.00  0.00    -0.056 A 
HETATM   11  C           1     -21.624  -9.228  -2.287  0.00  0.00     0.010 A 
HETATM   12  C           1     -21.827  -9.092  -0.913  0.00  0.00     0.037 A 
HETATM   13  C           1     -22.085  -7.835  -0.368  0.00  0.00     0.065 A 
HETATM   14  C           1     -22.141  -6.713  -1.196  0.00  0.00     0.037 A 
HETATM   15  C           1     -21.938  -6.849  -2.569  0.00  0.00     0.010 A 
BRANCH  13  16
HETATM   16  O           1     -22.283  -7.703   0.966  0.00  0.00    -0.361 OA
HETATM   17  H           1     -22.759  -6.870   1.119  0.00  0.00     0.217 HD
ENDBRANCH  13  16
ENDBRANCH   9  10
ENDBRANCH   5   9
ENDBRANCH   4   5
BRANCH   3  18
HETATM   18  C           1     -20.726  -4.631  -7.412  0.00  0.00     0.298 C 
BRANCH  18  19
HETATM   19  N           1     -20.068  -5.331  -8.563  0.00  0.00    -0.064 N 
HETATM   20  H           1     -19.558  -6.174  -8.213  0.00  0.00     0.275 HD
HETATM   21  H           1     -19.392  -4.681  -9.025  0.00  0.00     0.275 HD
HETATM   22  H           1     -20.794  -5.626  -9.254  0.00  0.00     0.275 HD
ENDBRANCH  18  19
BRANCH  18  23
HETATM   23  C           1     -22.222  -4.517  -7.676  0.00  0.00     0.224 C 
BRANCH  23  24
HETATM   24  O           1     -22.465  -3.440  -8.539  0.00  0.00    -0.287 OA
BRANCH  24  25
HETATM   25  P           1     -23.582  -3.685  -9.679  0.00  0.00     0.406 P 
HETATM   26  O           1     -23.097  -3.143 -10.969  0.00  0.00    -0.624 OA
HETATM   27  O           1     -23.836  -5.136  -9.817  0.00  0.00    -0.624 OA
BRANCH  25  28
HETATM   28  O           1     -24.951  -2.936  -9.263  0.00  0.00    -0.300 OA
HETATM   29  H           1     -24.884  -2.805  -8.332  0.00  0.00     0.223 HD
ENDBRANCH  25  28
ENDBRANCH  24  25
ENDBRANCH  23  24
ENDBRANCH  18  23
ENDBRANCH   3  18
TORSDOF 11
ENDMDL
MODEL 4
REMARK VINA RESULT:      -6.9     14.748     17.036
REMARK  11 active torsions:
REMARK  status: ('A' for Active; 'I' for Inactive)
REMARK    1  A    between atoms: C_2  and  O_3 
REMARK    2  A    between atoms: N_11  and  C_18 
REMARK    3  A    between atoms: O_14  and  P_15 
REMARK    4  A    between atoms: P_15  and  O_16 
REMARK    5  A    between atoms: O_16  and  C_17 
REMARK    6  A    between atoms: C_17  and  C_18 
REMARK    7  A    between atoms: C_18  and  C_19 
REMARK       I    between atoms: C_19  and  N_20 
REMARK    8  A    between atoms: N_20  and  C_24 
REMARK    9  A    between atoms: C_23  and  C_24 
REMARK   10  A    between atoms: C_24  and  C_25 
REMARK   11  A    between atoms: C_25  and  C_28 
ROOT
HETATM    1  H           1     -36.670  -2.579 -11.034  0.00  0.00     0.163 HD
HETATM    2  O           1     -33.753  -1.442 -10.836  0.00  0.00    -0.271 OA
HETATM    3  C           1     -34.625  -2.266 -10.976  0.00  0.00     0.251 C 
HETATM    4  N           1     -35.940  -1.888 -10.917  0.00  0.00    -0.344 N 
ENDROOT
BRANCH   4   5
HETATM    5  C           1     -36.285  -0.499 -10.688  0.00  0.00     0.189 C 
BRANCH   5   6
HETATM    6  C           1     -36.623  -0.298  -9.232  0.00  0.00     0.197 C 
HETATM    7  O           1     -35.730   0.037  -8.424  0.00  0.00    -0.646 OA
HETATM    8  O           1     -37.795  -0.466  -8.832  0.00  0.00    -0.646 OA
ENDBRANCH   5   6
BRANCH   5   9
HETATM    9  C           1     -37.488  -0.127 -11.545  0.00  0.00     0.074 C 
BRANCH   9  10
HETATM   10  C           1     -37.083  -0.091 -12.986  0.00  0.00    -0.056 A 
HETATM   11  C           1     -35.751   0.136 -13.331  0.00  0.00     0.010 A 
HETATM   12  C           1     -35.373   0.169 -14.673  0.00  0.00     0.037 A 
HETATM   13  C           1     -36.329  -0.024 -15.671  0.00  0.00     0.065 A 
HETATM   14  C           1     -37.662  -0.251 -15.326  0.00  0.00     0.037 A 
HETATM   15  C           1     -38.038  -0.284 -13.984  0.00  0.00     0.010 A 
BRANCH  13  16
HETATM   16  O           1     -35.962   0.009 -16.975  0.00  0.00    -0.361 OA
HETATM   17  H           1     -36.731  -0.250 -17.510  0.00  0.00     0.217 HD
ENDBRANCH  13  16
ENDBRANCH   9  10
ENDBRANCH   5   9
ENDBRANCH   4   5
BRANCH   3  18
HETATM   18  C           1     -34.266  -3.712 -11.214  0.00  0.00     0.298 C 
BRANCH  18  19
HETATM   19  N           1     -35.511  -4.547 -11.186  0.00  0.00    -0.064 N 
HETATM   20  H           1     -35.377  -5.392 -11.787  0.00  0.00     0.275 HD
HETATM   21  H           1     -36.315  -3.986 -11.548  0.00  0.00     0.275 HD
HETATM   22  H           1     -35.709  -4.847 -10.205  0.00  0.00     0.275 HD
ENDBRANCH  18  19
BRANCH  18  23
HETATM   23  C           1     -33.592  -3.851 -12.573  0.00  0.00     0.224 C 
BRANCH  23  24
HETATM   24  O           1     -34.438  -3.343 -13.569  0.00  0.00    -0.287 OA
BRANCH  24  25
HETATM   25  P           1     -34.321  -4.040 -15.020  0.00  0.00     0.406 P 
HETATM   26  O           1     -35.116  -5.289 -15.032  0.00  0.00    -0.624 OA
HETATM   27  O           1     -34.838  -3.117 -16.054  0.00  0.00    -0.624 OA
BRANCH  25  28
HETATM   28  O           1     -32.774  -4.385 -15.330  0.00  0.00    -0.300 OA
HETATM   29  H           1     -32.415  -4.659 -14.504  0.00  0.00     0.223 HD
ENDBRANCH  25  28
ENDBRANCH  24  25
ENDBRANCH  23  24
ENDBRANCH  18  23
ENDBRANCH   3  18
TORSDOF 11
ENDMDL
MODEL 5
REMARK VINA RESULT:      -6.7      4.354      8.760
REMARK  11 active torsions:
REMARK  status: ('A' for Active; 'I' for Inactive)
REMARK    1  A    between atoms: C_2  and  O_3 
REMARK    2  A    between atoms: N_11  and  C_18 
REMARK    3  A    between atoms: O_14  and  P_15 
REMARK    4  A    between atoms: P_15  and  O_16 
REMARK    5  A    between atoms: O_16  and  C_17 
REMARK    6  A    between atoms: C_17  and  C_18 
REMARK    7  A    between atoms: C_18  and  C_19 
REMARK       I    between atoms: C_19  and  N_20 
REMARK    8  A    between atoms: N_20  and  C_24 
REMARK    9  A    between atoms: C_23  and  C_24 
REMARK   10  A    between atoms: C_24  and  C_25 
REMARK   11  A    between atoms: C_25  and  C_28 
ROOT
HETATM    1  H           1     -20.102  -7.748  -2.651  0.00  0.00     0.163 HD
HETATM    2  O           1     -22.109  -9.898  -3.745  0.00  0.00    -0.271 OA
HETATM    3  C           1     -21.131  -9.188  -3.724  0.00  0.00     0.251 C 
HETATM    4  N           1     -20.922  -8.343  -2.668  0.00  0.00    -0.344 N 
ENDROOT
BRANCH   4   5
HETATM    5  C           1     -21.872  -8.299  -1.574  0.00  0.00     0.189 C 
BRANCH   5   6
HETATM    6  C           1     -22.285  -6.870  -1.324  0.00  0.00     0.197 C 
HETATM    7  O           1     -22.339  -6.060  -2.274  0.00  0.00    -0.646 OA
HETATM    8  O           1     -22.575  -6.496  -0.167  0.00  0.00    -0.646 OA
ENDBRANCH   5   6
BRANCH   5   9
HETATM    9  C           1     -21.227  -8.870  -0.318  0.00  0.00     0.074 C 
BRANCH   9  10
HETATM   10  C           1     -21.852 -10.190   0.009  0.00  0.00    -0.056 A 
HETATM   11  C           1     -21.093 -11.192   0.611  0.00  0.00     0.010 A 
HETATM   12  C           1     -21.676 -12.422   0.917  0.00  0.00     0.037 A 
HETATM   13  C           1     -23.020 -12.649   0.619  0.00  0.00     0.065 A 
HETATM   14  C           1     -23.781 -11.646   0.016  0.00  0.00     0.037 A 
HETATM   15  C           1     -23.196 -10.416  -0.288  0.00  0.00     0.010 A 
BRANCH  13  16
HETATM   16  O           1     -23.587 -13.843   0.916  0.00  0.00    -0.361 OA
HETATM   17  H           1     -23.825 -13.838   1.858  0.00  0.00     0.217 HD
ENDBRANCH  13  16
ENDBRANCH   9  10
ENDBRANCH   5   9
ENDBRANCH   4   5
BRANCH   3  18
HETATM   18  C           1     -20.142  -9.233  -4.863  0.00  0.00     0.298 C 
BRANCH  18  19
HETATM   19  N           1     -20.711 -10.044  -5.988  0.00  0.00    -0.064 N 
HETATM   20  H           1     -21.511 -10.618  -5.634  0.00  0.00     0.275 HD
HETATM   21  H           1     -19.972 -10.676  -6.371  0.00  0.00     0.275 HD
HETATM   22  H           1     -21.049  -9.406  -6.743  0.00  0.00     0.275 HD
ENDBRANCH  18  19
BRANCH  18  23
HETATM   23  C           1     -19.863  -7.817  -5.350  0.00  0.00     0.224 C 
BRANCH  23  24
HETATM   24  O           1     -20.910  -7.391  -6.179  0.00  0.00    -0.287 OA
BRANCH  24  25
HETATM   25  P           1     -21.537  -5.942  -5.842  0.00  0.00     0.406 P 
HETATM   26  O           1     -20.587  -5.178  -5.001  0.00  0.00    -0.624 OA
HETATM   27  O           1     -21.783  -5.206  -7.102  0.00  0.00    -0.624 OA
BRANCH  25  28
HETATM   28  O           1     -22.929  -6.128  -5.046  0.00  0.00    -0.300 OA
HETATM   29  H           1     -22.847  -5.586  -4.280  0.00  0.00     0.223 HD
ENDBRANCH  25  28
ENDBRANCH  24  25
ENDBRANCH  23  24
ENDBRANCH  18  23
ENDBRANCH   3  18
TORSDOF 11
ENDMDL
MODEL 6
REMARK VINA RESULT:      -6.7      3.298      8.351
REMARK  11 active torsions:
REMARK  status: ('A' for Active; 'I' for Inactive)
REMARK    1  A    between atoms: C_2  and  O_3 
REMARK    2  A    between atoms: N_11  and  C_18 
REMARK    3  A    between atoms: O_14  and  P_15 
REMARK    4  A    between atoms: P_15  and  O_16 
REMARK    5  A    between atoms: O_16  and  C_17 
REMARK    6  A    between atoms: C_17  and  C_18 
REMARK    7  A    between atoms: C_18  and  C_19 
REMARK       I    between atoms: C_19  and  N_20 
REMARK    8  A    between atoms: N_20  and  C_24 
REMARK    9  A    between atoms: C_23  and  C_24 
REMARK   10  A    between atoms: C_24  and  C_25 
REMARK   11  A    between atoms: C_25  and  C_28 
ROOT
HETATM    1  H           1     -21.225  -7.752  -6.996  0.00  0.00     0.163 HD
HETATM    2  O           1     -20.833  -5.066  -5.424  0.00  0.00    -0.271 OA
HETATM    3  C           1     -21.124  -5.790  -6.346  0.00  0.00     0.251 C 
HETATM    4  N           1     -20.981  -7.146  -6.223  0.00  0.00    -0.344 N 
ENDROOT
BRANCH   4   5
HETATM    5  C           1     -20.481  -7.713  -4.986  0.00  0.00     0.189 C 
BRANCH   5   6
HETATM    6  C           1     -19.179  -8.428  -5.252  0.00  0.00     0.197 C 
HETATM    7  O           1     -18.671  -8.397  -6.393  0.00  0.00    -0.646 OA
HETATM    8  O           1     -18.609  -9.051  -4.330  0.00  0.00    -0.646 OA
ENDBRANCH   5   6
BRANCH   5   9
HETATM    9  C           1     -21.500  -8.700  -4.432  0.00  0.00     0.074 C 
BRANCH   9  10
HETATM   10  C           1     -21.691  -8.451  -2.968  0.00  0.00    -0.056 A 
HETATM   11  C           1     -21.794  -9.525  -2.085  0.00  0.00     0.010 A 
HETATM   12  C           1     -21.972  -9.293  -0.721  0.00  0.00     0.037 A 
HETATM   13  C           1     -22.047  -7.985  -0.241  0.00  0.00     0.065 A 
HETATM   14  C           1     -21.944  -6.910  -1.124  0.00  0.00     0.037 A 
HETATM   15  C           1     -21.766  -7.144  -2.488  0.00  0.00     0.010 A 
BRANCH  13  16
HETATM   16  O           1     -22.219  -7.760   1.084  0.00  0.00    -0.361 OA
HETATM   17  H           1     -21.561  -8.286   1.567  0.00  0.00     0.217 HD
ENDBRANCH  13  16
ENDBRANCH   9  10
ENDBRANCH   5   9
ENDBRANCH   4   5
BRANCH   3  18
HETATM   18  C           1     -21.645  -5.200  -7.634  0.00  0.00     0.298 C 
BRANCH  18  19
HETATM   19  N           1     -22.820  -4.316  -7.339  0.00  0.00    -0.064 N 
HETATM   20  H           1     -22.636  -3.356  -7.712  0.00  0.00     0.275 HD
HETATM   21  H           1     -22.967  -4.266  -6.306  0.00  0.00     0.275 HD
HETATM   22  H           1     -23.675  -4.708  -7.794  0.00  0.00     0.275 HD
ENDBRANCH  18  19
BRANCH  18  23
HETATM   23  C           1     -20.546  -4.379  -8.297  0.00  0.00     0.224 C 
BRANCH  23  24
HETATM   24  O           1     -20.409  -4.774  -9.635  0.00  0.00    -0.287 OA
BRANCH  24  25
HETATM   25  P           1     -21.233  -3.905 -10.718  0.00  0.00     0.406 P 
HETATM   26  O           1     -21.761  -4.801 -11.771  0.00  0.00    -0.624 OA
HETATM   27  O           1     -22.357  -3.217 -10.046  0.00  0.00    -0.624 OA
BRANCH  25  28
HETATM   28  O           1     -20.254  -2.809 -11.387  0.00  0.00    -0.300 OA
HETATM   29  H           1     -20.774  -2.390 -12.052  0.00  0.00     0.223 HD
ENDBRANCH  25  28
ENDBRANCH  24  25
ENDBRANCH  23  24
ENDBRANCH  18  23
ENDBRANCH   3  18
TORSDOF 11
ENDMDL
MODEL 7
REMARK VINA RESULT:      -6.3      3.402      8.124
REMARK  11 active torsions:
REMARK  status: ('A' for Active; 'I' for Inactive)
REMARK    1  A    between atoms: C_2  and  O_3 
REMARK    2  A    between atoms: N_11  and  C_18 
REMARK    3  A    between atoms: O_14  and  P_15 
REMARK    4  A    between atoms: P_15  and  O_16 
REMARK    5  A    between atoms: O_16  and  C_17 
REMARK    6  A    between atoms: C_17  and  C_18 
REMARK    7  A    between atoms: C_18  and  C_19 
REMARK       I    between atoms: C_19  and  N_20 
REMARK    8  A    between atoms: N_20  and  C_24 
REMARK    9  A    between atoms: C_23  and  C_24 
REMARK   10  A    between atoms: C_24  and  C_25 
REMARK   11  A    between atoms: C_25  and  C_28 
ROOT
HETATM    1  H           1     -21.590  -8.401  -3.653  0.00  0.00     0.163 HD
HETATM    2  O           1     -19.460  -8.127  -5.940  0.00  0.00    -0.271 OA
HETATM    3  C           1     -20.472  -7.900  -5.321  0.00  0.00     0.251 C 
HETATM    4  N           1     -20.742  -8.592  -4.171  0.00  0.00    -0.344 N 
ENDROOT
BRANCH   4   5
HETATM    5  C           1     -19.813  -9.598  -3.696  0.00  0.00     0.189 C 
BRANCH   5   6
HETATM    6  C           1     -20.483 -10.950  -3.715  0.00  0.00     0.197 C 
HETATM    7  O           1     -21.607 -11.083  -4.246  0.00  0.00    -0.646 OA
HETATM    8  O           1     -19.914 -11.937  -3.200  0.00  0.00    -0.646 OA
ENDBRANCH   5   6
BRANCH   5   9
HETATM    9  C           1     -19.385  -9.262  -2.273  0.00  0.00     0.074 C 
BRANCH   9  10
HETATM   10  C           1     -20.580  -8.828  -1.482  0.00  0.00    -0.056 A 
HETATM   11  C           1     -21.254  -9.744  -0.676  0.00  0.00     0.010 A 
HETATM   12  C           1     -22.367  -9.339   0.061  0.00  0.00     0.037 A 
HETATM   13  C           1     -22.805  -8.016  -0.008  0.00  0.00     0.065 A 
HETATM   14  C           1     -22.131  -7.099  -0.815  0.00  0.00     0.037 A 
HETATM   15  C           1     -21.018  -7.505  -1.551  0.00  0.00     0.010 A 
BRANCH  13  16
HETATM   16  O           1     -23.886  -7.623   0.708  0.00  0.00    -0.361 OA
HETATM   17  H           1     -24.233  -6.809   0.306  0.00  0.00     0.217 HD
ENDBRANCH  13  16
ENDBRANCH   9  10
ENDBRANCH   5   9
ENDBRANCH   4   5
BRANCH   3  18
HETATM   18  C           1     -21.439  -6.852  -5.816  0.00  0.00     0.298 C 
BRANCH  18  19
HETATM   19  N           1     -21.997  -6.095  -4.647  0.00  0.00    -0.064 N 
HETATM   20  H           1     -22.219  -6.763  -3.873  0.00  0.00     0.275 HD
HETATM   21  H           1     -22.868  -5.598  -4.939  0.00  0.00     0.275 HD
HETATM   22  H           1     -21.293  -5.399  -4.314  0.00  0.00     0.275 HD
ENDBRANCH  18  19
BRANCH  18  23
HETATM   23  C           1     -20.712  -5.887  -6.744  0.00  0.00     0.224 C 
BRANCH  23  24
HETATM   24  O           1     -21.501  -5.644  -7.877  0.00  0.00    -0.287 OA
BRANCH  24  25
HETATM   25  P           1     -22.137  -4.164  -7.992  0.00  0.00     0.406 P 
HETATM   26  O           1     -21.396  -3.239  -7.106  0.00  0.00    -0.624 OA
HETATM   27  O           1     -22.040  -3.693  -9.391  0.00  0.00    -0.624 OA
BRANCH  25  28
HETATM   28  O           1     -23.689  -4.209  -7.546  0.00  0.00    -0.300 OA
HETATM   29  H           1     -23.883  -3.335  -7.249  0.00  0.00     0.223 HD
ENDBRANCH  25  28
ENDBRANCH  24  25
ENDBRANCH  23  24
ENDBRANCH  18  23
ENDBRANCH   3  18
TORSDOF 11
ENDMDL
MODEL 8
REMARK VINA RESULT:      -6.3     13.864     16.091
REMARK  11 active torsions:
REMARK  status: ('A' for Active; 'I' for Inactive)
REMARK    1  A    between atoms: C_2  and  O_3 
REMARK    2  A    between atoms: N_11  and  C_18 
REMARK    3  A    between atoms: O_14  and  P_15 
REMARK    4  A    between atoms: P_15  and  O_16 
REMARK    5  A    between atoms: O_16  and  C_17 
REMARK    6  A    between atoms: C_17  and  C_18 
REMARK    7  A    between atoms: C_18  and  C_19 
REMARK       I    between atoms: C_19  and  N_20 
REMARK    8  A    between atoms: N_20  and  C_24 
REMARK    9  A    between atoms: C_23  and  C_24 
REMARK   10  A    between atoms: C_24  and  C_25 
REMARK   11  A    between atoms: C_25  and  C_28 
ROOT
HETATM    1  H           1     -35.837  -2.459 -12.584  0.00  0.00     0.163 HD
HETATM    2  O           1     -33.059  -2.373 -11.128  0.00  0.00    -0.271 OA
HETATM    3  C           1     -33.917  -2.774 -11.879  0.00  0.00     0.251 C 
HETATM    4  N           1     -35.119  -2.122 -11.955  0.00  0.00    -0.344 N 
ENDROOT
BRANCH   4   5
HETATM    5  C           1     -35.362  -0.952 -11.135  0.00  0.00     0.189 C 
BRANCH   5   6
HETATM    6  C           1     -36.715  -1.072 -10.477  0.00  0.00     0.197 C 
HETATM    7  O           1     -37.344  -2.150 -10.534  0.00  0.00    -0.646 OA
HETATM    8  O           1     -37.206  -0.093  -9.875  0.00  0.00    -0.646 OA
ENDBRANCH   5   6
BRANCH   5   9
HETATM    9  C           1     -35.330   0.295 -12.009  0.00  0.00     0.074 C 
BRANCH   9  10
HETATM   10  C           1     -36.028   0.016 -13.304  0.00  0.00    -0.056 A 
HETATM   11  C           1     -37.420  -0.026 -13.351  0.00  0.00     0.010 A 
HETATM   12  C           1     -38.071  -0.286 -14.557  0.00  0.00     0.037 A 
HETATM   13  C           1     -37.327  -0.504 -15.717  0.00  0.00     0.065 A 
HETATM   14  C           1     -35.933  -0.463 -15.670  0.00  0.00     0.037 A 
HETATM   15  C           1     -35.284  -0.202 -14.463  0.00  0.00     0.010 A 
BRANCH  13  16
HETATM   16  O           1     -37.959  -0.757 -16.889  0.00  0.00    -0.361 OA
HETATM   17  H           1     -37.588  -0.165 -17.564  0.00  0.00     0.217 HD
ENDBRANCH  13  16
ENDBRANCH   9  10
ENDBRANCH   5   9
ENDBRANCH   4   5
BRANCH   3  18
HETATM   18  C           1     -33.664  -3.992 -12.732  0.00  0.00     0.298 C 
BRANCH  18  19
HETATM   19  N           1     -32.324  -4.573 -12.390  0.00  0.00    -0.064 N 
HETATM   20  H           1     -31.857  -3.972 -11.673  0.00  0.00     0.275 HD
HETATM   21  H           1     -31.732  -4.613 -13.250  0.00  0.00     0.275 HD
HETATM   22  H           1     -32.448  -5.537 -12.008  0.00  0.00     0.275 HD
ENDBRANCH  18  19
BRANCH  18  23
HETATM   23  C           1     -34.747  -5.030 -12.470  0.00  0.00     0.224 C 
BRANCH  23  24
HETATM   24  O           1     -34.835  -5.279 -11.093  0.00  0.00    -0.287 OA
BRANCH  24  25
HETATM   25  P           1     -34.508  -6.789 -10.624  0.00  0.00     0.406 P 
HETATM   26  O           1     -33.044  -7.008 -10.655  0.00  0.00    -0.624 OA
HETATM   27  O           1     -35.010  -6.997  -9.248  0.00  0.00    -0.624 OA
BRANCH  25  28
HETATM   28  O           1     -35.229  -7.832 -11.624  0.00  0.00    -0.300 OA
HETATM   29  H           1     -34.550  -8.433 -11.880  0.00  0.00     0.223 HD
ENDBRANCH  25  28
ENDBRANCH  24  25
ENDBRANCH  23  24
ENDBRANCH  18  23
ENDBRANCH   3  18
TORSDOF 11
ENDMDL
MODEL 9
REMARK VINA RESULT:      -6.3      2.574      4.017
REMARK  11 active torsions:
REMARK  status: ('A' for Active; 'I' for Inactive)
REMARK    1  A    between atoms: C_2  and  O_3 
REMARK    2  A    between atoms: N_11  and  C_18 
REMARK    3  A    between atoms: O_14  and  P_15 
REMARK    4  A    between atoms: P_15  and  O_16 
REMARK    5  A    between atoms: O_16  and  C_17 
REMARK    6  A    between atoms: C_17  and  C_18 
REMARK    7  A    between atoms: C_18  and  C_19 
REMARK       I    between atoms: C_19  and  N_20 
REMARK    8  A    between atoms: N_20  and  C_24 
REMARK    9  A    between atoms: C_23  and  C_24 
REMARK   10  A    between atoms: C_24  and  C_25 
REMARK   11  A    between atoms: C_25  and  C_28 
ROOT
HETATM    1  H           1     -22.608  -8.858  -4.279  0.00  0.00     0.163 HD
HETATM    2  O           1     -19.708  -8.864  -5.476  0.00  0.00    -0.271 OA
HETATM    3  C           1     -20.779  -9.308  -5.136  0.00  0.00     0.251 C 
HETATM    4  N           1     -21.712  -8.484  -4.564  0.00  0.00    -0.344 N 
ENDROOT
BRANCH   4   5
HETATM    5  C           1     -21.414  -7.079  -4.367  0.00  0.00     0.189 C 
BRANCH   5   6
HETATM    6  C           1     -21.419  -6.767  -2.891  0.00  0.00     0.197 C 
HETATM    7  O           1     -20.662  -7.393  -2.118  0.00  0.00    -0.646 OA
HETATM    8  O           1     -22.179  -5.882  -2.441  0.00  0.00    -0.646 OA
ENDBRANCH   5   6
BRANCH   5   9
HETATM    9  C           1     -22.469  -6.235  -5.069  0.00  0.00     0.074 C 
BRANCH   9  10
HETATM   10  C           1     -21.866  -5.584  -6.275  0.00  0.00    -0.056 A 
HETATM   11  C           1     -20.529  -5.812  -6.596  0.00  0.00     0.010 A 
HETATM   12  C           1     -19.967  -5.206  -7.720  0.00  0.00     0.037 A 
HETATM   13  C           1     -20.744  -4.370  -8.522  0.00  0.00     0.065 A 
HETATM   14  C           1     -22.083  -4.141  -8.201  0.00  0.00     0.037 A 
HETATM   15  C           1     -22.644  -4.748  -7.077  0.00  0.00     0.010 A 
BRANCH  13  16
HETATM   16  O           1     -20.199  -3.781  -9.614  0.00  0.00    -0.361 OA
HETATM   17  H           1     -19.326  -3.435  -9.363  0.00  0.00     0.217 HD
ENDBRANCH  13  16
ENDBRANCH   9  10
ENDBRANCH   5   9
ENDBRANCH   4   5
BRANCH   3  18
HETATM   18  C           1     -21.088 -10.771  -5.340  0.00  0.00     0.298 C 
BRANCH  18  19
HETATM   19  N           1     -20.235 -11.312  -6.448  0.00  0.00    -0.064 N 
HETATM   20  H           1     -20.409 -10.764  -7.322  0.00  0.00     0.275 HD
HETATM   21  H           1     -20.473 -12.316  -6.613  0.00  0.00     0.275 HD
HETATM   22  H           1     -19.227 -11.232  -6.184  0.00  0.00     0.275 HD
ENDBRANCH  18  19
BRANCH  18  23
HETATM   23  C           1     -20.797 -11.536  -4.056  0.00  0.00     0.224 C 
BRANCH  23  24
HETATM   24  O           1     -20.829 -10.654  -2.967  0.00  0.00    -0.287 OA
BRANCH  24  25
HETATM   25  P           1     -21.955 -10.951  -1.849  0.00  0.00     0.406 P 
HETATM   26  O           1     -23.267 -11.141  -2.508  0.00  0.00    -0.624 OA
HETATM   27  O           1     -21.597 -12.177  -1.102  0.00  0.00    -0.624 OA
BRANCH  25  28
HETATM   28  O           1     -22.042  -9.704  -0.827  0.00  0.00    -0.300 OA
HETATM   29  H           1     -21.352  -9.852  -0.202  0.00  0.00     0.223 HD
ENDBRANCH  25  28
ENDBRANCH  24  25
ENDBRANCH  23  24
ENDBRANCH  18  23
ENDBRANCH   3  18
TORSDOF 11
ENDMDL
