MODEL 1
REMARK VINA RESULT:      -7.2      0.000      0.000
REMARK  9 active torsions:
REMARK  status: ('A' for Active; 'I' for Inactive)
REMARK    1  A    between atoms: C_1  and  C_6 
REMARK    2  A    between atoms: C_1  and  C_12 
REMARK    3  A    between atoms: C_2  and  C_24 
REMARK    4  A    between atoms: C_2  and  C_14 
REMARK    5  A    between atoms: C_6  and  C_16 
REMARK    6  A    between atoms: N_8  and  C_16 
REMARK       I    between atoms: N_11  and  C_12 
REMARK    7  A    between atoms: N_15  and  C_24 
REMARK       I    between atoms: N_15  and  C_17 
REMARK    8  A    between atoms: C_16  and  C_17 
REMARK    9  A    between atoms: C_22  and  C_24 
ROOT
HETATM    1  H           1     -34.048  -1.857  -9.757  0.00  0.00     0.163 HD
HETATM    2  O           1     -32.724  -3.339 -11.770  0.00  0.00    -0.271 OA
HETATM    3  N           1     -34.211  -2.030 -10.741  0.00  0.00    -0.344 N 
HETATM    4  C           1     -33.829  -3.221 -11.298  0.00  0.00     0.249 C 
ENDROOT
BRANCH   3   5
HETATM    5  C           1     -34.849  -1.017 -11.559  0.00  0.00     0.191 C 
BRANCH   5   6
HETATM    6  C           1     -34.992  -1.535 -12.985  0.00  0.00     0.094 C 
BRANCH   6   7
HETATM    7  C           1     -35.382  -0.408 -13.889  0.00  0.00     0.028 A 
HETATM    8  C           1     -34.800   0.837 -13.883  0.00  0.00     0.114 A 
HETATM    9  N           1     -35.454   1.540 -14.856  0.00  0.00    -0.360 N 
HETATM   10  C           1     -36.390   0.709 -15.403  0.00  0.00     0.180 A 
HETATM   11  H           1     -35.271   2.537 -15.131  0.00  0.00     0.166 HD
HETATM   12  N           1     -36.368  -0.476 -14.838  0.00  0.00    -0.354 N 
ATOM     13  HN          1     -36.960  -1.278 -15.059  1.00  0.00     0.166 HD
ENDBRANCH   6   7
ENDBRANCH   5   6
BRANCH   5  14
HETATM   14  C           1     -36.213  -0.703 -10.997  0.00  0.00     0.197 C 
HETATM   15  O           1     -37.120  -1.561 -11.043  0.00  0.00    -0.646 OA
HETATM   16  O           1     -36.436   0.415 -10.485  0.00  0.00    -0.646 OA
ENDBRANCH   5  14
ENDBRANCH   3   5
BRANCH   4  17
HETATM   17  C           1     -34.788  -4.385 -11.323  0.00  0.00     0.275 C 
BRANCH  17  18
HETATM   18  C           1     -34.435  -5.359 -10.208  0.00  0.00     0.052 C 
BRANCH  18  19
HETATM   19  C           1     -33.727  -6.572 -10.798  0.00  0.00     0.105 C 
BRANCH  19  20
HETATM   20  C           1     -34.284  -7.831 -10.180  0.00  0.00     0.215 C 
HETATM   21  O           1     -35.382  -7.822  -9.675  0.00  0.00    -0.274 OA
HETATM   22  N           1     -33.547  -8.984 -10.193  0.00  0.00    -0.370 N 
HETATM   23  H           1     -33.920  -9.829  -9.778  0.00  0.00     0.159 HD
HETATM   24  H           1     -32.628  -8.993 -10.615  0.00  0.00     0.159 HD
ENDBRANCH  19  20
ENDBRANCH  18  19
ENDBRANCH  17  18
BRANCH  17  25
HETATM   25  N           1     -34.691  -5.084 -12.647  0.00  0.00    -0.066 N 
HETATM   26  H           1     -34.639  -6.116 -12.493  0.00  0.00     0.275 HD
HETATM   27  H           1     -35.534  -4.860 -13.221  0.00  0.00     0.275 HD
HETATM   28  H           1     -33.832  -4.762 -13.147  0.00  0.00     0.275 HD
ENDBRANCH  17  25
ENDBRANCH   4  17
TORSDOF 9
ENDMDL
MODEL 2
REMARK VINA RESULT:      -7.1      9.545     11.497
REMARK  9 active torsions:
REMARK  status: ('A' for Active; 'I' for Inactive)
REMARK    1  A    between atoms: C_1  and  C_6 
REMARK    2  A    between atoms: C_1  and  C_12 
REMARK    3  A    between atoms: C_2  and  C_24 
REMARK    4  A    between atoms: C_2  and  C_14 
REMARK    5  A    between atoms: C_6  and  C_16 
REMARK    6  A    between atoms: N_8  and  C_16 
REMARK       I    between atoms: N_11  and  C_12 
REMARK    7  A    between atoms: N_15  and  C_24 
REMARK       I    between atoms: N_15  and  C_17 
REMARK    8  A    between atoms: C_16  and  C_17 
REMARK    9  A    between atoms: C_22  and  C_24 
ROOT
HETATM    1  H           1     -26.905  -4.981 -16.961  0.00  0.00     0.163 HD
HETATM    2  O           1     -28.550  -6.694 -15.423  0.00  0.00    -0.271 OA
HETATM    3  N           1     -27.070  -5.979 -16.935  0.00  0.00    -0.344 N 
HETATM    4  C           1     -28.303  -6.459 -16.582  0.00  0.00     0.249 C 
ENDROOT
BRANCH   3   5
HETATM    5  C           1     -26.002  -6.899 -17.272  0.00  0.00     0.191 C 
BRANCH   5   6
HETATM    6  C           1     -25.179  -6.323 -18.417  0.00  0.00     0.094 C 
BRANCH   6   7
HETATM    7  C           1     -25.386  -7.151 -19.648  0.00  0.00     0.028 A 
HETATM    8  C           1     -24.375  -7.718 -20.386  0.00  0.00     0.114 A 
HETATM    9  N           1     -25.006  -8.375 -21.405  0.00  0.00    -0.360 N 
HETATM   10  C           1     -26.349  -8.184 -21.247  0.00  0.00     0.180 A 
HETATM   11  H           1     -24.543  -8.926 -22.170  0.00  0.00     0.166 HD
HETATM   12  N           1     -26.608  -7.447 -20.191  0.00  0.00    -0.354 N 
ATOM     13  HN          1     -27.525  -7.157 -19.848  1.00  0.00     0.166 HD
ENDBRANCH   6   7
ENDBRANCH   5   6
BRANCH   5  14
HETATM   14  C           1     -25.116  -7.103 -16.068  0.00  0.00     0.197 C 
HETATM   15  O           1     -24.286  -8.038 -16.054  0.00  0.00    -0.646 OA
HETATM   16  O           1     -25.211  -6.337 -15.085  0.00  0.00    -0.646 OA
ENDBRANCH   5  14
ENDBRANCH   3   5
BRANCH   4  17
HETATM   17  C           1     -29.352  -6.696 -17.640  0.00  0.00     0.275 C 
BRANCH  17  18
HETATM   18  C           1     -30.687  -6.136 -17.167  0.00  0.00     0.052 C 
BRANCH  18  19
HETATM   19  C           1     -30.662  -4.616 -17.262  0.00  0.00     0.105 C 
BRANCH  19  20
HETATM   20  C           1     -32.071  -4.082 -17.185  0.00  0.00     0.215 C 
HETATM   21  O           1     -32.342  -3.016 -17.685  0.00  0.00    -0.274 OA
HETATM   22  N           1     -33.043  -4.806 -16.549  0.00  0.00    -0.370 N 
HETATM   23  H           1     -33.989  -4.449 -16.497  0.00  0.00     0.159 HD
HETATM   24  H           1     -32.817  -5.699 -16.130  0.00  0.00     0.159 HD
ENDBRANCH  19  20
ENDBRANCH  18  19
ENDBRANCH  17  18
BRANCH  17  25
HETATM   25  N           1     -29.488  -8.169 -17.888  0.00  0.00    -0.066 N 
HETATM   26  H           1     -30.424  -8.367 -18.309  0.00  0.00     0.275 HD
HETATM   27  H           1     -28.738  -8.482 -18.544  0.00  0.00     0.275 HD
HETATM   28  H           1     -29.398  -8.684 -16.982  0.00  0.00     0.275 HD
ENDBRANCH  17  25
ENDBRANCH   4  17
TORSDOF 9
ENDMDL
MODEL 3
REMARK VINA RESULT:      -6.9      9.611     10.848
REMARK  9 active torsions:
REMARK  status: ('A' for Active; 'I' for Inactive)
REMARK    1  A    between atoms: C_1  and  C_6 
REMARK    2  A    between atoms: C_1  and  C_12 
REMARK    3  A    between atoms: C_2  and  C_24 
REMARK    4  A    between atoms: C_2  and  C_14 
REMARK    5  A    between atoms: C_6  and  C_16 
REMARK    6  A    between atoms: N_8  and  C_16 
REMARK       I    between atoms: N_11  and  C_12 
REMARK    7  A    between atoms: N_15  and  C_24 
REMARK       I    between atoms: N_15  and  C_17 
REMARK    8  A    between atoms: C_16  and  C_17 
REMARK    9  A    between atoms: C_22  and  C_24 
ROOT
HETATM    1  H           1     -27.511  -8.011 -17.132  0.00  0.00     0.163 HD
HETATM    2  O           1     -25.605  -7.103 -15.249  0.00  0.00    -0.271 OA
HETATM    3  N           1     -27.156  -7.105 -16.855  0.00  0.00    -0.344 N 
HETATM    4  C           1     -25.863  -6.980 -16.422  0.00  0.00     0.249 C 
ENDROOT
BRANCH   3   5
HETATM    5  C           1     -28.016  -5.939 -16.917  0.00  0.00     0.191 C 
BRANCH   5   6
HETATM    6  C           1     -29.266  -6.274 -17.721  0.00  0.00     0.094 C 
BRANCH   6   7
HETATM    7  C           1     -30.310  -5.228 -17.483  0.00  0.00     0.028 A 
HETATM    8  C           1     -30.225  -3.927 -17.918  0.00  0.00     0.114 A 
HETATM    9  N           1     -31.379  -3.333 -17.486  0.00  0.00    -0.360 N 
HETATM   10  C           1     -32.103  -4.281 -16.820  0.00  0.00     0.180 A 
HETATM   11  H           1     -31.657  -2.332 -17.639  0.00  0.00     0.166 HD
HETATM   12  N           1     -31.481  -5.437 -16.804  0.00  0.00    -0.354 N 
ATOM     13  HN          1     -31.802  -6.306 -16.376  1.00  0.00     0.166 HD
ENDBRANCH   6   7
ENDBRANCH   5   6
BRANCH   5  14
HETATM   14  C           1     -28.411  -5.532 -15.520  0.00  0.00     0.197 C 
HETATM   15  O           1     -28.114  -4.395 -15.092  0.00  0.00    -0.646 OA
HETATM   16  O           1     -29.036  -6.330 -14.788  0.00  0.00    -0.646 OA
ENDBRANCH   5  14
ENDBRANCH   3   5
BRANCH   4  17
HETATM   17  C           1     -24.761  -6.688 -17.411  0.00  0.00     0.275 C 
BRANCH  17  18
HETATM   18  C           1     -25.277  -6.902 -18.827  0.00  0.00     0.052 C 
BRANCH  18  19
HETATM   19  C           1     -24.139  -7.387 -19.715  0.00  0.00     0.105 C 
BRANCH  19  20
HETATM   20  C           1     -24.706  -7.995 -20.974  0.00  0.00     0.215 C 
HETATM   21  O           1     -25.898  -8.163 -21.080  0.00  0.00    -0.274 OA
HETATM   22  N           1     -23.871  -8.357 -21.996  0.00  0.00    -0.370 N 
HETATM   23  H           1     -24.251  -8.766 -22.841  0.00  0.00     0.159 HD
HETATM   24  H           1     -22.873  -8.217 -21.908  0.00  0.00     0.159 HD
ENDBRANCH  19  20
ENDBRANCH  18  19
ENDBRANCH  17  18
BRANCH  17  25
HETATM   25  N           1     -23.605  -7.609 -17.156  0.00  0.00    -0.066 N 
HETATM   26  H           1     -23.613  -7.911 -16.155  0.00  0.00     0.275 HD
HETATM   27  H           1     -23.685  -8.448 -17.773  0.00  0.00     0.275 HD
HETATM   28  H           1     -22.710  -7.109 -17.362  0.00  0.00     0.275 HD
ENDBRANCH  17  25
ENDBRANCH   4  17
TORSDOF 9
ENDMDL
MODEL 4
REMARK VINA RESULT:      -6.6      9.657     11.234
REMARK  9 active torsions:
REMARK  status: ('A' for Active; 'I' for Inactive)
REMARK    1  A    between atoms: C_1  and  C_6 
REMARK    2  A    between atoms: C_1  and  C_12 
REMARK    3  A    between atoms: C_2  and  C_24 
REMARK    4  A    between atoms: C_2  and  C_14 
REMARK    5  A    between atoms: C_6  and  C_16 
REMARK    6  A    between atoms: N_8  and  C_16 
REMARK       I    between atoms: N_11  and  C_12 
REMARK    7  A    between atoms: N_15  and  C_24 
REMARK       I    between atoms: N_15  and  C_17 
REMARK    8  A    between atoms: C_16  and  C_17 
REMARK    9  A    between atoms: C_22  and  C_24 
ROOT
HETATM    1  H           1     -26.778  -4.302 -18.271  0.00  0.00     0.163 HD
HETATM    2  O           1     -27.983  -4.058 -15.723  0.00  0.00    -0.271 OA
HETATM    3  N           1     -27.171  -4.951 -17.601  0.00  0.00    -0.344 N 
HETATM    4  C           1     -28.209  -4.560 -16.798  0.00  0.00     0.249 C 
ENDROOT
BRANCH   3   5
HETATM    5  C           1     -26.635  -6.294 -17.493  0.00  0.00     0.191 C 
BRANCH   5   6
HETATM    6  C           1     -25.386  -6.412 -18.356  0.00  0.00     0.094 C 
BRANCH   6   7
HETATM    7  C           1     -25.709  -7.175 -19.603  0.00  0.00     0.028 A 
HETATM    8  C           1     -24.773  -7.728 -20.445  0.00  0.00     0.114 A 
HETATM    9  N           1     -25.499  -8.321 -21.440  0.00  0.00    -0.360 N 
HETATM   10  C           1     -26.821  -8.109 -21.166  0.00  0.00     0.180 A 
HETATM   11  H           1     -25.112  -8.845 -22.263  0.00  0.00     0.166 HD
HETATM   12  N           1     -26.977  -7.419 -20.060  0.00  0.00    -0.354 N 
ATOM     13  HN          1     -27.856  -7.127 -19.632  1.00  0.00     0.166 HD
ENDBRANCH   6   7
ENDBRANCH   5   6
BRANCH   5  14
HETATM   14  C           1     -26.283  -6.580 -16.055  0.00  0.00     0.197 C 
HETATM   15  O           1     -26.940  -7.423 -15.406  0.00  0.00    -0.646 OA
HETATM   16  O           1     -25.335  -5.975 -15.511  0.00  0.00    -0.646 OA
ENDBRANCH   5  14
ENDBRANCH   3   5
BRANCH   4  17
HETATM   17  C           1     -29.633  -4.758 -17.254  0.00  0.00     0.275 C 
BRANCH  17  18
HETATM   18  C           1     -29.654  -5.656 -18.483  0.00  0.00     0.052 C 
BRANCH  18  19
HETATM   19  C           1     -30.617  -6.813 -18.252  0.00  0.00     0.105 C 
BRANCH  19  20
HETATM   20  C           1     -29.851  -8.114 -18.250  0.00  0.00     0.215 C 
HETATM   21  O           1     -29.766  -8.765 -19.264  0.00  0.00    -0.274 OA
HETATM   22  N           1     -29.253  -8.555 -17.100  0.00  0.00    -0.370 N 
HETATM   23  H           1     -28.741  -9.427 -17.099  0.00  0.00     0.159 HD
HETATM   24  H           1     -29.325  -8.010 -16.251  0.00  0.00     0.159 HD
ENDBRANCH  19  20
ENDBRANCH  18  19
ENDBRANCH  17  18
BRANCH  17  25
HETATM   25  N           1     -30.237  -3.428 -17.596  0.00  0.00    -0.066 N 
HETATM   26  H           1     -30.547  -3.433 -18.595  0.00  0.00     0.275 HD
HETATM   27  H           1     -31.060  -3.250 -16.977  0.00  0.00     0.275 HD
HETATM   28  H           1     -29.524  -2.677 -17.456  0.00  0.00     0.275 HD
ENDBRANCH  17  25
ENDBRANCH   4  17
TORSDOF 9
ENDMDL
MODEL 5
REMARK VINA RESULT:      -6.5     13.314     16.340
REMARK  9 active torsions:
REMARK  status: ('A' for Active; 'I' for Inactive)
REMARK    1  A    between atoms: C_1  and  C_6 
REMARK    2  A    between atoms: C_1  and  C_12 
REMARK    3  A    between atoms: C_2  and  C_24 
REMARK    4  A    between atoms: C_2  and  C_14 
REMARK    5  A    between atoms: C_6  and  C_16 
REMARK    6  A    between atoms: N_8  and  C_16 
REMARK       I    between atoms: N_11  and  C_12 
REMARK    7  A    between atoms: N_15  and  C_24 
REMARK       I    between atoms: N_15  and  C_17 
REMARK    8  A    between atoms: C_16  and  C_17 
REMARK    9  A    between atoms: C_22  and  C_24 
ROOT
HETATM    1  H           1     -20.799  -7.524  -7.470  0.00  0.00     0.163 HD
HETATM    2  O           1     -19.504  -5.009  -7.547  0.00  0.00    -0.271 OA
HETATM    3  N           1     -20.679  -6.762  -6.815  0.00  0.00    -0.344 N 
HETATM    4  C           1     -20.585  -5.475  -7.273  0.00  0.00     0.249 C 
ENDROOT
BRANCH   3   5
HETATM    5  C           1     -20.606  -7.033  -5.392  0.00  0.00     0.191 C 
BRANCH   5   6
HETATM    6  C           1     -21.992  -6.889  -4.778  0.00  0.00     0.094 C 
BRANCH   6   7
HETATM    7  C           1     -21.911  -7.118  -3.301  0.00  0.00     0.028 A 
HETATM    8  C           1     -22.132  -6.153  -2.348  0.00  0.00     0.114 A 
HETATM    9  N           1     -21.956  -6.790  -1.151  0.00  0.00    -0.360 N 
HETATM   10  C           1     -21.642  -8.091  -1.421  0.00  0.00     0.180 A 
HETATM   11  H           1     -22.045  -6.357  -0.198  0.00  0.00     0.166 HD
HETATM   12  N           1     -21.608  -8.319  -2.714  0.00  0.00    -0.354 N 
ATOM     13  HN          1     -21.401  -9.201  -3.182  1.00  0.00     0.166 HD
ENDBRANCH   6   7
ENDBRANCH   5   6
BRANCH   5  14
HETATM   14  C           1     -20.100  -8.437  -5.174  0.00  0.00     0.197 C 
HETATM   15  O           1     -20.720  -9.407  -5.661  0.00  0.00    -0.646 OA
HETATM   16  O           1     -19.061  -8.631  -4.507  0.00  0.00    -0.646 OA
ENDBRANCH   5  14
ENDBRANCH   3   5
BRANCH   4  17
HETATM   17  C           1     -21.830  -4.638  -7.434  0.00  0.00     0.275 C 
BRANCH  17  18
HETATM   18  C           1     -22.342  -4.757  -8.863  0.00  0.00     0.052 C 
BRANCH  18  19
HETATM   19  C           1     -22.950  -3.430  -9.298  0.00  0.00     0.105 C 
BRANCH  19  20
HETATM   20  C           1     -24.284  -3.679  -9.958  0.00  0.00     0.215 C 
HETATM   21  O           1     -24.632  -2.996 -10.892  0.00  0.00    -0.274 OA
HETATM   22  N           1     -25.099  -4.678  -9.499  0.00  0.00    -0.370 N 
HETATM   23  H           1     -25.994  -4.844  -9.941  0.00  0.00     0.159 HD
HETATM   24  H           1     -24.809  -5.249  -8.716  0.00  0.00     0.159 HD
ENDBRANCH  19  20
ENDBRANCH  18  19
ENDBRANCH  17  18
BRANCH  17  25
HETATM   25  N           1     -21.509  -3.203  -7.136  0.00  0.00    -0.066 N 
HETATM   26  H           1     -20.488  -3.108  -6.938  0.00  0.00     0.275 HD
HETATM   27  H           1     -21.760  -2.612  -7.960  0.00  0.00     0.275 HD
HETATM   28  H           1     -22.057  -2.891  -6.303  0.00  0.00     0.275 HD
ENDBRANCH  17  25
ENDBRANCH   4  17
TORSDOF 9
ENDMDL
MODEL 6
REMARK VINA RESULT:      -6.4     13.157     14.966
REMARK  9 active torsions:
REMARK  status: ('A' for Active; 'I' for Inactive)
REMARK    1  A    between atoms: C_1  and  C_6 
REMARK    2  A    between atoms: C_1  and  C_12 
REMARK    3  A    between atoms: C_2  and  C_24 
REMARK    4  A    between atoms: C_2  and  C_14 
REMARK    5  A    between atoms: C_6  and  C_16 
REMARK    6  A    between atoms: N_8  and  C_16 
REMARK       I    between atoms: N_11  and  C_12 
REMARK    7  A    between atoms: N_15  and  C_24 
REMARK       I    between atoms: N_15  and  C_17 
REMARK    8  A    between atoms: C_16  and  C_17 
REMARK    9  A    between atoms: C_22  and  C_24 
ROOT
HETATM    1  H           1     -20.130  -4.604  -6.006  0.00  0.00     0.163 HD
HETATM    2  O           1     -19.615  -7.375  -6.264  0.00  0.00    -0.271 OA
HETATM    3  N           1     -20.537  -5.360  -6.542  0.00  0.00    -0.344 N 
HETATM    4  C           1     -20.541  -6.633  -6.036  0.00  0.00     0.249 C 
ENDROOT
BRANCH   3   5
HETATM    5  C           1     -21.118  -5.095  -7.843  0.00  0.00     0.191 C 
BRANCH   5   6
HETATM    6  C           1     -22.294  -4.138  -7.688  0.00  0.00     0.094 C 
BRANCH   6   7
HETATM    7  C           1     -23.137  -4.177  -8.924  0.00  0.00     0.028 A 
HETATM    8  C           1     -24.281  -3.438  -9.113  0.00  0.00     0.114 A 
HETATM    9  N           1     -24.721  -3.779 -10.362  0.00  0.00    -0.360 N 
HETATM   10  C           1     -23.843  -4.693 -10.870  0.00  0.00     0.180 A 
HETATM   11  H           1     -25.577  -3.406 -10.842  0.00  0.00     0.166 HD
HETATM   12  N           1     -22.874  -4.953 -10.023  0.00  0.00    -0.354 N 
ATOM     13  HN          1     -22.092  -5.595 -10.154  1.00  0.00     0.166 HD
ENDBRANCH   6   7
ENDBRANCH   5   6
BRANCH   5  14
HETATM   14  C           1     -20.078  -4.473  -8.740  0.00  0.00     0.197 C 
HETATM   15  O           1     -19.945  -4.875  -9.916  0.00  0.00    -0.646 OA
HETATM   16  O           1     -19.348  -3.555  -8.309  0.00  0.00    -0.646 OA
ENDBRANCH   5  14
ENDBRANCH   3   5
BRANCH   4  17
HETATM   17  C           1     -21.700  -7.108  -5.195  0.00  0.00     0.275 C 
BRANCH  17  18
HETATM   18  C           1     -21.715  -6.351  -3.875  0.00  0.00     0.052 C 
BRANCH  18  19
HETATM   19  C           1     -21.008  -7.176  -2.808  0.00  0.00     0.105 C 
BRANCH  19  20
HETATM   20  C           1     -21.881  -7.270  -1.581  0.00  0.00     0.215 C 
HETATM   21  O           1     -22.619  -6.357  -1.294  0.00  0.00    -0.274 OA
HETATM   22  N           1     -21.839  -8.389  -0.794  0.00  0.00    -0.370 N 
HETATM   23  H           1     -22.425  -8.452   0.029  0.00  0.00     0.159 HD
HETATM   24  H           1     -21.221  -9.153  -1.034  0.00  0.00     0.159 HD
ENDBRANCH  19  20
ENDBRANCH  18  19
ENDBRANCH  17  18
BRANCH  17  25
HETATM   25  N           1     -21.553  -8.577  -4.928  0.00  0.00    -0.066 N 
HETATM   26  H           1     -20.909  -8.998  -5.634  0.00  0.00     0.275 HD
HETATM   27  H           1     -21.161  -8.718  -3.970  0.00  0.00     0.275 HD
HETATM   28  H           1     -22.490  -9.037  -4.992  0.00  0.00     0.275 HD
ENDBRANCH  17  25
ENDBRANCH   4  17
TORSDOF 9
ENDMDL
MODEL 7
REMARK VINA RESULT:      -6.2     13.498     16.368
REMARK  9 active torsions:
REMARK  status: ('A' for Active; 'I' for Inactive)
REMARK    1  A    between atoms: C_1  and  C_6 
REMARK    2  A    between atoms: C_1  and  C_12 
REMARK    3  A    between atoms: C_2  and  C_24 
REMARK    4  A    between atoms: C_2  and  C_14 
REMARK    5  A    between atoms: C_6  and  C_16 
REMARK    6  A    between atoms: N_8  and  C_16 
REMARK       I    between atoms: N_11  and  C_12 
REMARK    7  A    between atoms: N_15  and  C_24 
REMARK       I    between atoms: N_15  and  C_17 
REMARK    8  A    between atoms: C_16  and  C_17 
REMARK    9  A    between atoms: C_22  and  C_24 
ROOT
HETATM    1  H           1     -19.340  -6.719  -6.776  0.00  0.00     0.163 HD
HETATM    2  O           1     -20.474  -4.182  -6.243  0.00  0.00    -0.271 OA
HETATM    3  N           1     -20.268  -6.385  -6.548  0.00  0.00    -0.344 N 
HETATM    4  C           1     -20.665  -5.139  -6.955  0.00  0.00     0.249 C 
ENDROOT
BRANCH   3   5
HETATM    5  C           1     -21.176  -7.225  -5.792  0.00  0.00     0.191 C 
BRANCH   5   6
HETATM    6  C           1     -20.372  -8.169  -4.907  0.00  0.00     0.094 C 
BRANCH   6   7
HETATM    7  C           1     -20.969  -9.541  -4.967  0.00  0.00     0.028 A 
HETATM    8  C           1     -21.771 -10.088  -3.994  0.00  0.00     0.114 A 
HETATM    9  N           1     -22.085 -11.336  -4.454  0.00  0.00    -0.360 N 
HETATM   10  C           1     -21.474 -11.493  -5.665  0.00  0.00     0.180 A 
HETATM   11  H           1     -22.687 -12.045  -3.965  0.00  0.00     0.166 HD
HETATM   12  N           1     -20.793 -10.422  -6.002  0.00  0.00    -0.354 N 
ATOM     13  HN          1     -20.248 -10.277  -6.852  1.00  0.00     0.166 HD
ENDBRANCH   6   7
ENDBRANCH   5   6
BRANCH   5  14
HETATM   14  C           1     -22.061  -6.359  -4.931  0.00  0.00     0.197 C 
HETATM   15  O           1     -21.670  -5.990  -3.803  0.00  0.00    -0.646 OA
HETATM   16  O           1     -23.187  -6.009  -5.346  0.00  0.00    -0.646 OA
ENDBRANCH   5  14
ENDBRANCH   3   5
BRANCH   4  17
HETATM   17  C           1     -21.341  -4.961  -8.292  0.00  0.00     0.275 C 
BRANCH  17  18
HETATM   18  C           1     -20.512  -4.025  -9.161  0.00  0.00     0.052 C 
BRANCH  18  19
HETATM   19  C           1     -20.527  -4.523 -10.601  0.00  0.00     0.105 C 
BRANCH  19  20
HETATM   20  C           1     -21.763  -4.011 -11.299  0.00  0.00     0.215 C 
HETATM   21  O           1     -22.183  -2.905 -11.050  0.00  0.00    -0.274 OA
HETATM   22  N           1     -22.408  -4.797 -12.214  0.00  0.00    -0.370 N 
HETATM   23  H           1     -23.237  -4.454 -12.682  0.00  0.00     0.159 HD
HETATM   24  H           1     -22.058  -5.723 -12.423  0.00  0.00     0.159 HD
ENDBRANCH  19  20
ENDBRANCH  18  19
ENDBRANCH  17  18
BRANCH  17  25
HETATM   25  N           1     -22.706  -4.374  -8.087  0.00  0.00    -0.066 N 
HETATM   26  H           1     -22.620  -3.450  -7.607  0.00  0.00     0.275 HD
HETATM   27  H           1     -23.172  -4.243  -9.013  0.00  0.00     0.275 HD
HETATM   28  H           1     -23.278  -5.021  -7.497  0.00  0.00     0.275 HD
ENDBRANCH  17  25
ENDBRANCH   4  17
TORSDOF 9
ENDMDL
MODEL 8
REMARK VINA RESULT:      -6.1     13.581     15.466
REMARK  9 active torsions:
REMARK  status: ('A' for Active; 'I' for Inactive)
REMARK    1  A    between atoms: C_1  and  C_6 
REMARK    2  A    between atoms: C_1  and  C_12 
REMARK    3  A    between atoms: C_2  and  C_24 
REMARK    4  A    between atoms: C_2  and  C_14 
REMARK    5  A    between atoms: C_6  and  C_16 
REMARK    6  A    between atoms: N_8  and  C_16 
REMARK       I    between atoms: N_11  and  C_12 
REMARK    7  A    between atoms: N_15  and  C_24 
REMARK       I    between atoms: N_15  and  C_17 
REMARK    8  A    between atoms: C_16  and  C_17 
REMARK    9  A    between atoms: C_22  and  C_24 
ROOT
HETATM    1  H           1     -21.871  -7.899  -6.300  0.00  0.00     0.163 HD
HETATM    2  O           1     -23.559  -6.120  -4.889  0.00  0.00    -0.271 OA
HETATM    3  N           1     -21.861  -6.906  -6.108  0.00  0.00    -0.344 N 
HETATM    4  C           1     -22.392  -6.429  -4.939  0.00  0.00     0.249 C 
ENDROOT
BRANCH   3   5
HETATM    5  C           1     -21.285  -5.987  -7.071  0.00  0.00     0.191 C 
BRANCH   5   6
HETATM    6  C           1     -21.880  -4.600  -6.866  0.00  0.00     0.094 C 
BRANCH   6   7
HETATM    7  C           1     -22.595  -4.173  -8.110  0.00  0.00     0.028 A 
HETATM    8  C           1     -21.989  -3.961  -9.326  0.00  0.00     0.114 A 
HETATM    9  N           1     -23.001  -3.590 -10.166  0.00  0.00    -0.360 N 
HETATM   10  C           1     -24.158  -3.592  -9.441  0.00  0.00     0.180 A 
HETATM   11  H           1     -22.906  -3.347 -11.183  0.00  0.00     0.166 HD
HETATM   12  N           1     -23.943  -3.942  -8.193  0.00  0.00    -0.354 N 
ATOM     13  HN          1     -24.632  -4.024  -7.446  1.00  0.00     0.166 HD
ENDBRANCH   6   7
ENDBRANCH   5   6
BRANCH   5  14
HETATM   14  C           1     -19.790  -5.928  -6.876  0.00  0.00     0.197 C 
HETATM   15  O           1     -19.199  -4.827  -6.902  0.00  0.00    -0.646 OA
HETATM   16  O           1     -19.142  -6.980  -6.687  0.00  0.00    -0.646 OA
ENDBRANCH   5  14
ENDBRANCH   3   5
BRANCH   4  17
HETATM   17  C           1     -21.521  -6.289  -3.716  0.00  0.00     0.275 C 
BRANCH  17  18
HETATM   18  C           1     -20.823  -7.613  -3.434  0.00  0.00     0.052 C 
BRANCH  18  19
HETATM   19  C           1     -20.601  -7.761  -1.934  0.00  0.00     0.105 C 
BRANCH  19  20
HETATM   20  C           1     -20.958  -9.164  -1.508  0.00  0.00     0.215 C 
HETATM   21  O           1     -20.092  -9.999  -1.394  0.00  0.00    -0.274 OA
HETATM   22  N           1     -22.262  -9.490  -1.250  0.00  0.00    -0.370 N 
HETATM   23  H           1     -22.501 -10.431  -0.964  0.00  0.00     0.159 HD
HETATM   24  H           1     -22.987  -8.792  -1.346  0.00  0.00     0.159 HD
ENDBRANCH  19  20
ENDBRANCH  18  19
ENDBRANCH  17  18
BRANCH  17  25
HETATM   25  N           1     -22.370  -5.911  -2.538  0.00  0.00    -0.066 N 
HETATM   26  H           1     -22.250  -6.620  -1.780  0.00  0.00     0.275 HD
HETATM   27  H           1     -22.079  -4.972  -2.187  0.00  0.00     0.275 HD
HETATM   28  H           1     -23.374  -5.880  -2.830  0.00  0.00     0.275 HD
ENDBRANCH  17  25
ENDBRANCH   4  17
TORSDOF 9
ENDMDL
MODEL 9
REMARK VINA RESULT:      -5.7     15.540     18.192
REMARK  9 active torsions:
REMARK  status: ('A' for Active; 'I' for Inactive)
REMARK    1  A    between atoms: C_1  and  C_6 
REMARK    2  A    between atoms: C_1  and  C_12 
REMARK    3  A    between atoms: C_2  and  C_24 
REMARK    4  A    between atoms: C_2  and  C_14 
REMARK    5  A    between atoms: C_6  and  C_16 
REMARK    6  A    between atoms: N_8  and  C_16 
REMARK       I    between atoms: N_11  and  C_12 
REMARK    7  A    between atoms: N_15  and  C_24 
REMARK       I    between atoms: N_15  and  C_17 
REMARK    8  A    between atoms: C_16  and  C_17 
REMARK    9  A    between atoms: C_22  and  C_24 
ROOT
HETATM    1  H           1     -20.021  -7.047  -1.919  0.00  0.00     0.163 HD
HETATM    2  O           1     -22.500  -5.800  -2.469  0.00  0.00    -0.271 OA
HETATM    3  N           1     -20.963  -7.374  -2.085  0.00  0.00    -0.344 N 
HETATM    4  C           1     -21.794  -6.672  -2.917  0.00  0.00     0.249 C 
ENDROOT
BRANCH   3   5
HETATM    5  C           1     -21.434  -8.587  -1.444  0.00  0.00     0.191 C 
BRANCH   5   6
HETATM    6  C           1     -20.303  -9.606  -1.396  0.00  0.00     0.094 C 
BRANCH   6   7
HETATM    7  C           1     -19.710  -9.761  -2.762  0.00  0.00     0.028 A 
HETATM    8  C           1     -18.435  -9.381  -3.108  0.00  0.00     0.114 A 
HETATM    9  N           1     -18.317  -9.702  -4.432  0.00  0.00    -0.360 N 
HETATM   10  C           1     -19.503 -10.253  -4.827  0.00  0.00     0.180 A 
HETATM   11  H           1     -17.470  -9.552  -5.034  0.00  0.00     0.166 HD
HETATM   12  N           1     -20.364 -10.302  -3.837  0.00  0.00    -0.354 N 
ATOM     13  HN          1     -21.317 -10.666  -3.864  1.00  0.00     0.166 HD
ENDBRANCH   6   7
ENDBRANCH   5   6
BRANCH   5  14
HETATM   14  C           1     -21.887  -8.270  -0.042  0.00  0.00     0.197 C 
HETATM   15  O           1     -23.053  -7.868   0.163  0.00  0.00    -0.646 OA
HETATM   16  O           1     -21.098  -8.409   0.918  0.00  0.00    -0.646 OA
ENDBRANCH   5  14
ENDBRANCH   3   5
BRANCH   4  17
HETATM   17  C           1     -21.829  -6.987  -4.392  0.00  0.00     0.275 C 
BRANCH  17  18
HETATM   18  C           1     -20.481  -6.652  -5.016  0.00  0.00     0.052 C 
BRANCH  18  19
HETATM   19  C           1     -20.479  -5.198  -5.470  0.00  0.00     0.105 C 
BRANCH  19  20
HETATM   20  C           1     -20.302  -5.138  -6.968  0.00  0.00     0.215 C 
HETATM   21  O           1     -21.137  -5.623  -7.694  0.00  0.00    -0.274 OA
HETATM   22  N           1     -19.197  -4.535  -7.503  0.00  0.00    -0.370 N 
HETATM   23  H           1     -19.077  -4.495  -8.507  0.00  0.00     0.159 HD
HETATM   24  H           1     -18.497  -4.129  -6.895  0.00  0.00     0.159 HD
ENDBRANCH  19  20
ENDBRANCH  18  19
ENDBRANCH  17  18
BRANCH  17  25
HETATM   25  N           1     -22.902  -6.172  -5.052  0.00  0.00    -0.066 N 
HETATM   26  H           1     -22.469  -5.351  -5.533  0.00  0.00     0.275 HD
HETATM   27  H           1     -23.406  -6.761  -5.752  0.00  0.00     0.275 HD
HETATM   28  H           1     -23.577  -5.835  -4.328  0.00  0.00     0.275 HD
ENDBRANCH  17  25
ENDBRANCH   4  17
TORSDOF 9
ENDMDL
