MODEL 1
REMARK VINA RESULT:      -6.3      0.000      0.000
REMARK  15 active torsions:
REMARK  status: ('A' for Active; 'I' for Inactive)
REMARK    1  A    between atoms: C_2  and  C_28 
REMARK    2  A    between atoms: C_2  and  C_3 
REMARK    3  A    between atoms: C_2  and  N_24 
REMARK    4  A    between atoms: N_13  and  C_15 
REMARK    5  A    between atoms: N_13  and  C_14 
REMARK    6  A    between atoms: C_14  and  C_28 
REMARK    7  A    between atoms: C_15  and  C_36 
REMARK    8  A    between atoms: C_15  and  C_16 
REMARK    9  A    between atoms: C_20  and  C_21 
REMARK   10  A    between atoms: C_20  and  C_25 
REMARK   11  A    between atoms: C_21  and  C_22 
REMARK   12  A    between atoms: C_22  and  C_23 
REMARK   13  A    between atoms: C_22  and  N_30 
REMARK       I    between atoms: C_23  and  N_24 
REMARK   14  A    between atoms: C_25  and  N_26 
REMARK       I    between atoms: N_26  and  C_33 
REMARK       I    between atoms: N_31  and  C_33 
REMARK   15  A    between atoms: Se_35  and  C_36 
ROOT
HETATM    1  H           1     -20.377  -4.739  -4.372  0.00  0.00     0.163 HD
HETATM    2  C           1     -21.425  -6.514  -4.181  0.00  0.00     0.249 C 
HETATM    3  N           1     -20.878  -5.465  -4.870  0.00  0.00    -0.345 N 
HETATM    4  O           1     -22.022  -7.380  -4.775  0.00  0.00    -0.271 OA
ENDROOT
BRANCH   2   5
HETATM    5  C           1     -21.285  -6.587  -2.681  0.00  0.00     0.274 C 
BRANCH   5   6
HETATM    6  C           1     -21.427  -8.034  -2.227  0.00  0.00     0.044 C 
BRANCH   6   7
HETATM    7  C           1     -20.045  -8.629  -1.987  0.00  0.00     0.023 C 
BRANCH   7   8
HETATM    8  C           1     -19.843  -9.828  -2.904  0.00  0.00     0.138 C 
BRANCH   8   9
HETATM    9  N           1     -18.870  -9.486  -3.952  0.00  0.00    -0.227 N 
HETATM   10  H           1     -17.889  -9.219  -3.690  0.00  0.00     0.177 HD
HETATM   11  C           1     -19.216  -9.512  -5.169  0.00  0.00     0.665 C 
HETATM   12  N           1     -20.431  -9.842  -5.493  0.00  0.00    -0.235 N 
HETATM   13  N           1     -18.379  -9.218  -6.072  0.00  0.00    -0.235 N 
HETATM   14  H           1     -21.122 -10.086  -4.748  0.00  0.00     0.174 HD
HETATM   15  H           1     -20.717  -9.864  -6.498  0.00  0.00     0.174 HD
HETATM   16  H           1     -18.666  -9.240  -7.081  0.00  0.00     0.174 HD
HETATM   17  H           1     -17.397  -8.951  -5.811  0.00  0.00     0.174 HD
ENDBRANCH   8   9
ENDBRANCH   7   8
ENDBRANCH   6   7
ENDBRANCH   5   6
BRANCH   5  18
HETATM   18  N           1     -22.354  -5.754  -2.038  0.00  0.00    -0.067 N 
HETATM   19  H           1     -22.606  -4.961  -2.670  0.00  0.00     0.275 HD
HETATM   20  H           1     -23.200  -6.345  -1.868  0.00  0.00     0.275 HD
HETATM   21  H           1     -22.003  -5.378  -1.128  0.00  0.00     0.275 HD
ENDBRANCH   5  18
ENDBRANCH   2   5
BRANCH   3  22
HETATM   22  C           1     -21.012  -5.395  -6.312  0.00  0.00     0.187 C 
BRANCH  22  23
HETATM   23  C           1     -21.546  -4.023  -6.705  0.00  0.00     0.066 C 
BRANCH  23  24
HETATM   24  C           1     -22.813  -4.189  -7.535  0.00  0.00     0.273 C 
BRANCH  24  25
HETATM   25  N           1     -22.461  -4.568  -8.877  0.00  0.00     0.098 N 
HETATM   26  H           1     -22.908  -5.455  -9.108  0.00  0.00     0.317 HD
BRANCH  25  27
HETATM   27  C           1     -22.945  -3.542  -9.761  0.00  0.00     0.320 C 
BRANCH  27  28
HETATM   28  C           1     -21.990  -3.396 -10.939  0.00  0.00     0.049 C 
BRANCH  28  29
HETATM   29 Se           1     -20.376  -4.434 -10.602  0.00  0.00     0.000 Se
HETATM   30  H           1     -20.841  -5.616 -11.345  0.00  0.00     0.000 HD
ENDBRANCH  28  29
ENDBRANCH  27  28
BRANCH  27  31
HETATM   31  C           1     -24.315  -3.920 -10.267  0.00  0.00     0.207 C 
HETATM   32  O           1     -24.769  -5.063 -10.050  0.00  0.00    -0.646 OA
HETATM   33  O           1     -24.997  -3.087 -10.905  0.00  0.00    -0.646 OA
ENDBRANCH  27  31
ENDBRANCH  25  27
ENDBRANCH  24  25
ENDBRANCH  23  24
ENDBRANCH  22  23
BRANCH  22  34
HETATM   34  C           1     -19.665  -5.613  -6.954  0.00  0.00     0.196 C 
HETATM   35  O           1     -19.295  -6.769  -7.253  0.00  0.00    -0.646 OA
HETATM   36  O           1     -18.917  -4.638  -7.187  0.00  0.00    -0.646 OA
ENDBRANCH  22  34
ENDBRANCH   3  22
TORSDOF 15
ENDMDL
MODEL 2
REMARK VINA RESULT:      -6.2     14.201     17.251
REMARK  15 active torsions:
REMARK  status: ('A' for Active; 'I' for Inactive)
REMARK    1  A    between atoms: C_2  and  C_28 
REMARK    2  A    between atoms: C_2  and  C_3 
REMARK    3  A    between atoms: C_2  and  N_24 
REMARK    4  A    between atoms: N_13  and  C_15 
REMARK    5  A    between atoms: N_13  and  C_14 
REMARK    6  A    between atoms: C_14  and  C_28 
REMARK    7  A    between atoms: C_15  and  C_36 
REMARK    8  A    between atoms: C_15  and  C_16 
REMARK    9  A    between atoms: C_20  and  C_21 
REMARK   10  A    between atoms: C_20  and  C_25 
REMARK   11  A    between atoms: C_21  and  C_22 
REMARK   12  A    between atoms: C_22  and  C_23 
REMARK   13  A    between atoms: C_22  and  N_30 
REMARK       I    between atoms: C_23  and  N_24 
REMARK   14  A    between atoms: C_25  and  N_26 
REMARK       I    between atoms: N_26  and  C_33 
REMARK       I    between atoms: N_31  and  C_33 
REMARK   15  A    between atoms: Se_35  and  C_36 
ROOT
HETATM    1  H           1     -35.291   0.059 -11.887  0.00  0.00     0.163 HD
HETATM    2  C           1     -36.902  -0.055 -13.182  0.00  0.00     0.249 C 
HETATM    3  N           1     -36.264  -0.207 -11.980  0.00  0.00    -0.345 N 
HETATM    4  O           1     -38.062  -0.373 -13.293  0.00  0.00    -0.271 OA
ENDROOT
BRANCH   2   5
HETATM    5  C           1     -36.156   0.507 -14.367  0.00  0.00     0.274 C 
BRANCH   5   6
HETATM    6  C           1     -36.426  -0.356 -15.593  0.00  0.00     0.044 C 
BRANCH   6   7
HETATM    7  C           1     -35.106  -0.708 -16.268  0.00  0.00     0.023 C 
BRANCH   7   8
HETATM    8  C           1     -35.273  -1.991 -17.072  0.00  0.00     0.138 C 
BRANCH   8   9
HETATM    9  N           1     -34.703  -3.119 -16.319  0.00  0.00    -0.227 N 
HETATM   10  H           1     -35.203  -3.492 -15.475  0.00  0.00     0.177 HD
HETATM   11  C           1     -33.611  -3.639 -16.690  0.00  0.00     0.665 C 
HETATM   12  N           1     -32.992  -3.177 -17.736  0.00  0.00    -0.235 N 
HETATM   13  N           1     -33.120  -4.610 -16.043  0.00  0.00    -0.235 N 
HETATM   14  H           1     -33.397  -2.375 -18.270  0.00  0.00     0.174 HD
HETATM   15  H           1     -32.090  -3.607 -18.042  0.00  0.00     0.174 HD
HETATM   16  H           1     -32.215  -5.043 -16.351  0.00  0.00     0.174 HD
HETATM   17  H           1     -33.620  -4.984 -15.198  0.00  0.00     0.174 HD
ENDBRANCH   8   9
ENDBRANCH   7   8
ENDBRANCH   6   7
ENDBRANCH   5   6
BRANCH   5  18
HETATM   18  N           1     -34.685   0.513 -14.075  0.00  0.00    -0.067 N 
HETATM   19  H           1     -34.360  -0.465 -13.902  0.00  0.00     0.275 HD
HETATM   20  H           1     -34.170   0.911 -14.893  0.00  0.00     0.275 HD
HETATM   21  H           1     -34.501   1.097 -13.228  0.00  0.00     0.275 HD
ENDBRANCH   5  18
ENDBRANCH   2   5
BRANCH   3  22
HETATM   22  C           1     -36.980  -0.747 -10.841  0.00  0.00     0.187 C 
BRANCH  22  23
HETATM   23  C           1     -36.251  -1.979 -10.322  0.00  0.00     0.066 C 
BRANCH  23  24
HETATM   24  C           1     -34.825  -1.990 -10.857  0.00  0.00     0.273 C 
BRANCH  24  25
HETATM   25  N           1     -34.210  -3.256 -10.560  0.00  0.00     0.098 N 
HETATM   26  H           1     -34.935  -3.954 -10.391  0.00  0.00     0.317 HD
BRANCH  25  27
HETATM   27  C           1     -33.430  -3.642 -11.705  0.00  0.00     0.320 C 
BRANCH  27  28
HETATM   28  C           1     -32.932  -5.070 -11.522  0.00  0.00     0.049 C 
BRANCH  28  29
HETATM   29 Se           1     -34.240  -6.089 -10.498  0.00  0.00     0.000 Se
HETATM   30  H           1     -34.987  -4.902 -10.051  0.00  0.00     0.000 HD
ENDBRANCH  28  29
ENDBRANCH  27  28
BRANCH  27  31
HETATM   31  C           1     -34.286  -3.563 -12.946  0.00  0.00     0.207 C 
HETATM   32  O           1     -34.551  -2.452 -13.454  0.00  0.00    -0.646 OA
HETATM   33  O           1     -34.730  -4.610 -13.466  0.00  0.00    -0.646 OA
ENDBRANCH  27  31
ENDBRANCH  25  27
ENDBRANCH  24  25
ENDBRANCH  23  24
ENDBRANCH  22  23
BRANCH  22  34
HETATM   34  C           1     -37.050   0.294  -9.752  0.00  0.00     0.196 C 
HETATM   35  O           1     -36.343   0.177  -8.728  0.00  0.00    -0.646 OA
HETATM   36  O           1     -37.816   1.276  -9.874  0.00  0.00    -0.646 OA
ENDBRANCH  22  34
ENDBRANCH   3  22
TORSDOF 15
ENDMDL
MODEL 3
REMARK VINA RESULT:      -6.0      3.340      7.549
REMARK  15 active torsions:
REMARK  status: ('A' for Active; 'I' for Inactive)
REMARK    1  A    between atoms: C_2  and  C_28 
REMARK    2  A    between atoms: C_2  and  C_3 
REMARK    3  A    between atoms: C_2  and  N_24 
REMARK    4  A    between atoms: N_13  and  C_15 
REMARK    5  A    between atoms: N_13  and  C_14 
REMARK    6  A    between atoms: C_14  and  C_28 
REMARK    7  A    between atoms: C_15  and  C_36 
REMARK    8  A    between atoms: C_15  and  C_16 
REMARK    9  A    between atoms: C_20  and  C_21 
REMARK   10  A    between atoms: C_20  and  C_25 
REMARK   11  A    between atoms: C_21  and  C_22 
REMARK   12  A    between atoms: C_22  and  C_23 
REMARK   13  A    between atoms: C_22  and  N_30 
REMARK       I    between atoms: C_23  and  N_24 
REMARK   14  A    between atoms: C_25  and  N_26 
REMARK       I    between atoms: N_26  and  C_33 
REMARK       I    between atoms: N_31  and  C_33 
REMARK   15  A    between atoms: Se_35  and  C_36 
ROOT
HETATM    1  H           1     -20.334  -5.806  -3.375  0.00  0.00     0.163 HD
HETATM    2  C           1     -21.088  -6.867  -4.985  0.00  0.00     0.249 C 
HETATM    3  N           1     -20.817  -6.649  -3.660  0.00  0.00    -0.345 N 
HETATM    4  O           1     -21.666  -7.872  -5.325  0.00  0.00    -0.271 OA
ENDROOT
BRANCH   2   5
HETATM    5  C           1     -20.665  -5.853  -6.019  0.00  0.00     0.274 C 
BRANCH   5   6
HETATM    6  C           1     -21.899  -5.287  -6.710  0.00  0.00     0.044 C 
BRANCH   6   7
HETATM    7  C           1     -21.558  -3.939  -7.334  0.00  0.00     0.023 C 
BRANCH   7   8
HETATM    8  C           1     -22.049  -3.908  -8.775  0.00  0.00     0.138 C 
BRANCH   8   9
HETATM    9  N           1     -23.447  -3.456  -8.808  0.00  0.00    -0.227 N 
HETATM   10  H           1     -23.772  -2.706  -8.149  0.00  0.00     0.177 HD
HETATM   11  C           1     -24.260  -3.971  -9.630  0.00  0.00     0.665 C 
HETATM   12  N           1     -23.858  -4.900 -10.447  0.00  0.00    -0.235 N 
HETATM   13  N           1     -25.464  -3.582  -9.660  0.00  0.00    -0.235 N 
HETATM   14  H           1     -22.863  -5.221 -10.423  0.00  0.00     0.174 HD
HETATM   15  H           1     -24.528  -5.325 -11.126  0.00  0.00     0.174 HD
HETATM   16  H           1     -26.137  -4.009 -10.342  0.00  0.00     0.174 HD
HETATM   17  H           1     -25.789  -2.832  -9.000  0.00  0.00     0.174 HD
ENDBRANCH   8   9
ENDBRANCH   7   8
ENDBRANCH   6   7
ENDBRANCH   5   6
BRANCH   5  18
HETATM   18  N           1     -19.782  -6.514  -7.035  0.00  0.00    -0.067 N 
HETATM   19  H           1     -19.538  -5.828  -7.784  0.00  0.00     0.275 HD
HETATM   20  H           1     -18.907  -6.848  -6.571  0.00  0.00     0.275 HD
HETATM   21  H           1     -20.286  -7.328  -7.457  0.00  0.00     0.275 HD
ENDBRANCH   5  18
ENDBRANCH   2   5
BRANCH   3  22
HETATM   22  C           1     -21.224  -7.623  -2.667  0.00  0.00     0.187 C 
BRANCH  22  23
HETATM   23  C           1     -19.988  -8.243  -2.029  0.00  0.00     0.066 C 
BRANCH  23  24
HETATM   24  C           1     -19.989  -9.747  -2.274  0.00  0.00     0.273 C 
BRANCH  24  25
HETATM   25  N           1     -20.013 -10.002  -3.689  0.00  0.00     0.098 N 
HETATM   26  H           1     -20.694  -9.387  -4.134  0.00  0.00     0.317 HD
BRANCH  25  27
HETATM   27  C           1     -18.701  -9.720  -4.206  0.00  0.00     0.320 C 
BRANCH  27  28
HETATM   28  C           1     -17.699 -10.700  -3.608  0.00  0.00     0.049 C 
BRANCH  28  29
HETATM   29 Se           1     -16.158  -9.721  -2.926  0.00  0.00     0.000 Se
HETATM   30  H           1     -16.920  -8.496  -2.634  0.00  0.00     0.000 HD
ENDBRANCH  28  29
ENDBRANCH  27  28
BRANCH  27  31
HETATM   31  C           1     -18.711  -9.865  -5.708  0.00  0.00     0.207 C 
HETATM   32  O           1     -19.359 -10.789  -6.244  0.00  0.00    -0.646 OA
HETATM   33  O           1     -18.069  -9.059  -6.417  0.00  0.00    -0.646 OA
ENDBRANCH  27  31
ENDBRANCH  25  27
ENDBRANCH  24  25
ENDBRANCH  23  24
ENDBRANCH  22  23
BRANCH  22  34
HETATM   34  C           1     -22.051  -6.942  -1.605  0.00  0.00     0.196 C 
HETATM   35  O           1     -22.239  -7.502  -0.503  0.00  0.00    -0.646 OA
HETATM   36  O           1     -22.549  -5.816  -1.826  0.00  0.00    -0.646 OA
ENDBRANCH  22  34
ENDBRANCH   3  22
TORSDOF 15
ENDMDL
MODEL 4
REMARK VINA RESULT:      -6.0      2.213      2.877
REMARK  15 active torsions:
REMARK  status: ('A' for Active; 'I' for Inactive)
REMARK    1  A    between atoms: C_2  and  C_28 
REMARK    2  A    between atoms: C_2  and  C_3 
REMARK    3  A    between atoms: C_2  and  N_24 
REMARK    4  A    between atoms: N_13  and  C_15 
REMARK    5  A    between atoms: N_13  and  C_14 
REMARK    6  A    between atoms: C_14  and  C_28 
REMARK    7  A    between atoms: C_15  and  C_36 
REMARK    8  A    between atoms: C_15  and  C_16 
REMARK    9  A    between atoms: C_20  and  C_21 
REMARK   10  A    between atoms: C_20  and  C_25 
REMARK   11  A    between atoms: C_21  and  C_22 
REMARK   12  A    between atoms: C_22  and  C_23 
REMARK   13  A    between atoms: C_22  and  N_30 
REMARK       I    between atoms: C_23  and  N_24 
REMARK   14  A    between atoms: C_25  and  N_26 
REMARK       I    between atoms: N_26  and  C_33 
REMARK       I    between atoms: N_31  and  C_33 
REMARK   15  A    between atoms: Se_35  and  C_36 
ROOT
HETATM    1  H           1     -21.062  -4.674  -4.189  0.00  0.00     0.163 HD
HETATM    2  C           1     -21.367  -6.695  -3.864  0.00  0.00     0.249 C 
HETATM    3  N           1     -21.218  -5.571  -4.631  0.00  0.00    -0.345 N 
HETATM    4  O           1     -21.552  -7.766  -4.392  0.00  0.00    -0.271 OA
ENDROOT
BRANCH   2   5
HETATM    5  C           1     -21.300  -6.596  -2.360  0.00  0.00     0.274 C 
BRANCH   5   6
HETATM    6  C           1     -21.580  -7.963  -1.748  0.00  0.00     0.044 C 
BRANCH   6   7
HETATM    7  C           1     -22.304  -7.786  -0.419  0.00  0.00     0.023 C 
BRANCH   7   8
HETATM    8  C           1     -22.323  -9.111   0.330  0.00  0.00     0.138 C 
BRANCH   8   9
HETATM    9  N           1     -23.451  -9.926  -0.143  0.00  0.00    -0.227 N 
HETATM   10  H           1     -24.434  -9.572  -0.040  0.00  0.00     0.177 HD
HETATM   11  C           1     -23.237 -11.055  -0.675  0.00  0.00     0.665 C 
HETATM   12  N           1     -22.019 -11.493  -0.803  0.00  0.00    -0.235 N 
HETATM   13  N           1     -24.207 -11.757  -1.083  0.00  0.00    -0.235 N 
HETATM   14  H           1     -21.218 -10.913  -0.466  0.00  0.00     0.174 HD
HETATM   15  H           1     -21.842 -12.425  -1.242  0.00  0.00     0.174 HD
HETATM   16  H           1     -24.030 -12.692  -1.525  0.00  0.00     0.174 HD
HETATM   17  H           1     -25.191 -11.403  -0.981  0.00  0.00     0.174 HD
ENDBRANCH   8   9
ENDBRANCH   7   8
ENDBRANCH   6   7
ENDBRANCH   5   6
BRANCH   5  18
HETATM   18  N           1     -22.324  -5.613  -1.877  0.00  0.00    -0.067 N 
HETATM   19  H           1     -21.851  -4.723  -1.601  0.00  0.00     0.275 HD
HETATM   20  H           1     -23.008  -5.419  -2.644  0.00  0.00     0.275 HD
HETATM   21  H           1     -22.828  -6.011  -1.052  0.00  0.00     0.275 HD
ENDBRANCH   5  18
ENDBRANCH   2   5
BRANCH   3  22
HETATM   22  C           1     -21.282  -5.665  -6.077  0.00  0.00     0.187 C 
BRANCH  22  23
HETATM   23  C           1     -21.890  -4.388  -6.642  0.00  0.00     0.066 C 
BRANCH  23  24
HETATM   24  C           1     -22.440  -4.660  -8.036  0.00  0.00     0.273 C 
BRANCH  24  25
HETATM   25  N           1     -23.407  -3.651  -8.376  0.00  0.00     0.098 N 
HETATM   26  H           1     -23.210  -2.800  -7.850  0.00  0.00     0.317 HD
BRANCH  25  27
HETATM   27  C           1     -23.284  -3.385  -9.783  0.00  0.00     0.320 C 
BRANCH  27  28
HETATM   28  C           1     -22.321  -4.388 -10.407  0.00  0.00     0.049 C 
BRANCH  28  29
HETATM   29 Se           1     -20.905  -3.434 -11.346  0.00  0.00     0.000 Se
HETATM   30  H           1     -21.787  -2.356 -11.820  0.00  0.00     0.000 HD
ENDBRANCH  28  29
ENDBRANCH  27  28
BRANCH  27  31
HETATM   31  C           1     -24.637  -3.511 -10.440  0.00  0.00     0.207 C 
HETATM   32  O           1     -25.661  -3.117  -9.843  0.00  0.00    -0.646 OA
HETATM   33  O           1     -24.732  -4.010 -11.582  0.00  0.00    -0.646 OA
ENDBRANCH  27  31
ENDBRANCH  25  27
ENDBRANCH  24  25
ENDBRANCH  23  24
ENDBRANCH  22  23
BRANCH  22  34
HETATM   34  C           1     -19.891  -5.849  -6.630  0.00  0.00     0.196 C 
HETATM   35  O           1     -19.458  -6.998  -6.865  0.00  0.00    -0.646 OA
HETATM   36  O           1     -19.171  -4.852  -6.856  0.00  0.00    -0.646 OA
ENDBRANCH  22  34
ENDBRANCH   3  22
TORSDOF 15
ENDMDL
MODEL 5
REMARK VINA RESULT:      -5.9     13.280     14.874
REMARK  15 active torsions:
REMARK  status: ('A' for Active; 'I' for Inactive)
REMARK    1  A    between atoms: C_2  and  C_28 
REMARK    2  A    between atoms: C_2  and  C_3 
REMARK    3  A    between atoms: C_2  and  N_24 
REMARK    4  A    between atoms: N_13  and  C_15 
REMARK    5  A    between atoms: N_13  and  C_14 
REMARK    6  A    between atoms: C_14  and  C_28 
REMARK    7  A    between atoms: C_15  and  C_36 
REMARK    8  A    between atoms: C_15  and  C_16 
REMARK    9  A    between atoms: C_20  and  C_21 
REMARK   10  A    between atoms: C_20  and  C_25 
REMARK   11  A    between atoms: C_21  and  C_22 
REMARK   12  A    between atoms: C_22  and  C_23 
REMARK   13  A    between atoms: C_22  and  N_30 
REMARK       I    between atoms: C_23  and  N_24 
REMARK   14  A    between atoms: C_25  and  N_26 
REMARK       I    between atoms: N_26  and  C_33 
REMARK       I    between atoms: N_31  and  C_33 
REMARK   15  A    between atoms: Se_35  and  C_36 
ROOT
HETATM    1  H           1     -33.161  -4.827 -13.797  0.00  0.00     0.163 HD
HETATM    2  C           1     -34.210  -3.086 -13.400  0.00  0.00     0.249 C 
HETATM    3  N           1     -33.872  -4.190 -14.137  0.00  0.00    -0.345 N 
HETATM    4  O           1     -35.058  -2.327 -13.806  0.00  0.00    -0.271 OA
ENDROOT
BRANCH   2   5
HETATM    5  C           1     -33.523  -2.818 -12.084  0.00  0.00     0.274 C 
BRANCH   5   6
HETATM    6  C           1     -32.936  -4.115 -11.544  0.00  0.00     0.044 C 
BRANCH   6   7
HETATM    7  C           1     -33.854  -4.679 -10.466  0.00  0.00     0.023 C 
BRANCH   7   8
HETATM    8  C           1     -34.643  -5.852 -11.033  0.00  0.00     0.138 C 
BRANCH   8   9
HETATM    9  N           1     -33.818  -7.068 -10.981  0.00  0.00    -0.227 N 
HETATM   10  H           1     -32.964  -7.150 -11.587  0.00  0.00     0.177 HD
HETATM   11  C           1     -34.138  -8.017 -10.206  0.00  0.00     0.665 C 
HETATM   12  N           1     -35.195  -7.915  -9.455  0.00  0.00    -0.235 N 
HETATM   13  N           1     -33.429  -9.063 -10.160  0.00  0.00    -0.235 N 
HETATM   14  H           1     -35.781  -7.050  -9.493  0.00  0.00     0.174 HD
HETATM   15  H           1     -35.459  -8.697  -8.815  0.00  0.00     0.174 HD
HETATM   16  H           1     -33.693  -9.849  -9.516  0.00  0.00     0.174 HD
HETATM   17  H           1     -32.574  -9.146 -10.765  0.00  0.00     0.174 HD
ENDBRANCH   8   9
ENDBRANCH   7   8
ENDBRANCH   6   7
ENDBRANCH   5   6
BRANCH   5  18
HETATM   18  N           1     -34.518  -2.274 -11.103  0.00  0.00    -0.067 N 
HETATM   19  H           1     -35.331  -2.926 -11.033  0.00  0.00     0.275 HD
HETATM   20  H           1     -34.066  -2.179 -10.165  0.00  0.00     0.275 HD
HETATM   21  H           1     -34.850  -1.337 -11.427  0.00  0.00     0.275 HD
ENDBRANCH   5  18
ENDBRANCH   2   5
BRANCH   3  22
HETATM   22  C           1     -34.531  -4.448 -15.402  0.00  0.00     0.187 C 
BRANCH  22  23
HETATM   23  C           1     -33.534  -4.269 -16.539  0.00  0.00     0.066 C 
BRANCH  23  24
HETATM   24  C           1     -32.201  -4.896 -16.151  0.00  0.00     0.273 C 
BRANCH  24  25
HETATM   25  N           1     -31.991  -6.091 -16.923  0.00  0.00     0.098 N 
HETATM   26  H           1     -32.591  -6.073 -17.747  0.00  0.00     0.317 HD
BRANCH  25  27
HETATM   27  C           1     -30.613  -6.108 -17.333  0.00  0.00     0.320 C 
BRANCH  27  28
HETATM   28  C           1     -29.733  -5.655 -16.174  0.00  0.00     0.049 C 
BRANCH  28  29
HETATM   29 Se           1     -28.362  -4.438 -16.835  0.00  0.00     0.000 Se
HETATM   30  H           1     -27.548  -5.502 -17.445  0.00  0.00     0.000 HD
ENDBRANCH  28  29
ENDBRANCH  27  28
BRANCH  27  31
HETATM   31  C           1     -30.226  -7.509 -17.740  0.00  0.00     0.207 C 
HETATM   32  O           1     -29.468  -8.186 -17.013  0.00  0.00    -0.646 OA
HETATM   33  O           1     -30.665  -7.993 -18.807  0.00  0.00    -0.646 OA
ENDBRANCH  27  31
ENDBRANCH  25  27
ENDBRANCH  24  25
ENDBRANCH  23  24
ENDBRANCH  22  23
BRANCH  22  34
HETATM   34  C           1     -35.060  -5.861 -15.413  0.00  0.00     0.196 C 
HETATM   35  O           1     -34.891  -6.584 -16.419  0.00  0.00    -0.646 OA
HETATM   36  O           1     -35.667  -6.309 -14.416  0.00  0.00    -0.646 OA
ENDBRANCH  22  34
ENDBRANCH   3  22
TORSDOF 15
ENDMDL
MODEL 6
REMARK VINA RESULT:      -5.9      3.770      7.706
REMARK  15 active torsions:
REMARK  status: ('A' for Active; 'I' for Inactive)
REMARK    1  A    between atoms: C_2  and  C_28 
REMARK    2  A    between atoms: C_2  and  C_3 
REMARK    3  A    between atoms: C_2  and  N_24 
REMARK    4  A    between atoms: N_13  and  C_15 
REMARK    5  A    between atoms: N_13  and  C_14 
REMARK    6  A    between atoms: C_14  and  C_28 
REMARK    7  A    between atoms: C_15  and  C_36 
REMARK    8  A    between atoms: C_15  and  C_16 
REMARK    9  A    between atoms: C_20  and  C_21 
REMARK   10  A    between atoms: C_20  and  C_25 
REMARK   11  A    between atoms: C_21  and  C_22 
REMARK   12  A    between atoms: C_22  and  C_23 
REMARK   13  A    between atoms: C_22  and  N_30 
REMARK       I    between atoms: C_23  and  N_24 
REMARK   14  A    between atoms: C_25  and  N_26 
REMARK       I    between atoms: N_26  and  C_33 
REMARK       I    between atoms: N_31  and  C_33 
REMARK   15  A    between atoms: Se_35  and  C_36 
ROOT
HETATM    1  H           1     -22.391  -8.403  -5.093  0.00  0.00     0.163 HD
HETATM    2  C           1     -20.796  -7.358  -5.899  0.00  0.00     0.249 C 
HETATM    3  N           1     -21.394  -8.414  -5.264  0.00  0.00    -0.345 N 
HETATM    4  O           1     -19.606  -7.372  -6.104  0.00  0.00    -0.271 OA
ENDROOT
BRANCH   2   5
HETATM    5  C           1     -21.625  -6.177  -6.341  0.00  0.00     0.274 C 
BRANCH   5   6
HETATM    6  C           1     -20.720  -4.968  -6.541  0.00  0.00     0.044 C 
BRANCH   6   7
HETATM    7  C           1     -21.534  -3.811  -7.107  0.00  0.00     0.023 C 
BRANCH   7   8
HETATM    8  C           1     -22.111  -4.209  -8.459  0.00  0.00     0.138 C 
BRANCH   8   9
HETATM    9  N           1     -23.462  -3.648  -8.599  0.00  0.00    -0.227 N 
HETATM   10  H           1     -23.800  -2.917  -7.924  0.00  0.00     0.177 HD
HETATM   11  C           1     -24.218  -4.044  -9.534  0.00  0.00     0.665 C 
HETATM   12  N           1     -23.800  -4.948 -10.370  0.00  0.00    -0.235 N 
HETATM   13  N           1     -25.381  -3.561  -9.656  0.00  0.00    -0.235 N 
HETATM   14  H           1     -22.839  -5.347 -10.269  0.00  0.00     0.174 HD
HETATM   15  H           1     -24.423  -5.276 -11.141  0.00  0.00     0.174 HD
HETATM   16  H           1     -26.008  -3.889 -10.431  0.00  0.00     0.174 HD
HETATM   17  H           1     -25.720  -2.830  -8.981  0.00  0.00     0.174 HD
ENDBRANCH   8   9
ENDBRANCH   7   8
ENDBRANCH   6   7
ENDBRANCH   5   6
BRANCH   5  18
HETATM   18  N           1     -22.650  -5.865  -5.292  0.00  0.00    -0.067 N 
HETATM   19  H           1     -22.266  -5.156  -4.628  0.00  0.00     0.275 HD
HETATM   20  H           1     -23.510  -5.483  -5.749  0.00  0.00     0.275 HD
HETATM   21  H           1     -22.891  -6.738  -4.769  0.00  0.00     0.275 HD
ENDBRANCH   5  18
ENDBRANCH   2   5
BRANCH   3  22
HETATM   22  C           1     -20.598  -9.549  -4.839  0.00  0.00     0.187 C 
BRANCH  22  23
HETATM   23  C           1     -20.764  -9.752  -3.338  0.00  0.00     0.066 C 
BRANCH  23  24
HETATM   24  C           1     -19.502  -9.293  -2.620  0.00  0.00     0.273 C 
BRANCH  24  25
HETATM   25  N           1     -19.802  -8.144  -1.809  0.00  0.00     0.098 N 
HETATM   26  H           1     -19.735  -7.300  -2.377  0.00  0.00     0.317 HD
BRANCH  25  27
HETATM   27  C           1     -21.148  -8.291  -1.325  0.00  0.00     0.320 C 
BRANCH  27  28
HETATM   28  C           1     -21.122  -8.526   0.180  0.00  0.00     0.049 C 
BRANCH  28  29
HETATM   29 Se           1     -21.156 -10.441   0.541  0.00  0.00     0.000 Se
HETATM   30  H           1     -21.641 -10.289   1.923  0.00  0.00     0.000 HD
ENDBRANCH  28  29
ENDBRANCH  27  28
BRANCH  27  31
HETATM   31  C           1     -21.931  -7.037  -1.625  0.00  0.00     0.207 C 
HETATM   32  O           1     -21.694  -6.385  -2.665  0.00  0.00    -0.646 OA
HETATM   33  O           1     -22.816  -6.648  -0.833  0.00  0.00    -0.646 OA
ENDBRANCH  27  31
ENDBRANCH  25  27
ENDBRANCH  24  25
ENDBRANCH  23  24
ENDBRANCH  22  23
BRANCH  22  34
HETATM   34  C           1     -21.059 -10.787  -5.568  0.00  0.00     0.196 C 
HETATM   35  O           1     -21.936 -11.520  -5.064  0.00  0.00    -0.646 OA
HETATM   36  O           1     -20.562 -11.079  -6.679  0.00  0.00    -0.646 OA
ENDBRANCH  22  34
ENDBRANCH   3  22
TORSDOF 15
ENDMDL
MODEL 7
REMARK VINA RESULT:      -5.8     13.662     16.471
REMARK  15 active torsions:
REMARK  status: ('A' for Active; 'I' for Inactive)
REMARK    1  A    between atoms: C_2  and  C_28 
REMARK    2  A    between atoms: C_2  and  C_3 
REMARK    3  A    between atoms: C_2  and  N_24 
REMARK    4  A    between atoms: N_13  and  C_15 
REMARK    5  A    between atoms: N_13  and  C_14 
REMARK    6  A    between atoms: C_14  and  C_28 
REMARK    7  A    between atoms: C_15  and  C_36 
REMARK    8  A    between atoms: C_15  and  C_16 
REMARK    9  A    between atoms: C_20  and  C_21 
REMARK   10  A    between atoms: C_20  and  C_25 
REMARK   11  A    between atoms: C_21  and  C_22 
REMARK   12  A    between atoms: C_22  and  C_23 
REMARK   13  A    between atoms: C_22  and  N_30 
REMARK       I    between atoms: C_23  and  N_24 
REMARK   14  A    between atoms: C_25  and  N_26 
REMARK       I    between atoms: N_26  and  C_33 
REMARK       I    between atoms: N_31  and  C_33 
REMARK   15  A    between atoms: Se_35  and  C_36 
ROOT
HETATM    1  H           1     -33.973  -1.510 -15.100  0.00  0.00     0.163 HD
HETATM    2  C           1     -35.664  -0.714 -15.990  0.00  0.00     0.249 C 
HETATM    3  N           1     -34.725  -1.683 -15.755  0.00  0.00    -0.345 N 
HETATM    4  O           1     -36.562  -0.921 -16.772  0.00  0.00    -0.271 OA
ENDROOT
BRANCH   2   5
HETATM    5  C           1     -35.576   0.611 -15.275  0.00  0.00     0.274 C 
BRANCH   5   6
HETATM    6  C           1     -36.150   0.470 -13.871  0.00  0.00     0.044 C 
BRANCH   6   7
HETATM    7  C           1     -35.018   0.220 -12.882  0.00  0.00     0.023 C 
BRANCH   7   8
HETATM    8  C           1     -35.396  -0.928 -11.956  0.00  0.00     0.138 C 
BRANCH   8   9
HETATM    9  N           1     -34.484  -2.059 -12.179  0.00  0.00    -0.227 N 
HETATM   10  H           1     -34.489  -2.564 -13.100  0.00  0.00     0.177 HD
HETATM   11  C           1     -33.694  -2.425 -11.261  0.00  0.00     0.665 C 
HETATM   12  N           1     -33.688  -1.801 -10.120  0.00  0.00    -0.235 N 
HETATM   13  N           1     -32.908  -3.399 -11.453  0.00  0.00    -0.235 N 
HETATM   14  H           1     -34.336  -0.996  -9.963  0.00  0.00     0.174 HD
HETATM   15  H           1     -33.035  -2.102  -9.363  0.00  0.00     0.174 HD
HETATM   16  H           1     -32.251  -3.702 -10.692  0.00  0.00     0.174 HD
HETATM   17  H           1     -32.912  -3.904 -12.374  0.00  0.00     0.174 HD
ENDBRANCH   8   9
ENDBRANCH   7   8
ENDBRANCH   6   7
ENDBRANCH   5   6
BRANCH   5  18
HETATM   18  N           1     -36.360   1.641 -16.033  0.00  0.00    -0.067 N 
HETATM   19  H           1     -37.334   1.296 -16.184  0.00  0.00     0.275 HD
HETATM   20  H           1     -36.386   2.531 -15.485  0.00  0.00     0.275 HD
HETATM   21  H           1     -35.904   1.814 -16.958  0.00  0.00     0.275 HD
ENDBRANCH   5  18
ENDBRANCH   2   5
BRANCH   3  22
HETATM   22  C           1     -34.809  -2.957 -16.442  0.00  0.00     0.187 C 
BRANCH  22  23
HETATM   23  C           1     -33.743  -3.018 -17.528  0.00  0.00     0.066 C 
BRANCH  23  24
HETATM   24  C           1     -32.493  -3.693 -16.977  0.00  0.00     0.273 C 
BRANCH  24  25
HETATM   25  N           1     -31.343  -3.250 -17.718  0.00  0.00     0.098 N 
HETATM   26  H           1     -31.200  -2.253 -17.560  0.00  0.00     0.317 HD
BRANCH  25  27
HETATM   27  C           1     -30.204  -3.981 -17.233  0.00  0.00     0.320 C 
BRANCH  27  28
HETATM   28  C           1     -29.856  -5.090 -18.217  0.00  0.00     0.049 C 
BRANCH  28  29
HETATM   29 Se           1     -30.222  -6.822 -17.403  0.00  0.00     0.000 Se
HETATM   30  H           1     -29.149  -6.709 -16.403  0.00  0.00     0.000 HD
ENDBRANCH  28  29
ENDBRANCH  27  28
BRANCH  27  31
HETATM   31  C           1     -29.028  -3.045 -17.092  0.00  0.00     0.207 C 
HETATM   32  O           1     -29.178  -1.819 -17.283  0.00  0.00    -0.646 OA
HETATM   33  O           1     -27.903  -3.497 -16.785  0.00  0.00    -0.646 OA
ENDBRANCH  27  31
ENDBRANCH  25  27
ENDBRANCH  24  25
ENDBRANCH  23  24
ENDBRANCH  22  23
BRANCH  22  34
HETATM   34  C           1     -34.587  -4.076 -15.455  0.00  0.00     0.196 C 
HETATM   35  O           1     -34.942  -5.240 -15.739  0.00  0.00    -0.646 OA
HETATM   36  O           1     -34.048  -3.838 -14.352  0.00  0.00    -0.646 OA
ENDBRANCH  22  34
ENDBRANCH   3  22
TORSDOF 15
ENDMDL
MODEL 8
REMARK VINA RESULT:      -5.7     14.170     16.590
REMARK  15 active torsions:
REMARK  status: ('A' for Active; 'I' for Inactive)
REMARK    1  A    between atoms: C_2  and  C_28 
REMARK    2  A    between atoms: C_2  and  C_3 
REMARK    3  A    between atoms: C_2  and  N_24 
REMARK    4  A    between atoms: N_13  and  C_15 
REMARK    5  A    between atoms: N_13  and  C_14 
REMARK    6  A    between atoms: C_14  and  C_28 
REMARK    7  A    between atoms: C_15  and  C_36 
REMARK    8  A    between atoms: C_15  and  C_16 
REMARK    9  A    between atoms: C_20  and  C_21 
REMARK   10  A    between atoms: C_20  and  C_25 
REMARK   11  A    between atoms: C_21  and  C_22 
REMARK   12  A    between atoms: C_22  and  C_23 
REMARK   13  A    between atoms: C_22  and  N_30 
REMARK       I    between atoms: C_23  and  N_24 
REMARK   14  A    between atoms: C_25  and  N_26 
REMARK       I    between atoms: N_26  and  C_33 
REMARK       I    between atoms: N_31  and  C_33 
REMARK   15  A    between atoms: Se_35  and  C_36 
ROOT
HETATM    1  H           1     -35.628  -1.795 -14.338  0.00  0.00     0.163 HD
HETATM    2  C           1     -35.084   0.069 -13.621  0.00  0.00     0.249 C 
HETATM    3  N           1     -35.532  -0.814 -14.567  0.00  0.00    -0.345 N 
HETATM    4  O           1     -34.970   1.240 -13.895  0.00  0.00    -0.271 OA
ENDROOT
BRANCH   2   5
HETATM    5  C           1     -34.730  -0.421 -12.239  0.00  0.00     0.274 C 
BRANCH   5   6
HETATM    6  C           1     -34.670  -1.943 -12.239  0.00  0.00     0.044 C 
BRANCH   6   7
HETATM    7  C           1     -33.572  -2.409 -11.291  0.00  0.00     0.023 C 
BRANCH   7   8
HETATM    8  C           1     -34.032  -3.662 -10.558  0.00  0.00     0.138 C 
BRANCH   8   9
HETATM    9  N           1     -34.810  -4.509 -11.474  0.00  0.00    -0.227 N 
HETATM   10  H           1     -35.677  -4.129 -11.930  0.00  0.00     0.177 HD
HETATM   11  C           1     -34.436  -5.694 -11.712  0.00  0.00     0.665 C 
HETATM   12  N           1     -33.364  -6.164 -11.146  0.00  0.00    -0.235 N 
HETATM   13  N           1     -35.106  -6.423 -12.500  0.00  0.00    -0.235 N 
HETATM   14  H           1     -32.810  -5.561 -10.495  0.00  0.00     0.174 HD
HETATM   15  H           1     -33.055  -7.142 -11.342  0.00  0.00     0.174 HD
HETATM   16  H           1     -34.796  -7.406 -12.698  0.00  0.00     0.174 HD
HETATM   17  H           1     -35.972  -6.045 -12.957  0.00  0.00     0.174 HD
ENDBRANCH   8   9
ENDBRANCH   7   8
ENDBRANCH   6   7
ENDBRANCH   5   6
BRANCH   5  18
HETATM   18  N           1     -35.774   0.037 -11.264  0.00  0.00    -0.067 N 
HETATM   19  H           1     -35.330   0.639 -10.535  0.00  0.00     0.275 HD
HETATM   20  H           1     -36.505   0.587 -11.771  0.00  0.00     0.275 HD
HETATM   21  H           1     -36.215  -0.794 -10.809  0.00  0.00     0.275 HD
ENDBRANCH   5  18
ENDBRANCH   2   5
BRANCH   3  22
HETATM   22  C           1     -35.872  -0.343 -15.896  0.00  0.00     0.187 C 
BRANCH  22  23
HETATM   23  C           1     -35.357  -1.334 -16.931  0.00  0.00     0.066 C 
BRANCH  23  24
HETATM   24  C           1     -34.668  -2.495 -16.226  0.00  0.00     0.273 C 
BRANCH  24  25
HETATM   25  N           1     -33.617  -3.008 -17.063  0.00  0.00     0.098 N 
HETATM   26  H           1     -32.757  -2.490 -16.886  0.00  0.00     0.317 HD
BRANCH  25  27
HETATM   27  C           1     -33.423  -4.391 -16.720  0.00  0.00     0.320 C 
BRANCH  27  28
HETATM   28  C           1     -31.934  -4.668 -16.551  0.00  0.00     0.049 C 
BRANCH  28  29
HETATM   29 Se           1     -30.915  -3.479 -17.711  0.00  0.00     0.000 Se
HETATM   30  H           1     -30.808  -2.406 -16.710  0.00  0.00     0.000 HD
ENDBRANCH  28  29
ENDBRANCH  27  28
BRANCH  27  31
HETATM   31  C           1     -34.141  -4.695 -15.428  0.00  0.00     0.207 C 
HETATM   32  O           1     -35.103  -5.493 -15.419  0.00  0.00    -0.646 OA
HETATM   33  O           1     -33.773  -4.147 -14.366  0.00  0.00    -0.646 OA
ENDBRANCH  27  31
ENDBRANCH  25  27
ENDBRANCH  24  25
ENDBRANCH  23  24
ENDBRANCH  22  23
BRANCH  22  34
HETATM   34  C           1     -37.371  -0.220 -16.017  0.00  0.00     0.196 C 
HETATM   35  O           1     -38.075  -1.245 -16.136  0.00  0.00    -0.646 OA
HETATM   36  O           1     -37.909   0.909 -15.998  0.00  0.00    -0.646 OA
ENDBRANCH  22  34
ENDBRANCH   3  22
TORSDOF 15
ENDMDL
MODEL 9
REMARK VINA RESULT:      -5.6     13.082     14.766
REMARK  15 active torsions:
REMARK  status: ('A' for Active; 'I' for Inactive)
REMARK    1  A    between atoms: C_2  and  C_28 
REMARK    2  A    between atoms: C_2  and  C_3 
REMARK    3  A    between atoms: C_2  and  N_24 
REMARK    4  A    between atoms: N_13  and  C_15 
REMARK    5  A    between atoms: N_13  and  C_14 
REMARK    6  A    between atoms: C_14  and  C_28 
REMARK    7  A    between atoms: C_15  and  C_36 
REMARK    8  A    between atoms: C_15  and  C_16 
REMARK    9  A    between atoms: C_20  and  C_21 
REMARK   10  A    between atoms: C_20  and  C_25 
REMARK   11  A    between atoms: C_21  and  C_22 
REMARK   12  A    between atoms: C_22  and  C_23 
REMARK   13  A    between atoms: C_22  and  N_30 
REMARK       I    between atoms: C_23  and  N_24 
REMARK   14  A    between atoms: C_25  and  N_26 
REMARK       I    between atoms: N_26  and  C_33 
REMARK       I    between atoms: N_31  and  C_33 
REMARK   15  A    between atoms: Se_35  and  C_36 
ROOT
HETATM    1  H           1     -32.968  -4.785 -13.939  0.00  0.00     0.163 HD
HETATM    2  C           1     -34.120  -3.155 -13.391  0.00  0.00     0.249 C 
HETATM    3  N           1     -33.747  -4.194 -14.201  0.00  0.00    -0.345 N 
HETATM    4  O           1     -35.050  -2.451 -13.703  0.00  0.00    -0.271 OA
ENDROOT
BRANCH   2   5
HETATM    5  C           1     -33.367  -2.889 -12.110  0.00  0.00     0.274 C 
BRANCH   5   6
HETATM    6  C           1     -32.963  -4.213 -11.474  0.00  0.00     0.044 C 
BRANCH   6   7
HETATM    7  C           1     -34.027  -4.642 -10.472  0.00  0.00     0.023 C 
BRANCH   7   8
HETATM    8  C           1     -34.821  -5.809 -11.042  0.00  0.00     0.138 C 
BRANCH   8   9
HETATM    9  N           1     -33.970  -7.007 -11.086  0.00  0.00    -0.227 N 
HETATM   10  H           1     -33.192  -7.072 -11.789  0.00  0.00     0.177 HD
HETATM   11  C           1     -34.174  -7.959 -10.278  0.00  0.00     0.665 C 
HETATM   12  N           1     -35.137  -7.878  -9.407  0.00  0.00    -0.235 N 
HETATM   13  N           1     -33.441  -8.990 -10.315  0.00  0.00    -0.235 N 
HETATM   14  H           1     -35.742  -7.026  -9.376  0.00  0.00     0.174 HD
HETATM   15  H           1     -35.305  -8.663  -8.739  0.00  0.00     0.174 HD
HETATM   16  H           1     -33.610  -9.779  -9.644  0.00  0.00     0.174 HD
HETATM   17  H           1     -32.663  -9.056 -11.018  0.00  0.00     0.174 HD
ENDBRANCH   8   9
ENDBRANCH   7   8
ENDBRANCH   6   7
ENDBRANCH   5   6
BRANCH   5  18
HETATM   18  N           1     -34.247  -2.128 -11.163  0.00  0.00    -0.067 N 
HETATM   19  H           1     -33.657  -1.518 -10.554  0.00  0.00     0.275 HD
HETATM   20  H           1     -34.914  -1.535 -11.708  0.00  0.00     0.275 HD
HETATM   21  H           1     -34.783  -2.801 -10.569  0.00  0.00     0.275 HD
ENDBRANCH   5  18
ENDBRANCH   2   5
BRANCH   3  22
HETATM   22  C           1     -34.470  -4.450 -15.431  0.00  0.00     0.187 C 
BRANCH  22  23
HETATM   23  C           1     -33.525  -4.292 -16.616  0.00  0.00     0.066 C 
BRANCH  23  24
HETATM   24  C           1     -32.092  -4.534 -16.160  0.00  0.00     0.273 C 
BRANCH  24  25
HETATM   25  N           1     -31.182  -3.956 -17.112  0.00  0.00     0.098 N 
HETATM   26  H           1     -31.038  -2.971 -16.889  0.00  0.00     0.317 HD
BRANCH  25  27
HETATM   27  C           1     -29.932  -4.660 -17.003  0.00  0.00     0.320 C 
BRANCH  27  28
HETATM   28  C           1     -29.751  -5.561 -18.217  0.00  0.00     0.049 C 
BRANCH  28  29
HETATM   29 Se           1     -30.213  -7.394 -17.743  0.00  0.00     0.000 Se
HETATM   30  H           1     -29.084  -7.562 -16.815  0.00  0.00     0.000 HD
ENDBRANCH  28  29
ENDBRANCH  27  28
BRANCH  27  31
HETATM   31  C           1     -28.799  -3.666 -16.940  0.00  0.00     0.207 C 
HETATM   32  O           1     -28.988  -2.479 -17.283  0.00  0.00    -0.646 OA
HETATM   33  O           1     -27.670  -4.030 -16.544  0.00  0.00    -0.646 OA
ENDBRANCH  27  31
ENDBRANCH  25  27
ENDBRANCH  24  25
ENDBRANCH  23  24
ENDBRANCH  22  23
BRANCH  22  34
HETATM   34  C           1     -35.018  -5.855 -15.409  0.00  0.00     0.196 C 
HETATM   35  O           1     -35.641  -6.268 -14.406  0.00  0.00    -0.646 OA
HETATM   36  O           1     -34.851  -6.608 -16.394  0.00  0.00    -0.646 OA
ENDBRANCH  22  34
ENDBRANCH   3  22
TORSDOF 15
ENDMDL
