MODEL 1
REMARK VINA RESULT:      -7.6      0.000      0.000
REMARK  9 active torsions:
REMARK  status: ('A' for Active; 'I' for Inactive)
REMARK    1  A    between atoms: C_1  and  C_2 
REMARK    2  A    between atoms: C_1  and  C_19 
REMARK    3  A    between atoms: C_2  and  C_9 
REMARK    4  A    between atoms: C_2  and  N_11 
REMARK       I    between atoms: N_11  and  C_29 
REMARK    5  A    between atoms: C_14  and  C_31 
REMARK       I    between atoms: C_14  and  N_15 
REMARK    6  A    between atoms: N_17  and  C_28 
REMARK    7  A    between atoms: C_27  and  C_28 
REMARK    8  A    between atoms: C_27  and  C_31 
REMARK    9  A    between atoms: C_28  and  C_29 
ROOT
HETATM    1  N           1     -20.092  -6.884  -6.744  0.00  0.00    -0.344 N 
HETATM    2  H           1     -20.058  -7.549  -7.506  0.00  0.00     0.163 HD
HETATM    3  O           1     -19.191  -4.880  -7.143  0.00  0.00    -0.271 OA
HETATM    4  C           1     -20.191  -5.545  -7.009  0.00  0.00     0.249 C 
ENDROOT
BRANCH   1   5
HETATM    5  C           1     -20.036  -7.350  -5.372  0.00  0.00     0.190 C 
BRANCH   5   6
HETATM    6  C           1     -21.419  -7.816  -4.938  0.00  0.00     0.077 C 
BRANCH   6   7
HETATM    7  C           1     -21.725  -7.274  -3.577  0.00  0.00    -0.028 A 
HETATM    8  C           1     -21.954  -5.954  -3.263  0.00  0.00     0.096 A 
HETATM    9  N           1     -22.196  -5.880  -1.917  0.00  0.00    -0.365 N 
HETATM   10  C           1     -22.129  -7.133  -1.351  0.00  0.00     0.042 A 
HETATM   11  H           1     -22.404  -4.994  -1.392  0.00  0.00     0.165 HD
HETATM   12  C           1     -22.305  -7.537  -0.022  0.00  0.00     0.030 A 
HETATM   13  C           1     -21.833  -8.031  -2.378  0.00  0.00    -0.002 A 
HETATM   14  C           1     -22.176  -8.900   0.262  0.00  0.00     0.002 A 
HETATM   15  C           1     -21.881  -9.819  -0.743  0.00  0.00     0.001 A 
HETATM   16  C           1     -21.707  -9.398  -2.067  0.00  0.00     0.014 A 
ENDBRANCH   6   7
ENDBRANCH   5   6
BRANCH   5  17
HETATM   17  C           1     -19.062  -8.498  -5.271  0.00  0.00     0.197 C 
HETATM   18  O           1     -18.763  -8.968  -4.152  0.00  0.00    -0.646 OA
HETATM   19  O           1     -18.555  -8.981  -6.306  0.00  0.00    -0.646 OA
ENDBRANCH   5  17
ENDBRANCH   1   5
BRANCH   4  20
HETATM   20  C           1     -21.549  -4.898  -7.132  0.00  0.00     0.275 C 
BRANCH  20  21
HETATM   21  N           1     -21.428  -3.427  -6.863  0.00  0.00    -0.066 N 
HETATM   22  H           1     -20.526  -3.236  -6.370  0.00  0.00     0.275 HD
HETATM   23  H           1     -22.226  -3.116  -6.264  0.00  0.00     0.275 HD
HETATM   24  H           1     -21.448  -2.905  -7.767  0.00  0.00     0.275 HD
ENDBRANCH  20  21
BRANCH  20  25
HETATM   25  C           1     -22.088  -5.112  -8.541  0.00  0.00     0.052 C 
BRANCH  25  26
HETATM   26  C           1     -22.237  -3.766  -9.239  0.00  0.00     0.105 C 
BRANCH  26  27
HETATM   27  C           1     -23.620  -3.656  -9.830  0.00  0.00     0.215 C 
HETATM   28  N           1     -24.674  -3.282  -9.040  0.00  0.00    -0.370 N 
HETATM   29  H           1     -24.525  -3.078  -8.060  0.00  0.00     0.159 HD
HETATM   30  H           1     -25.602  -3.208  -9.437  0.00  0.00     0.159 HD
HETATM   31  O           1     -23.799  -3.899 -11.000  0.00  0.00    -0.274 OA
ENDBRANCH  26  27
ENDBRANCH  25  26
ENDBRANCH  20  25
ENDBRANCH   4  20
TORSDOF 9
ENDMDL
MODEL 2
REMARK VINA RESULT:      -7.5      1.917      2.986
REMARK  9 active torsions:
REMARK  status: ('A' for Active; 'I' for Inactive)
REMARK    1  A    between atoms: C_1  and  C_2 
REMARK    2  A    between atoms: C_1  and  C_19 
REMARK    3  A    between atoms: C_2  and  C_9 
REMARK    4  A    between atoms: C_2  and  N_11 
REMARK       I    between atoms: N_11  and  C_29 
REMARK    5  A    between atoms: C_14  and  C_31 
REMARK       I    between atoms: C_14  and  N_15 
REMARK    6  A    between atoms: N_17  and  C_28 
REMARK    7  A    between atoms: C_27  and  C_28 
REMARK    8  A    between atoms: C_27  and  C_31 
REMARK    9  A    between atoms: C_28  and  C_29 
ROOT
HETATM    1  N           1     -21.483  -4.299  -6.241  0.00  0.00    -0.344 N 
HETATM    2  H           1     -21.253  -3.353  -5.966  0.00  0.00     0.163 HD
HETATM    3  O           1     -23.651  -4.835  -6.216  0.00  0.00    -0.271 OA
HETATM    4  C           1     -22.672  -4.560  -6.868  0.00  0.00     0.249 C 
ENDROOT
BRANCH   1   5
HETATM    5  C           1     -20.554  -5.379  -5.971  0.00  0.00     0.190 C 
BRANCH   5   6
HETATM    6  C           1     -21.313  -6.698  -5.910  0.00  0.00     0.077 C 
BRANCH   6   7
HETATM    7  C           1     -20.834  -7.497  -4.739  0.00  0.00    -0.028 A 
HETATM    8  C           1     -19.916  -8.522  -4.776  0.00  0.00     0.096 A 
HETATM    9  N           1     -19.755  -8.986  -3.498  0.00  0.00    -0.365 N 
HETATM   10  C           1     -20.555  -8.278  -2.629  0.00  0.00     0.042 A 
HETATM   11  H           1     -19.113  -9.770  -3.221  0.00  0.00     0.165 HD
HETATM   12  C           1     -20.718  -8.402  -1.244  0.00  0.00     0.030 A 
HETATM   13  C           1     -21.246  -7.333  -3.387  0.00  0.00    -0.002 A 
HETATM   14  C           1     -21.614  -7.530  -0.618  0.00  0.00     0.002 A 
HETATM   15  C           1     -22.318  -6.575  -1.350  0.00  0.00     0.001 A 
HETATM   16  C           1     -22.143  -6.466  -2.735  0.00  0.00     0.014 A 
ENDBRANCH   6   7
ENDBRANCH   5   6
BRANCH   5  17
HETATM   17  C           1     -19.524  -5.441  -7.071  0.00  0.00     0.197 C 
HETATM   18  O           1     -18.746  -4.480  -7.254  0.00  0.00    -0.646 OA
HETATM   19  O           1     -19.446  -6.454  -7.799  0.00  0.00    -0.646 OA
ENDBRANCH   5  17
ENDBRANCH   1   5
BRANCH   4  20
HETATM   20  C           1     -22.759  -4.505  -8.374  0.00  0.00     0.275 C 
BRANCH  20  21
HETATM   21  N           1     -24.106  -3.979  -8.776  0.00  0.00    -0.066 N 
HETATM   22  H           1     -24.076  -3.672  -9.775  0.00  0.00     0.275 HD
HETATM   23  H           1     -24.358  -3.167  -8.168  0.00  0.00     0.275 HD
HETATM   24  H           1     -24.821  -4.732  -8.664  0.00  0.00     0.275 HD
ENDBRANCH  20  21
BRANCH  20  25
HETATM   25  C           1     -21.674  -3.582  -8.912  0.00  0.00     0.052 C 
BRANCH  25  26
HETATM   26  C           1     -20.990  -4.241 -10.103  0.00  0.00     0.105 C 
BRANCH  26  27
HETATM   27  C           1     -21.659  -3.792 -11.379  0.00  0.00     0.215 C 
HETATM   28  N           1     -22.347  -4.695 -12.145  0.00  0.00    -0.370 N 
HETATM   29  H           1     -22.408  -5.663 -11.855  0.00  0.00     0.159 HD
HETATM   30  H           1     -22.796  -4.394 -13.001  0.00  0.00     0.159 HD
HETATM   31  O           1     -21.587  -2.637 -11.726  0.00  0.00    -0.274 OA
ENDBRANCH  26  27
ENDBRANCH  25  26
ENDBRANCH  20  25
ENDBRANCH   4  20
TORSDOF 9
ENDMDL
MODEL 3
REMARK VINA RESULT:      -7.4      1.365      2.005
REMARK  9 active torsions:
REMARK  status: ('A' for Active; 'I' for Inactive)
REMARK    1  A    between atoms: C_1  and  C_2 
REMARK    2  A    between atoms: C_1  and  C_19 
REMARK    3  A    between atoms: C_2  and  C_9 
REMARK    4  A    between atoms: C_2  and  N_11 
REMARK       I    between atoms: N_11  and  C_29 
REMARK    5  A    between atoms: C_14  and  C_31 
REMARK       I    between atoms: C_14  and  N_15 
REMARK    6  A    between atoms: N_17  and  C_28 
REMARK    7  A    between atoms: C_27  and  C_28 
REMARK    8  A    between atoms: C_27  and  C_31 
REMARK    9  A    between atoms: C_28  and  C_29 
ROOT
HETATM    1  N           1     -19.759  -7.067  -6.410  0.00  0.00    -0.344 N 
HETATM    2  H           1     -19.311  -7.446  -7.235  0.00  0.00     0.163 HD
HETATM    3  O           1     -19.523  -4.871  -6.079  0.00  0.00    -0.271 OA
HETATM    4  C           1     -20.237  -5.785  -6.419  0.00  0.00     0.249 C 
ENDROOT
BRANCH   1   5
HETATM    5  C           1     -19.894  -7.883  -5.219  0.00  0.00     0.190 C 
BRANCH   5   6
HETATM    6  C           1     -21.241  -8.594  -5.242  0.00  0.00     0.077 C 
BRANCH   6   7
HETATM    7  C           1     -21.543  -9.137  -3.881  0.00  0.00    -0.028 A 
HETATM    8  C           1     -21.618 -10.467  -3.535  0.00  0.00     0.096 A 
HETATM    9  N           1     -21.915 -10.537  -2.200  0.00  0.00    -0.365 N 
HETATM   10  C           1     -22.035  -9.271  -1.672  0.00  0.00     0.042 A 
HETATM   11  H           1     -22.034 -11.429  -1.658  0.00  0.00     0.165 HD
HETATM   12  C           1     -22.327  -8.860  -0.366  0.00  0.00     0.030 A 
HETATM   13  C           1     -21.805  -8.370  -2.711  0.00  0.00    -0.002 A 
HETATM   14  C           1     -22.384  -7.485  -0.118  0.00  0.00     0.002 A 
HETATM   15  C           1     -22.159  -6.561  -1.138  0.00  0.00     0.001 A 
HETATM   16  C           1     -21.868  -6.990  -2.438  0.00  0.00     0.014 A 
ENDBRANCH   6   7
ENDBRANCH   5   6
BRANCH   5  17
HETATM   17  C           1     -18.785  -8.906  -5.182  0.00  0.00     0.197 C 
HETATM   18  O           1     -18.447  -9.498  -6.229  0.00  0.00    -0.646 OA
HETATM   19  O           1     -18.204  -9.160  -4.106  0.00  0.00    -0.646 OA
ENDBRANCH   5  17
ENDBRANCH   1   5
BRANCH   4  20
HETATM   20  C           1     -21.657  -5.512  -6.853  0.00  0.00     0.275 C 
BRANCH  20  21
HETATM   21  N           1     -22.557  -5.530  -5.653  0.00  0.00    -0.066 N 
HETATM   22  H           1     -23.555  -5.519  -5.965  0.00  0.00     0.275 HD
HETATM   23  H           1     -22.366  -4.690  -5.062  0.00  0.00     0.275 HD
HETATM   24  H           1     -22.376  -6.395  -5.095  0.00  0.00     0.275 HD
ENDBRANCH  20  21
BRANCH  20  25
HETATM   25  C           1     -21.730  -4.145  -7.520  0.00  0.00     0.052 C 
BRANCH  25  26
HETATM   26  C           1     -21.848  -4.321  -9.029  0.00  0.00     0.105 C 
BRANCH  26  27
HETATM   27  C           1     -23.155  -3.736  -9.503  0.00  0.00     0.215 C 
HETATM   28  N           1     -24.222  -3.661  -8.648  0.00  0.00    -0.370 N 
HETATM   29  H           1     -24.133  -3.997  -7.697  0.00  0.00     0.159 HD
HETATM   30  H           1     -25.099  -3.269  -8.966  0.00  0.00     0.159 HD
HETATM   31  O           1     -23.262  -3.335 -10.638  0.00  0.00    -0.274 OA
ENDBRANCH  26  27
ENDBRANCH  25  26
ENDBRANCH  20  25
ENDBRANCH   4  20
TORSDOF 9
ENDMDL
MODEL 4
REMARK VINA RESULT:      -7.4      2.447      7.734
REMARK  9 active torsions:
REMARK  status: ('A' for Active; 'I' for Inactive)
REMARK    1  A    between atoms: C_1  and  C_2 
REMARK    2  A    between atoms: C_1  and  C_19 
REMARK    3  A    between atoms: C_2  and  C_9 
REMARK    4  A    between atoms: C_2  and  N_11 
REMARK       I    between atoms: N_11  and  C_29 
REMARK    5  A    between atoms: C_14  and  C_31 
REMARK       I    between atoms: C_14  and  N_15 
REMARK    6  A    between atoms: N_17  and  C_28 
REMARK    7  A    between atoms: C_27  and  C_28 
REMARK    8  A    between atoms: C_27  and  C_31 
REMARK    9  A    between atoms: C_28  and  C_29 
ROOT
HETATM    1  N           1     -22.423  -6.323  -4.132  0.00  0.00    -0.344 N 
HETATM    2  H           1     -23.388  -6.025  -4.072  0.00  0.00     0.163 HD
HETATM    3  O           1     -20.999  -5.344  -2.717  0.00  0.00    -0.271 OA
HETATM    4  C           1     -21.638  -6.327  -3.011  0.00  0.00     0.249 C 
ENDROOT
BRANCH   1   5
HETATM    5  C           1     -21.871  -6.747  -5.404  0.00  0.00     0.190 C 
BRANCH   5   6
HETATM    6  C           1     -21.083  -5.599  -6.022  0.00  0.00     0.077 C 
BRANCH   6   7
HETATM    7  C           1     -21.896  -4.960  -7.104  0.00  0.00    -0.028 A 
HETATM    8  C           1     -23.207  -4.555  -7.002  0.00  0.00     0.096 A 
HETATM    9  N           1     -23.576  -4.022  -8.209  0.00  0.00    -0.365 N 
HETATM   10  C           1     -22.523  -4.075  -9.094  0.00  0.00     0.042 A 
HETATM   11  H           1     -24.526  -3.630  -8.427  0.00  0.00     0.165 HD
HETATM   12  C           1     -22.439  -3.651 -10.426  0.00  0.00     0.030 A 
HETATM   13  C           1     -21.451  -4.662  -8.422  0.00  0.00    -0.002 A 
HETATM   14  C           1     -21.220  -3.834 -11.087  0.00  0.00     0.002 A 
HETATM   15  C           1     -20.132  -4.418 -10.441  0.00  0.00     0.001 A 
HETATM   16  C           1     -20.234  -4.836  -9.108  0.00  0.00     0.014 A 
ENDBRANCH   6   7
ENDBRANCH   5   6
BRANCH   5  17
HETATM   17  C           1     -20.957  -7.927  -5.187  0.00  0.00     0.197 C 
HETATM   18  O           1     -19.723  -7.752  -5.094  0.00  0.00    -0.646 OA
HETATM   19  O           1     -21.433  -9.079  -5.099  0.00  0.00    -0.646 OA
ENDBRANCH   5  17
ENDBRANCH   1   5
BRANCH   4  20
HETATM   20  C           1     -21.569  -7.559  -2.141  0.00  0.00     0.275 C 
BRANCH  20  21
HETATM   21  N           1     -20.133  -7.896  -1.867  0.00  0.00    -0.066 N 
HETATM   22  H           1     -19.718  -8.361  -2.705  0.00  0.00     0.275 HD
HETATM   23  H           1     -20.078  -8.541  -1.046  0.00  0.00     0.275 HD
HETATM   24  H           1     -19.604  -7.020  -1.656  0.00  0.00     0.275 HD
ENDBRANCH  20  21
BRANCH  20  25
HETATM   25  C           1     -22.287  -7.292  -0.824  0.00  0.00     0.052 C 
BRANCH  25  26
HETATM   26  C           1     -21.875  -8.339   0.202  0.00  0.00     0.105 C 
BRANCH  26  27
HETATM   27  C           1     -22.652  -9.611  -0.037  0.00  0.00     0.215 C 
HETATM   28  N           1     -22.011 -10.726  -0.508  0.00  0.00    -0.370 N 
HETATM   29  H           1     -21.017 -10.697  -0.695  0.00  0.00     0.159 HD
HETATM   30  H           1     -22.532 -11.578  -0.668  0.00  0.00     0.159 HD
HETATM   31  O           1     -23.838  -9.645   0.186  0.00  0.00    -0.274 OA
ENDBRANCH  26  27
ENDBRANCH  25  26
ENDBRANCH  20  25
ENDBRANCH   4  20
TORSDOF 9
ENDMDL
MODEL 5
REMARK VINA RESULT:      -7.3     12.433     15.538
REMARK  9 active torsions:
REMARK  status: ('A' for Active; 'I' for Inactive)
REMARK    1  A    between atoms: C_1  and  C_2 
REMARK    2  A    between atoms: C_1  and  C_19 
REMARK    3  A    between atoms: C_2  and  C_9 
REMARK    4  A    between atoms: C_2  and  N_11 
REMARK       I    between atoms: N_11  and  C_29 
REMARK    5  A    between atoms: C_14  and  C_31 
REMARK       I    between atoms: C_14  and  N_15 
REMARK    6  A    between atoms: N_17  and  C_28 
REMARK    7  A    between atoms: C_27  and  C_28 
REMARK    8  A    between atoms: C_27  and  C_31 
REMARK    9  A    between atoms: C_28  and  C_29 
ROOT
HETATM    1  N           1     -26.796  -6.272 -18.102  0.00  0.00    -0.344 N 
HETATM    2  H           1     -26.902  -6.191 -19.105  0.00  0.00     0.163 HD
HETATM    3  O           1     -27.425  -4.500 -16.897  0.00  0.00    -0.271 OA
HETATM    4  C           1     -27.667  -5.624 -17.268  0.00  0.00     0.249 C 
ENDROOT
BRANCH   1   5
HETATM    5  C           1     -25.724  -7.075 -17.548  0.00  0.00     0.190 C 
BRANCH   5   6
HETATM    6  C           1     -24.429  -6.774 -18.291  0.00  0.00     0.077 C 
BRANCH   6   7
HETATM    7  C           1     -24.559  -7.206 -19.718  0.00  0.00    -0.028 A 
HETATM    8  C           1     -25.686  -7.093 -20.500  0.00  0.00     0.096 A 
HETATM    9  N           1     -25.390  -7.603 -21.737  0.00  0.00    -0.365 N 
HETATM   10  C           1     -24.087  -8.045 -21.770  0.00  0.00     0.042 A 
HETATM   11  H           1     -26.062  -7.649 -22.543  0.00  0.00     0.165 HD
HETATM   12  C           1     -23.357  -8.633 -22.811  0.00  0.00     0.030 A 
HETATM   13  C           1     -23.541  -7.807 -20.509  0.00  0.00    -0.002 A 
HETATM   14  C           1     -22.029  -8.985 -22.551  0.00  0.00     0.002 A 
HETATM   15  C           1     -21.457  -8.758 -21.300  0.00  0.00     0.001 A 
HETATM   16  C           1     -22.202  -8.169 -20.271  0.00  0.00     0.014 A 
ENDBRANCH   6   7
ENDBRANCH   5   6
BRANCH   5  17
HETATM   17  C           1     -25.554  -6.746 -16.086  0.00  0.00     0.197 C 
HETATM   18  O           1     -24.823  -5.792 -15.741  0.00  0.00    -0.646 OA
HETATM   19  O           1     -26.144  -7.425 -15.219  0.00  0.00    -0.646 OA
ENDBRANCH   5  17
ENDBRANCH   1   5
BRANCH   4  20
HETATM   20  C           1     -28.930  -6.314 -16.812  0.00  0.00     0.275 C 
BRANCH  20  21
HETATM   21  N           1     -29.185  -5.985 -15.370  0.00  0.00    -0.066 N 
HETATM   22  H           1     -30.181  -6.195 -15.135  0.00  0.00     0.275 HD
HETATM   23  H           1     -28.993  -4.971 -15.206  0.00  0.00     0.275 HD
HETATM   24  H           1     -28.555  -6.560 -14.766  0.00  0.00     0.275 HD
ENDBRANCH  20  21
BRANCH  20  25
HETATM   25  C           1     -30.104  -5.836 -17.655  0.00  0.00     0.052 C 
BRANCH  25  26
HETATM   26  C           1     -30.988  -4.917 -16.823  0.00  0.00     0.105 C 
BRANCH  26  27
HETATM   27  C           1     -31.050  -3.555 -17.471  0.00  0.00     0.215 C 
HETATM   28  N           1     -29.896  -2.856 -17.706  0.00  0.00    -0.370 N 
HETATM   29  H           1     -29.002  -3.253 -17.446  0.00  0.00     0.159 HD
HETATM   30  H           1     -29.938  -1.944 -18.141  0.00  0.00     0.159 HD
HETATM   31  O           1     -32.117  -3.082 -17.782  0.00  0.00    -0.274 OA
ENDBRANCH  26  27
ENDBRANCH  25  26
ENDBRANCH  20  25
ENDBRANCH   4  20
TORSDOF 9
ENDMDL
MODEL 6
REMARK VINA RESULT:      -7.2     12.649     15.406
REMARK  9 active torsions:
REMARK  status: ('A' for Active; 'I' for Inactive)
REMARK    1  A    between atoms: C_1  and  C_2 
REMARK    2  A    between atoms: C_1  and  C_19 
REMARK    3  A    between atoms: C_2  and  C_9 
REMARK    4  A    between atoms: C_2  and  N_11 
REMARK       I    between atoms: N_11  and  C_29 
REMARK    5  A    between atoms: C_14  and  C_31 
REMARK       I    between atoms: C_14  and  N_15 
REMARK    6  A    between atoms: N_17  and  C_28 
REMARK    7  A    between atoms: C_27  and  C_28 
REMARK    8  A    between atoms: C_27  and  C_31 
REMARK    9  A    between atoms: C_28  and  C_29 
ROOT
HETATM    1  N           1     -25.521  -7.189 -18.189  0.00  0.00    -0.344 N 
HETATM    2  H           1     -25.392  -8.152 -17.903  0.00  0.00     0.163 HD
HETATM    3  O           1     -23.766  -6.203 -19.156  0.00  0.00    -0.271 OA
HETATM    4  C           1     -24.857  -6.706 -19.284  0.00  0.00     0.249 C 
ENDROOT
BRANCH   1   5
HETATM    5  C           1     -26.410  -6.323 -17.440  0.00  0.00     0.190 C 
BRANCH   5   6
HETATM    6  C           1     -27.856  -6.684 -17.757  0.00  0.00     0.077 C 
BRANCH   6   7
HETATM    7  C           1     -28.718  -5.470 -17.607  0.00  0.00    -0.028 A 
HETATM    8  C           1     -28.292  -4.162 -17.644  0.00  0.00     0.096 A 
HETATM    9  N           1     -29.388  -3.359 -17.468  0.00  0.00    -0.365 N 
HETATM   10  C           1     -30.521  -4.126 -17.316  0.00  0.00     0.042 A 
HETATM   11  H           1     -29.366  -2.309 -17.450  0.00  0.00     0.165 HD
HETATM   12  C           1     -31.852  -3.744 -17.114  0.00  0.00     0.030 A 
HETATM   13  C           1     -30.126  -5.462 -17.400  0.00  0.00    -0.002 A 
HETATM   14  C           1     -32.806  -4.759 -16.995  0.00  0.00     0.002 A 
HETATM   15  C           1     -32.440  -6.102 -17.074  0.00  0.00     0.001 A 
HETATM   16  C           1     -31.103  -6.467 -17.277  0.00  0.00     0.014 A 
ENDBRANCH   6   7
ENDBRANCH   5   6
BRANCH   5  17
HETATM   17  C           1     -26.159  -6.503 -15.963  0.00  0.00     0.197 C 
HETATM   18  O           1     -25.242  -5.865 -15.403  0.00  0.00    -0.646 OA
HETATM   19  O           1     -26.869  -7.289 -15.299  0.00  0.00    -0.646 OA
ENDBRANCH   5  17
ENDBRANCH   1   5
BRANCH   4  20
HETATM   20  C           1     -25.488  -6.801 -20.652  0.00  0.00     0.275 C 
BRANCH  20  21
HETATM   21  N           1     -25.075  -5.616 -21.475  0.00  0.00    -0.066 N 
HETATM   22  H           1     -24.098  -5.342 -21.226  0.00  0.00     0.275 HD
HETATM   23  H           1     -25.722  -4.818 -21.284  0.00  0.00     0.275 HD
HETATM   24  H           1     -25.120  -5.865 -22.489  0.00  0.00     0.275 HD
ENDBRANCH  20  21
BRANCH  20  25
HETATM   25  C           1     -25.025  -8.080 -21.338  0.00  0.00     0.052 C 
BRANCH  25  26
HETATM   26  C           1     -23.944  -7.748 -22.358  0.00  0.00     0.105 C 
BRANCH  26  27
HETATM   27  C           1     -22.685  -8.510 -22.023  0.00  0.00     0.215 C 
HETATM   28  N           1     -22.239  -8.560 -20.730  0.00  0.00    -0.370 N 
HETATM   29  H           1     -22.754  -8.087 -19.998  0.00  0.00     0.159 HD
HETATM   30  H           1     -21.395  -9.071 -20.505  0.00  0.00     0.159 HD
HETATM   31  O           1     -22.070  -9.075 -22.896  0.00  0.00    -0.274 OA
ENDBRANCH  26  27
ENDBRANCH  25  26
ENDBRANCH  20  25
ENDBRANCH   4  20
TORSDOF 9
ENDMDL
MODEL 7
REMARK VINA RESULT:      -7.1      1.884      2.521
REMARK  9 active torsions:
REMARK  status: ('A' for Active; 'I' for Inactive)
REMARK    1  A    between atoms: C_1  and  C_2 
REMARK    2  A    between atoms: C_1  and  C_19 
REMARK    3  A    between atoms: C_2  and  C_9 
REMARK    4  A    between atoms: C_2  and  N_11 
REMARK       I    between atoms: N_11  and  C_29 
REMARK    5  A    between atoms: C_14  and  C_31 
REMARK       I    between atoms: C_14  and  N_15 
REMARK    6  A    between atoms: N_17  and  C_28 
REMARK    7  A    between atoms: C_27  and  C_28 
REMARK    8  A    between atoms: C_27  and  C_31 
REMARK    9  A    between atoms: C_28  and  C_29 
ROOT
HETATM    1  N           1     -21.073  -7.033  -6.779  0.00  0.00    -0.344 N 
HETATM    2  H           1     -20.893  -7.720  -7.501  0.00  0.00     0.163 HD
HETATM    3  O           1     -19.684  -5.286  -6.711  0.00  0.00    -0.271 OA
HETATM    4  C           1     -20.776  -5.716  -6.999  0.00  0.00     0.249 C 
ENDROOT
BRANCH   1   5
HETATM    5  C           1     -21.646  -7.446  -5.513  0.00  0.00     0.190 C 
BRANCH   5   6
HETATM    6  C           1     -20.534  -7.904  -4.578  0.00  0.00     0.077 C 
BRANCH   6   7
HETATM    7  C           1     -21.083  -8.885  -3.591  0.00  0.00    -0.028 A 
HETATM    8  C           1     -21.206 -10.243  -3.778  0.00  0.00     0.096 A 
HETATM    9  N           1     -21.750 -10.776  -2.640  0.00  0.00    -0.365 N 
HETATM   10  C           1     -21.984  -9.784  -1.715  0.00  0.00     0.042 A 
HETATM   11  H           1     -21.960 -11.795  -2.495  0.00  0.00     0.165 HD
HETATM   12  C           1     -22.524  -9.859  -0.425  0.00  0.00     0.030 A 
HETATM   13  C           1     -21.572  -8.581  -2.290  0.00  0.00    -0.002 A 
HETATM   14  C           1     -22.644  -8.667   0.296  0.00  0.00     0.002 A 
HETATM   15  C           1     -22.240  -7.450  -0.253  0.00  0.00     0.001 A 
HETATM   16  C           1     -21.703  -7.394  -1.545  0.00  0.00     0.014 A 
ENDBRANCH   6   7
ENDBRANCH   5   6
BRANCH   5  17
HETATM   17  C           1     -22.380  -6.283  -4.891  0.00  0.00     0.197 C 
HETATM   18  O           1     -21.803  -5.556  -4.054  0.00  0.00    -0.646 OA
HETATM   19  O           1     -23.564  -6.046  -5.213  0.00  0.00    -0.646 OA
ENDBRANCH   5  17
ENDBRANCH   1   5
BRANCH   4  20
HETATM   20  C           1     -21.812  -4.798  -7.601  0.00  0.00     0.275 C 
BRANCH  20  21
HETATM   21  N           1     -21.579  -3.397  -7.118  0.00  0.00    -0.066 N 
HETATM   22  H           1     -22.028  -3.271  -6.183  0.00  0.00     0.275 HD
HETATM   23  H           1     -21.993  -2.721  -7.799  0.00  0.00     0.275 HD
HETATM   24  H           1     -20.552  -3.224  -7.038  0.00  0.00     0.275 HD
ENDBRANCH  20  21
BRANCH  20  25
HETATM   25  C           1     -21.703  -4.835  -9.120  0.00  0.00     0.052 C 
BRANCH  25  26
HETATM   26  C           1     -22.507  -3.687  -9.716  0.00  0.00     0.105 C 
BRANCH  26  27
HETATM   27  C           1     -23.712  -4.237 -10.437  0.00  0.00     0.215 C 
HETATM   28  N           1     -24.890  -4.417  -9.762  0.00  0.00    -0.370 N 
HETATM   29  H           1     -24.952  -4.179  -8.780  0.00  0.00     0.159 HD
HETATM   30  H           1     -25.699  -4.786 -10.245  0.00  0.00     0.159 HD
HETATM   31  O           1     -23.639  -4.521 -11.609  0.00  0.00    -0.274 OA
ENDBRANCH  26  27
ENDBRANCH  25  26
ENDBRANCH  20  25
ENDBRANCH   4  20
TORSDOF 9
ENDMDL
MODEL 8
REMARK VINA RESULT:      -6.9      2.821      5.242
REMARK  9 active torsions:
REMARK  status: ('A' for Active; 'I' for Inactive)
REMARK    1  A    between atoms: C_1  and  C_2 
REMARK    2  A    between atoms: C_1  and  C_19 
REMARK    3  A    between atoms: C_2  and  C_9 
REMARK    4  A    between atoms: C_2  and  N_11 
REMARK       I    between atoms: N_11  and  C_29 
REMARK    5  A    between atoms: C_14  and  C_31 
REMARK       I    between atoms: C_14  and  N_15 
REMARK    6  A    between atoms: N_17  and  C_28 
REMARK    7  A    between atoms: C_27  and  C_28 
REMARK    8  A    between atoms: C_27  and  C_31 
REMARK    9  A    between atoms: C_28  and  C_29 
ROOT
HETATM    1  N           1     -20.832  -7.363  -2.185  0.00  0.00    -0.344 N 
HETATM    2  H           1     -19.895  -7.069  -1.938  0.00  0.00     0.163 HD
HETATM    3  O           1     -22.374  -5.751  -2.291  0.00  0.00    -0.271 OA
HETATM    4  C           1     -21.651  -6.518  -2.883  0.00  0.00     0.249 C 
ENDROOT
BRANCH   1   5
HETATM    5  C           1     -21.305  -8.678  -1.800  0.00  0.00     0.190 C 
BRANCH   5   6
HETATM    6  C           1     -20.166  -9.682  -1.920  0.00  0.00     0.077 C 
BRANCH   6   7
HETATM    7  C           1     -19.720  -9.765  -3.346  0.00  0.00    -0.028 A 
HETATM    8  C           1     -20.539  -9.885  -4.446  0.00  0.00     0.096 A 
HETATM    9  N           1     -19.742  -9.928  -5.559  0.00  0.00    -0.365 N 
HETATM   10  C           1     -18.416  -9.838  -5.199  0.00  0.00     0.042 A 
HETATM   11  H           1     -20.092 -10.018  -6.545  0.00  0.00     0.165 HD
HETATM   12  C           1     -17.261  -9.841  -5.990  0.00  0.00     0.030 A 
HETATM   13  C           1     -18.375  -9.735  -3.808  0.00  0.00    -0.002 A 
HETATM   14  C           1     -16.030  -9.733  -5.337  0.00  0.00     0.002 A 
HETATM   15  C           1     -15.958  -9.628  -3.949  0.00  0.00     0.001 A 
HETATM   16  C           1     -17.124  -9.627  -3.173  0.00  0.00     0.014 A 
ENDBRANCH   6   7
ENDBRANCH   5   6
BRANCH   5  17
HETATM   17  C           1     -21.793  -8.638  -0.373  0.00  0.00     0.197 C 
HETATM   18  O           1     -22.953  -8.248  -0.121  0.00  0.00    -0.646 OA
HETATM   19  O           1     -21.039  -8.997   0.556  0.00  0.00    -0.646 OA
ENDBRANCH   5  17
ENDBRANCH   1   5
BRANCH   4  20
HETATM   20  C           1     -21.653  -6.543  -4.393  0.00  0.00     0.275 C 
BRANCH  20  21
HETATM   21  N           1     -23.026  -6.205  -4.896  0.00  0.00    -0.066 N 
HETATM   22  H           1     -22.956  -5.805  -5.858  0.00  0.00     0.275 HD
HETATM   23  H           1     -23.468  -5.506  -4.257  0.00  0.00     0.275 HD
HETATM   24  H           1     -23.610  -7.071  -4.920  0.00  0.00     0.275 HD
ENDBRANCH  20  21
BRANCH  20  25
HETATM   25  C           1     -20.655  -5.520  -4.919  0.00  0.00     0.052 C 
BRANCH  25  26
HETATM   26  C           1     -20.368  -5.798  -6.389  0.00  0.00     0.105 C 
BRANCH  26  27
HETATM   27  C           1     -20.840  -4.633  -7.223  0.00  0.00     0.215 C 
HETATM   28  N           1     -19.946  -3.927  -7.983  0.00  0.00    -0.370 N 
HETATM   29  H           1     -18.968  -4.188  -7.985  0.00  0.00     0.159 HD
HETATM   30  H           1     -20.263  -3.146  -8.542  0.00  0.00     0.159 HD
HETATM   31  O           1     -22.008  -4.321  -7.220  0.00  0.00    -0.274 OA
ENDBRANCH  26  27
ENDBRANCH  25  26
ENDBRANCH  20  25
ENDBRANCH   4  20
TORSDOF 9
ENDMDL
MODEL 9
REMARK VINA RESULT:      -6.9     13.683     15.907
REMARK  9 active torsions:
REMARK  status: ('A' for Active; 'I' for Inactive)
REMARK    1  A    between atoms: C_1  and  C_2 
REMARK    2  A    between atoms: C_1  and  C_19 
REMARK    3  A    between atoms: C_2  and  C_9 
REMARK    4  A    between atoms: C_2  and  N_11 
REMARK       I    between atoms: N_11  and  C_29 
REMARK    5  A    between atoms: C_14  and  C_31 
REMARK       I    between atoms: C_14  and  N_15 
REMARK    6  A    between atoms: N_17  and  C_28 
REMARK    7  A    between atoms: C_27  and  C_28 
REMARK    8  A    between atoms: C_27  and  C_31 
REMARK    9  A    between atoms: C_28  and  C_29 
ROOT
HETATM    1  N           1     -33.675  -4.588 -15.709  0.00  0.00    -0.344 N 
HETATM    2  H           1     -34.299  -5.199 -16.220  0.00  0.00     0.163 HD
HETATM    3  O           1     -34.639  -2.956 -14.529  0.00  0.00    -0.271 OA
HETATM    4  C           1     -34.081  -4.027 -14.529  0.00  0.00     0.249 C 
ENDROOT
BRANCH   1   5
HETATM    5  C           1     -32.350  -4.307 -16.227  0.00  0.00     0.190 C 
BRANCH   5   6
HETATM    6  C           1     -31.732  -5.592 -16.763  0.00  0.00     0.077 C 
BRANCH   6   7
HETATM    7  C           1     -30.289  -5.653 -16.371  0.00  0.00    -0.028 A 
HETATM    8  C           1     -29.788  -5.521 -15.096  0.00  0.00     0.096 A 
HETATM    9  N           1     -28.425  -5.639 -15.167  0.00  0.00    -0.365 N 
HETATM   10  C           1     -28.033  -5.847 -16.470  0.00  0.00     0.042 A 
HETATM   11  H           1     -27.774  -5.580 -14.345  0.00  0.00     0.165 HD
HETATM   12  C           1     -26.754  -6.022 -17.013  0.00  0.00     0.030 A 
HETATM   13  C           1     -29.189  -5.860 -17.249  0.00  0.00    -0.002 A 
HETATM   14  C           1     -26.659  -6.218 -18.394  0.00  0.00     0.002 A 
HETATM   15  C           1     -27.798  -6.236 -19.197  0.00  0.00     0.001 A 
HETATM   16  C           1     -29.069  -6.058 -18.638  0.00  0.00     0.014 A 
ENDBRANCH   6   7
ENDBRANCH   5   6
BRANCH   5  17
HETATM   17  C           1     -32.451  -3.294 -17.341  0.00  0.00     0.197 C 
HETATM   18  O           1     -31.433  -2.984 -17.997  0.00  0.00    -0.646 OA
HETATM   19  O           1     -33.551  -2.766 -17.608  0.00  0.00    -0.646 OA
ENDBRANCH   5  17
ENDBRANCH   1   5
BRANCH   4  20
HETATM   20  C           1     -33.832  -4.748 -13.226  0.00  0.00     0.275 C 
BRANCH  20  21
HETATM   21  N           1     -32.409  -4.534 -12.801  0.00  0.00    -0.066 N 
HETATM   22  H           1     -31.843  -4.221 -13.623  0.00  0.00     0.275 HD
HETATM   23  H           1     -32.019  -5.429 -12.429  0.00  0.00     0.275 HD
HETATM   24  H           1     -32.375  -3.803 -12.055  0.00  0.00     0.275 HD
ENDBRANCH  20  21
BRANCH  20  25
HETATM   25  C           1     -34.767  -4.201 -12.155  0.00  0.00     0.052 C 
BRANCH  25  26
HETATM   26  C           1     -33.948  -3.662 -10.990  0.00  0.00     0.105 C 
BRANCH  26  27
HETATM   27  C           1     -33.941  -2.154 -11.034  0.00  0.00     0.215 C 
HETATM   28  N           1     -34.789  -1.490 -11.880  0.00  0.00    -0.370 N 
HETATM   29  H           1     -35.421  -2.011 -12.474  0.00  0.00     0.159 HD
HETATM   30  H           1     -34.785  -0.479 -11.909  0.00  0.00     0.159 HD
HETATM   31  O           1     -33.186  -1.532 -10.325  0.00  0.00    -0.274 OA
ENDBRANCH  26  27
ENDBRANCH  25  26
ENDBRANCH  20  25
ENDBRANCH   4  20
TORSDOF 9
ENDMDL
