MODEL 1
REMARK VINA RESULT:      -5.0      0.000      0.000
REMARK  6 active torsions:
REMARK  status: ('A' for Active; 'I' for Inactive)
REMARK    1  A    between atoms: C_1  and  O_6 
REMARK    2  A    between atoms: C_1  and  C_2 
REMARK    3  A    between atoms: C_2  and  C_9 
REMARK    4  A    between atoms: C_2  and  N_15 
REMARK    5  A    between atoms: N_10  and  C_14 
REMARK    6  A    between atoms: C_14  and  C_16 
REMARK       I    between atoms: N_15  and  C_16 
ROOT
HETATM    1  H           1     -22.299  -5.889  -9.277  0.00  0.00     0.163 HD
HETATM    2  O           1     -21.704  -3.305  -7.603  0.00  0.00    -0.272 OA
HETATM    3  N           1     -22.227  -4.901  -9.074  0.00  0.00    -0.343 N 
HETATM    4  C           1     -21.790  -4.485  -7.844  0.00  0.00     0.243 C 
ENDROOT
BRANCH   3   5
HETATM    5  C           1     -22.585  -3.925 -10.085  0.00  0.00     0.209 C 
BRANCH   5   6
HETATM    6  C           1     -21.932  -4.303 -11.408  0.00  0.00     0.200 C 
BRANCH   6   7
HETATM    7  O           1     -22.924  -4.653 -12.336  0.00  0.00    -0.398 OA
HETATM    8  H           1     -22.710  -5.513 -12.654  0.00  0.00     0.209 HD
ENDBRANCH   6   7
ENDBRANCH   5   6
BRANCH   5   9
HETATM    9  C           1     -24.085  -3.903 -10.251  0.00  0.00     0.198 C 
HETATM   10  O           1     -24.643  -2.903 -10.754  0.00  0.00    -0.646 OA
HETATM   11  O           1     -24.769  -4.883  -9.888  0.00  0.00    -0.646 OA
ENDBRANCH   5   9
ENDBRANCH   3   5
BRANCH   4  12
HETATM   12  C           1     -21.418  -5.501  -6.793  0.00  0.00     0.332 C 
BRANCH  12  13
HETATM   13  N           1     -20.240  -6.300  -7.265  0.00  0.00    -0.071 N 
HETATM   14  H           1     -19.448  -6.184  -6.592  0.00  0.00     0.274 HD
HETATM   15  H           1     -20.503  -7.310  -7.320  0.00  0.00     0.274 HD
HETATM   16  H           1     -19.946  -5.964  -8.210  0.00  0.00     0.274 HD
ENDBRANCH  12  13
ENDBRANCH   4  12
TORSDOF 6
ENDMDL
MODEL 2
REMARK VINA RESULT:      -4.8      9.118     10.843
REMARK  6 active torsions:
REMARK  status: ('A' for Active; 'I' for Inactive)
REMARK    1  A    between atoms: C_1  and  O_6 
REMARK    2  A    between atoms: C_1  and  C_2 
REMARK    3  A    between atoms: C_2  and  C_9 
REMARK    4  A    between atoms: C_2  and  N_15 
REMARK    5  A    between atoms: N_10  and  C_14 
REMARK    6  A    between atoms: C_14  and  C_16 
REMARK       I    between atoms: N_15  and  C_16 
ROOT
HETATM    1  H           1     -28.894  -4.306 -16.999  0.00  0.00     0.163 HD
HETATM    2  O           1     -31.022  -6.586 -17.337  0.00  0.00    -0.272 OA
HETATM    3  N           1     -29.249  -5.242 -17.151  0.00  0.00    -0.343 N 
HETATM    4  C           1     -30.599  -5.469 -17.155  0.00  0.00     0.243 C 
ENDROOT
BRANCH   3   5
HETATM    5  C           1     -28.327  -6.340 -17.364  0.00  0.00     0.209 C 
BRANCH   5   6
HETATM    6  C           1     -27.772  -6.269 -18.780  0.00  0.00     0.200 C 
BRANCH   6   7
HETATM    7  O           1     -26.433  -6.686 -18.779  0.00  0.00    -0.398 OA
HETATM    8  H           1     -25.929  -5.987 -18.400  0.00  0.00     0.209 HD
ENDBRANCH   6   7
ENDBRANCH   5   6
BRANCH   5   9
HETATM    9  C           1     -27.194  -6.243 -16.372  0.00  0.00     0.198 C 
HETATM   10  O           1     -26.476  -5.220 -16.342  0.00  0.00    -0.646 OA
HETATM   11  O           1     -26.973  -7.185 -15.581  0.00  0.00    -0.646 OA
ENDBRANCH   5   9
ENDBRANCH   3   5
BRANCH   4  12
HETATM   12  C           1     -31.558  -4.325 -16.934  0.00  0.00     0.332 C 
BRANCH  12  13
HETATM   13  N           1     -31.091  -3.125 -17.702  0.00  0.00    -0.071 N 
HETATM   14  H           1     -31.039  -3.360 -18.719  0.00  0.00     0.274 HD
HETATM   15  H           1     -31.763  -2.337 -17.561  0.00  0.00     0.274 HD
HETATM   16  H           1     -30.144  -2.840 -17.361  0.00  0.00     0.274 HD
ENDBRANCH  12  13
ENDBRANCH   4  12
TORSDOF 6
ENDMDL
MODEL 3
REMARK VINA RESULT:      -4.8      1.446      2.222
REMARK  6 active torsions:
REMARK  status: ('A' for Active; 'I' for Inactive)
REMARK    1  A    between atoms: C_1  and  O_6 
REMARK    2  A    between atoms: C_1  and  C_2 
REMARK    3  A    between atoms: C_2  and  C_9 
REMARK    4  A    between atoms: C_2  and  N_15 
REMARK    5  A    between atoms: N_10  and  C_14 
REMARK    6  A    between atoms: C_14  and  C_16 
REMARK       I    between atoms: N_15  and  C_16 
ROOT
HETATM    1  H           1     -22.771  -2.555  -8.324  0.00  0.00     0.163 HD
HETATM    2  O           1     -21.615  -5.469  -8.218  0.00  0.00    -0.272 OA
HETATM    3  N           1     -22.662  -3.529  -8.575  0.00  0.00    -0.343 N 
HETATM    4  C           1     -21.745  -4.306  -7.919  0.00  0.00     0.243 C 
ENDROOT
BRANCH   3   5
HETATM    5  C           1     -23.476  -4.101  -9.630  0.00  0.00     0.209 C 
BRANCH   5   6
HETATM    6  C           1     -24.840  -3.423  -9.642  0.00  0.00     0.200 C 
BRANCH   6   7
HETATM    7  O           1     -25.205  -3.132 -10.964  0.00  0.00    -0.398 OA
HETATM    8  H           1     -25.730  -3.853 -11.268  0.00  0.00     0.209 HD
ENDBRANCH   6   7
ENDBRANCH   5   6
BRANCH   5   9
HETATM    9  C           1     -22.796  -3.890 -10.960  0.00  0.00     0.198 C 
HETATM   10  O           1     -22.087  -2.877 -11.145  0.00  0.00    -0.646 OA
HETATM   11  O           1     -22.940  -4.728 -11.876  0.00  0.00    -0.646 OA
ENDBRANCH   5   9
ENDBRANCH   3   5
BRANCH   4  12
HETATM   12  C           1     -20.898  -3.710  -6.822  0.00  0.00     0.332 C 
BRANCH  12  13
HETATM   13  N           1     -20.534  -4.778  -5.834  0.00  0.00    -0.071 N 
HETATM   14  H           1     -19.959  -4.362  -5.067  0.00  0.00     0.274 HD
HETATM   15  H           1     -21.405  -5.190  -5.431  0.00  0.00     0.274 HD
HETATM   16  H           1     -19.985  -5.525  -6.316  0.00  0.00     0.274 HD
ENDBRANCH  12  13
ENDBRANCH   4  12
TORSDOF 6
ENDMDL
MODEL 4
REMARK VINA RESULT:      -4.8      8.068      9.476
REMARK  6 active torsions:
REMARK  status: ('A' for Active; 'I' for Inactive)
REMARK    1  A    between atoms: C_1  and  O_6 
REMARK    2  A    between atoms: C_1  and  C_2 
REMARK    3  A    between atoms: C_2  and  C_9 
REMARK    4  A    between atoms: C_2  and  N_15 
REMARK    5  A    between atoms: N_10  and  C_14 
REMARK    6  A    between atoms: C_14  and  C_16 
REMARK       I    between atoms: N_15  and  C_16 
ROOT
HETATM    1  H           1     -26.068  -5.183 -17.179  0.00  0.00     0.163 HD
HETATM    2  O           1     -27.136  -7.482 -15.332  0.00  0.00    -0.272 OA
HETATM    3  N           1     -26.747  -5.772 -16.713  0.00  0.00    -0.343 N 
HETATM    4  C           1     -26.326  -6.780 -15.888  0.00  0.00     0.243 C 
ENDROOT
BRANCH   3   5
HETATM    5  C           1     -28.164  -5.547 -16.920  0.00  0.00     0.209 C 
BRANCH   5   6
HETATM    6  C           1     -28.441  -4.049 -16.945  0.00  0.00     0.200 C 
BRANCH   6   7
HETATM    7  O           1     -29.249  -3.741 -18.049  0.00  0.00    -0.398 OA
HETATM    8  H           1     -30.116  -3.581 -17.718  0.00  0.00     0.209 HD
ENDBRANCH   6   7
ENDBRANCH   5   6
BRANCH   5   9
HETATM    9  C           1     -28.583  -6.159 -18.234  0.00  0.00     0.198 C 
HETATM   10  O           1     -27.804  -6.135 -19.211  0.00  0.00    -0.646 OA
HETATM   11  O           1     -29.709  -6.690 -18.345  0.00  0.00    -0.646 OA
ENDBRANCH   5   9
ENDBRANCH   3   5
BRANCH   4  12
HETATM   12  C           1     -24.851  -7.014 -15.674  0.00  0.00     0.332 C 
BRANCH  12  13
HETATM   13  N           1     -24.266  -7.666 -16.891  0.00  0.00    -0.071 N 
HETATM   14  H           1     -23.266  -7.909 -16.710  0.00  0.00     0.274 HD
HETATM   15  H           1     -24.801  -8.536 -17.112  0.00  0.00     0.274 HD
HETATM   16  H           1     -24.323  -7.007 -17.701  0.00  0.00     0.274 HD
ENDBRANCH  12  13
ENDBRANCH   4  12
TORSDOF 6
ENDMDL
MODEL 5
REMARK VINA RESULT:      -4.7      8.228      9.494
REMARK  6 active torsions:
REMARK  status: ('A' for Active; 'I' for Inactive)
REMARK    1  A    between atoms: C_1  and  O_6 
REMARK    2  A    between atoms: C_1  and  C_2 
REMARK    3  A    between atoms: C_2  and  C_9 
REMARK    4  A    between atoms: C_2  and  N_15 
REMARK    5  A    between atoms: N_10  and  C_14 
REMARK    6  A    between atoms: C_14  and  C_16 
REMARK       I    between atoms: N_15  and  C_16 
ROOT
HETATM    1  H           1     -27.526  -6.887 -15.562  0.00  0.00     0.163 HD
HETATM    2  O           1     -25.737  -6.297 -18.069  0.00  0.00    -0.272 OA
HETATM    3  N           1     -27.300  -6.591 -16.502  0.00  0.00    -0.343 N 
HETATM    4  C           1     -26.006  -6.649 -16.946  0.00  0.00     0.243 C 
ENDROOT
BRANCH   3   5
HETATM    5  C           1     -28.347  -6.106 -17.381  0.00  0.00     0.209 C 
BRANCH   5   6
HETATM    6  C           1     -29.655  -6.811 -17.047  0.00  0.00     0.200 C 
BRANCH   6   7
HETATM    7  O           1     -30.487  -5.938 -16.331  0.00  0.00    -0.398 OA
HETATM    8  H           1     -30.525  -6.259 -15.447  0.00  0.00     0.209 HD
ENDBRANCH   6   7
ENDBRANCH   5   6
BRANCH   5   9
HETATM    9  C           1     -28.513  -4.619 -17.191  0.00  0.00     0.198 C 
HETATM   10  O           1     -28.031  -4.060 -16.181  0.00  0.00    -0.646 OA
HETATM   11  O           1     -29.131  -3.945 -18.042  0.00  0.00    -0.646 OA
ENDBRANCH   5   9
ENDBRANCH   3   5
BRANCH   4  12
HETATM   12  C           1     -24.917  -7.153 -16.031  0.00  0.00     0.332 C 
BRANCH  12  13
HETATM   13  N           1     -23.796  -7.719 -16.852  0.00  0.00    -0.071 N 
HETATM   14  H           1     -23.934  -8.748 -16.969  0.00  0.00     0.274 HD
HETATM   15  H           1     -23.786  -7.260 -17.791  0.00  0.00     0.274 HD
HETATM   16  H           1     -22.886  -7.542 -16.368  0.00  0.00     0.274 HD
ENDBRANCH  12  13
ENDBRANCH   4  12
TORSDOF 6
ENDMDL
MODEL 6
REMARK VINA RESULT:      -4.6      8.279      9.184
REMARK  6 active torsions:
REMARK  status: ('A' for Active; 'I' for Inactive)
REMARK    1  A    between atoms: C_1  and  O_6 
REMARK    2  A    between atoms: C_1  and  C_2 
REMARK    3  A    between atoms: C_2  and  C_9 
REMARK    4  A    between atoms: C_2  and  N_15 
REMARK    5  A    between atoms: N_10  and  C_14 
REMARK    6  A    between atoms: C_14  and  C_16 
REMARK       I    between atoms: N_15  and  C_16 
ROOT
HETATM    1  H           1     -26.701  -7.260 -17.992  0.00  0.00     0.163 HD
HETATM    2  O           1     -25.167  -5.720 -15.731  0.00  0.00    -0.272 OA
HETATM    3  N           1     -26.554  -6.589 -17.249  0.00  0.00    -0.343 N 
HETATM    4  C           1     -25.342  -6.522 -16.617  0.00  0.00     0.243 C 
ENDROOT
BRANCH   3   5
HETATM    5  C           1     -27.628  -5.697 -16.856  0.00  0.00     0.209 C 
BRANCH   5   6
HETATM    6  C           1     -28.472  -5.351 -18.076  0.00  0.00     0.200 C 
BRANCH   6   7
HETATM    7  O           1     -29.671  -6.077 -18.036  0.00  0.00    -0.398 OA
HETATM    8  H           1     -30.072  -5.992 -18.884  0.00  0.00     0.209 HD
ENDBRANCH   6   7
ENDBRANCH   5   6
BRANCH   5   9
HETATM    9  C           1     -28.491  -6.376 -15.822  0.00  0.00     0.198 C 
HETATM   10  O           1     -29.277  -5.700 -15.122  0.00  0.00    -0.646 OA
HETATM   11  O           1     -28.422  -7.614 -15.665  0.00  0.00    -0.646 OA
ENDBRANCH   5   9
ENDBRANCH   3   5
BRANCH   4  12
HETATM   12  C           1     -24.225  -7.451 -17.026  0.00  0.00     0.332 C 
BRANCH  12  13
HETATM   13  N           1     -24.148  -7.511 -18.523  0.00  0.00    -0.071 N 
HETATM   14  H           1     -25.013  -7.091 -18.934  0.00  0.00     0.274 HD
HETATM   15  H           1     -23.312  -6.977 -18.851  0.00  0.00     0.274 HD
HETATM   16  H           1     -24.066  -8.508 -18.828  0.00  0.00     0.274 HD
ENDBRANCH  12  13
ENDBRANCH   4  12
TORSDOF 6
ENDMDL
MODEL 7
REMARK VINA RESULT:      -4.4      9.168     10.682
REMARK  6 active torsions:
REMARK  status: ('A' for Active; 'I' for Inactive)
REMARK    1  A    between atoms: C_1  and  O_6 
REMARK    2  A    between atoms: C_1  and  C_2 
REMARK    3  A    between atoms: C_2  and  C_9 
REMARK    4  A    between atoms: C_2  and  N_15 
REMARK    5  A    between atoms: N_10  and  C_14 
REMARK    6  A    between atoms: C_14  and  C_16 
REMARK       I    between atoms: N_15  and  C_16 
ROOT
HETATM    1  H           1     -26.198  -7.192 -17.868  0.00  0.00     0.163 HD
HETATM    2  O           1     -26.932  -5.943 -20.650  0.00  0.00    -0.272 OA
HETATM    3  N           1     -26.710  -6.634 -18.539  0.00  0.00    -0.343 N 
HETATM    4  C           1     -26.319  -6.609 -19.851  0.00  0.00     0.243 C 
ENDROOT
BRANCH   3   5
HETATM    5  C           1     -27.859  -5.861 -18.109  0.00  0.00     0.209 C 
BRANCH   5   6
HETATM    6  C           1     -29.042  -6.793 -17.882  0.00  0.00     0.200 C 
BRANCH   6   7
HETATM    7  O           1     -28.727  -7.709 -16.869  0.00  0.00    -0.398 OA
HETATM    8  H           1     -28.762  -7.239 -16.053  0.00  0.00     0.209 HD
ENDBRANCH   6   7
ENDBRANCH   5   6
BRANCH   5   9
HETATM    9  C           1     -27.529  -5.143 -16.824  0.00  0.00     0.198 C 
HETATM   10  O           1     -26.793  -5.690 -15.974  0.00  0.00    -0.646 OA
HETATM   11  O           1     -27.990  -4.002 -16.609  0.00  0.00    -0.646 OA
ENDBRANCH   5   9
ENDBRANCH   3   5
BRANCH   4  12
HETATM   12  C           1     -25.123  -7.414 -20.297  0.00  0.00     0.332 C 
BRANCH  12  13
HETATM   13  N           1     -24.196  -7.616 -19.136  0.00  0.00    -0.071 N 
HETATM   14  H           1     -23.343  -8.130 -19.456  0.00  0.00     0.274 HD
HETATM   15  H           1     -23.916  -6.687 -18.748  0.00  0.00     0.274 HD
HETATM   16  H           1     -24.680  -8.172 -18.395  0.00  0.00     0.274 HD
ENDBRANCH  12  13
ENDBRANCH   4  12
TORSDOF 6
ENDMDL
MODEL 8
REMARK VINA RESULT:      -4.2     10.537     11.402
REMARK  6 active torsions:
REMARK  status: ('A' for Active; 'I' for Inactive)
REMARK    1  A    between atoms: C_1  and  O_6 
REMARK    2  A    between atoms: C_1  and  C_2 
REMARK    3  A    between atoms: C_2  and  C_9 
REMARK    4  A    between atoms: C_2  and  N_15 
REMARK    5  A    between atoms: N_10  and  C_14 
REMARK    6  A    between atoms: C_14  and  C_16 
REMARK       I    between atoms: N_15  and  C_16 
ROOT
HETATM    1  H           1     -28.074  -6.885 -20.069  0.00  0.00     0.163 HD
HETATM    2  O           1     -26.015  -6.212 -17.801  0.00  0.00    -0.272 OA
HETATM    3  N           1     -27.748  -6.607 -19.153  0.00  0.00    -0.343 N 
HETATM    4  C           1     -26.404  -6.544 -18.894  0.00  0.00     0.243 C 
ENDROOT
BRANCH   3   5
HETATM    5  C           1     -28.703  -6.276 -18.113  0.00  0.00     0.209 C 
BRANCH   5   6
HETATM    6  C           1     -29.266  -4.883 -18.367  0.00  0.00     0.200 C 
BRANCH   6   7
HETATM    7  O           1     -29.770  -4.357 -17.169  0.00  0.00    -0.398 OA
HETATM    8  H           1     -30.146  -5.076 -16.691  0.00  0.00     0.209 HD
ENDBRANCH   6   7
ENDBRANCH   5   6
BRANCH   5   9
HETATM    9  C           1     -29.826  -7.283 -18.124  0.00  0.00     0.198 C 
HETATM   10  O           1     -29.748  -8.298 -18.850  0.00  0.00    -0.646 OA
HETATM   11  O           1     -30.834  -7.104 -17.408  0.00  0.00    -0.646 OA
ENDBRANCH   5   9
ENDBRANCH   3   5
BRANCH   4  12
HETATM   12  C           1     -25.411  -6.889 -19.977  0.00  0.00     0.332 C 
BRANCH  12  13
HETATM   13  N           1     -25.952  -8.010 -20.813  0.00  0.00    -0.071 N 
HETATM   14  H           1     -25.170  -8.643 -21.096  0.00  0.00     0.274 HD
HETATM   15  H           1     -26.654  -8.551 -20.259  0.00  0.00     0.274 HD
HETATM   16  H           1     -26.410  -7.618 -21.667  0.00  0.00     0.274 HD
ENDBRANCH  12  13
ENDBRANCH   4  12
TORSDOF 6
ENDMDL
MODEL 9
REMARK VINA RESULT:      -4.2      2.350      4.741
REMARK  6 active torsions:
REMARK  status: ('A' for Active; 'I' for Inactive)
REMARK    1  A    between atoms: C_1  and  O_6 
REMARK    2  A    between atoms: C_1  and  C_2 
REMARK    3  A    between atoms: C_2  and  C_9 
REMARK    4  A    between atoms: C_2  and  N_15 
REMARK    5  A    between atoms: N_10  and  C_14 
REMARK    6  A    between atoms: C_14  and  C_16 
REMARK       I    between atoms: N_15  and  C_16 
ROOT
HETATM    1  H           1     -22.985  -3.979  -7.116  0.00  0.00     0.163 HD
HETATM    2  O           1     -22.224  -4.719 -10.067  0.00  0.00    -0.272 OA
HETATM    3  N           1     -22.458  -4.401  -7.870  0.00  0.00    -0.343 N 
HETATM    4  C           1     -22.854  -4.217  -9.168  0.00  0.00     0.243 C 
ENDROOT
BRANCH   3   5
HETATM    5  C           1     -21.283  -5.198  -7.575  0.00  0.00     0.209 C 
BRANCH   5   6
HETATM    6  C           1     -20.125  -4.279  -7.208  0.00  0.00     0.200 C 
BRANCH   6   7
HETATM    7  O           1     -19.646  -4.618  -5.934  0.00  0.00    -0.398 OA
HETATM    8  H           1     -20.233  -4.229  -5.308  0.00  0.00     0.209 HD
ENDBRANCH   6   7
ENDBRANCH   5   6
BRANCH   5   9
HETATM    9  C           1     -21.580  -6.121  -6.419  0.00  0.00     0.198 C 
HETATM   10  O           1     -22.345  -5.749  -5.503  0.00  0.00    -0.646 OA
HETATM   11  O           1     -21.064  -7.258  -6.379  0.00  0.00    -0.646 OA
ENDBRANCH   5   9
ENDBRANCH   3   5
BRANCH   4  12
HETATM   12  C           1     -24.076  -3.387  -9.473  0.00  0.00     0.332 C 
BRANCH  12  13
HETATM   13  N           1     -25.276  -4.281  -9.572  0.00  0.00    -0.071 N 
HETATM   14  H           1     -25.593  -4.330 -10.567  0.00  0.00     0.274 HD
HETATM   15  H           1     -25.024  -5.240  -9.240  0.00  0.00     0.274 HD
HETATM   16  H           1     -26.047  -3.898  -8.979  0.00  0.00     0.274 HD
ENDBRANCH  12  13
ENDBRANCH   4  12
TORSDOF 6
ENDMDL
