MODEL 1
REMARK VINA RESULT:      -7.4      0.000      0.000
REMARK  9 active torsions:
REMARK  status: ('A' for Active; 'I' for Inactive)
REMARK    1  A    between atoms: C_2  and  C_10 
REMARK    2  A    between atoms: C_2  and  S_3 
REMARK    3  A    between atoms: N_7  and  C_27 
REMARK       I    between atoms: N_7  and  C_11 
REMARK    4  A    between atoms: C_8  and  C_27 
REMARK    5  A    between atoms: C_8  and  C_18 
REMARK    6  A    between atoms: C_10  and  C_23 
REMARK    7  A    between atoms: C_11  and  C_23 
REMARK    8  A    between atoms: N_16  and  C_23 
REMARK    9  A    between atoms: C_21  and  C_27 
ROOT
HETATM    1  C           1     -21.888  -6.786  -5.383  0.00  0.00     0.190 C 
ENDROOT
BRANCH   1   2
HETATM    2  N           1     -22.478  -6.332  -4.139  0.00  0.00    -0.344 N 
HETATM    3  C           1     -21.724  -6.295  -2.997  0.00  0.00     0.249 C 
HETATM    4  O           1     -21.104  -5.297  -2.715  0.00  0.00    -0.271 OA
HETATM    5  H           1     -23.448  -6.044  -4.114  0.00  0.00     0.163 HD
BRANCH   3   6
HETATM    6  C           1     -21.666  -7.500  -2.090  0.00  0.00     0.275 C 
BRANCH   6   7
HETATM    7  C           1     -22.349  -7.175  -0.769  0.00  0.00     0.053 C 
BRANCH   7   8
HETATM    8  C           1     -22.029  -8.261   0.250  0.00  0.00     0.076 C 
BRANCH   8   9
HETATM    9  S           1     -22.963  -9.764  -0.153  0.00  0.00    -0.173 SA
HETATM   10  C           1     -21.601 -10.929   0.137  0.00  0.00     0.089 C 
ENDBRANCH   8   9
ENDBRANCH   7   8
ENDBRANCH   6   7
BRANCH   6  11
HETATM   11  N           1     -20.232  -7.864  -1.835  0.00  0.00    -0.066 N 
HETATM   12  H           1     -19.702  -7.841  -2.735  0.00  0.00     0.275 HD
HETATM   13  H           1     -20.184  -8.824  -1.425  0.00  0.00     0.275 HD
HETATM   14  H           1     -19.813  -7.177  -1.167  0.00  0.00     0.275 HD
ENDBRANCH   6  11
ENDBRANCH   3   6
ENDBRANCH   1   2
BRANCH   1  15
HETATM   15  C           1     -21.080  -5.653  -6.004  0.00  0.00     0.077 C 
BRANCH  15  16
HETATM   16  C           1     -21.885  -5.001  -7.085  0.00  0.00    -0.028 A 
HETATM   17  C           1     -21.431  -4.693  -8.397  0.00  0.00    -0.002 A 
HETATM   18  C           1     -22.497  -4.095  -9.071  0.00  0.00     0.042 A 
HETATM   19  C           1     -20.210  -4.866  -9.078  0.00  0.00     0.014 A 
HETATM   20  C           1     -22.404  -3.660 -10.398  0.00  0.00     0.030 A 
HETATM   21  N           1     -23.555  -4.047  -8.191  0.00  0.00    -0.365 N 
HETATM   22  C           1     -21.182  -3.842 -11.053  0.00  0.00     0.002 A 
HETATM   23  C           1     -20.100  -4.436 -10.406  0.00  0.00     0.001 A 
HETATM   24  H           1     -24.502  -3.650  -8.411  0.00  0.00     0.165 HD
HETATM   25  C           1     -23.195  -4.592  -6.987  0.00  0.00     0.096 A 
ENDBRANCH  15  16
ENDBRANCH   1  15
BRANCH   1  26
HETATM   26  C           1     -20.980  -7.961  -5.110  0.00  0.00     0.197 C 
HETATM   27  O           1     -19.748  -7.786  -5.001  0.00  0.00    -0.646 OA
HETATM   28  O           1     -21.461  -9.108  -4.995  0.00  0.00    -0.646 OA
ENDBRANCH   1  26
TORSDOF 9
ENDMDL
MODEL 2
REMARK VINA RESULT:      -7.3      3.019      7.530
REMARK  9 active torsions:
REMARK  status: ('A' for Active; 'I' for Inactive)
REMARK    1  A    between atoms: C_2  and  C_10 
REMARK    2  A    between atoms: C_2  and  S_3 
REMARK    3  A    between atoms: N_7  and  C_27 
REMARK       I    between atoms: N_7  and  C_11 
REMARK    4  A    between atoms: C_8  and  C_27 
REMARK    5  A    between atoms: C_8  and  C_18 
REMARK    6  A    between atoms: C_10  and  C_23 
REMARK    7  A    between atoms: C_11  and  C_23 
REMARK    8  A    between atoms: N_16  and  C_23 
REMARK    9  A    between atoms: C_21  and  C_27 
ROOT
HETATM    1  C           1     -20.061  -7.384  -5.306  0.00  0.00     0.190 C 
ENDROOT
BRANCH   1   2
HETATM    2  N           1     -20.101  -6.940  -6.685  0.00  0.00    -0.344 N 
HETATM    3  C           1     -20.175  -5.603  -6.972  0.00  0.00     0.249 C 
HETATM    4  O           1     -19.163  -4.957  -7.110  0.00  0.00    -0.271 OA
HETATM    5  H           1     -20.074  -7.617  -7.437  0.00  0.00     0.163 HD
BRANCH   3   6
HETATM    6  C           1     -21.522  -4.936  -7.115  0.00  0.00     0.275 C 
BRANCH   6   7
HETATM    7  C           1     -21.979  -5.020  -8.565  0.00  0.00     0.053 C 
BRANCH   7   8
HETATM    8  C           1     -22.397  -3.637  -9.048  0.00  0.00     0.076 C 
BRANCH   8   9
HETATM    9  S           1     -24.101  -3.702  -9.671  0.00  0.00    -0.173 SA
HETATM   10  C           1     -23.784  -4.903 -10.995  0.00  0.00     0.089 C 
ENDBRANCH   8   9
ENDBRANCH   7   8
ENDBRANCH   6   7
BRANCH   6  11
HETATM   11  N           1     -21.410  -3.495  -6.710  0.00  0.00    -0.066 N 
HETATM   12  H           1     -22.294  -3.197  -6.238  0.00  0.00     0.275 HD
HETATM   13  H           1     -21.250  -2.906  -7.557  0.00  0.00     0.275 HD
HETATM   14  H           1     -20.608  -3.381  -6.049  0.00  0.00     0.275 HD
ENDBRANCH   6  11
ENDBRANCH   3   6
ENDBRANCH   1   2
BRANCH   1  15
HETATM   15  C           1     -21.452  -7.837  -4.879  0.00  0.00     0.077 C 
BRANCH  15  16
HETATM   16  C           1     -21.755  -7.300  -3.516  0.00  0.00    -0.028 A 
HETATM   17  C           1     -21.827  -8.057  -2.313  0.00  0.00    -0.002 A 
HETATM   18  C           1     -22.133  -7.165  -1.284  0.00  0.00     0.042 A 
HETATM   19  C           1     -21.660  -9.420  -2.002  0.00  0.00     0.014 A 
HETATM   20  C           1     -22.281  -7.571   0.048  0.00  0.00     0.030 A 
HETATM   21  N           1     -22.241  -5.915  -1.851  0.00  0.00    -0.365 N 
HETATM   22  C           1     -22.111  -8.929   0.332  0.00  0.00     0.002 A 
HETATM   23  C           1     -21.805  -9.842  -0.675  0.00  0.00     0.001 A 
HETATM   24  H           1     -22.465  -5.034  -1.325  0.00  0.00     0.165 HD
HETATM   25  C           1     -22.015  -5.985  -3.200  0.00  0.00     0.096 A 
ENDBRANCH  15  16
ENDBRANCH   1  15
BRANCH   1  26
HETATM   26  C           1     -19.095  -8.536  -5.177  0.00  0.00     0.197 C 
HETATM   27  O           1     -18.605  -9.059  -6.200  0.00  0.00    -0.646 OA
HETATM   28  O           1     -18.785  -8.968  -4.046  0.00  0.00    -0.646 OA
ENDBRANCH   1  26
TORSDOF 9
ENDMDL
MODEL 3
REMARK VINA RESULT:      -7.0      3.356      8.019
REMARK  9 active torsions:
REMARK  status: ('A' for Active; 'I' for Inactive)
REMARK    1  A    between atoms: C_2  and  C_10 
REMARK    2  A    between atoms: C_2  and  S_3 
REMARK    3  A    between atoms: N_7  and  C_27 
REMARK       I    between atoms: N_7  and  C_11 
REMARK    4  A    between atoms: C_8  and  C_27 
REMARK    5  A    between atoms: C_8  and  C_18 
REMARK    6  A    between atoms: C_10  and  C_23 
REMARK    7  A    between atoms: C_11  and  C_23 
REMARK    8  A    between atoms: N_16  and  C_23 
REMARK    9  A    between atoms: C_21  and  C_27 
ROOT
HETATM    1  C           1     -21.162  -7.442  -5.262  0.00  0.00     0.190 C 
ENDROOT
BRANCH   1   2
HETATM    2  N           1     -20.205  -6.711  -6.069  0.00  0.00    -0.344 N 
HETATM    3  C           1     -20.428  -5.396  -6.373  0.00  0.00     0.249 C 
HETATM    4  O           1     -20.016  -4.528  -5.641  0.00  0.00    -0.271 OA
HETATM    5  H           1     -19.371  -7.174  -6.408  0.00  0.00     0.163 HD
BRANCH   3   6
HETATM    6  C           1     -21.190  -5.029  -7.624  0.00  0.00     0.275 C 
BRANCH   6   7
HETATM    7  C           1     -20.318  -4.151  -8.511  0.00  0.00     0.053 C 
BRANCH   7   8
HETATM    8  C           1     -20.186  -4.790  -9.887  0.00  0.00     0.076 C 
BRANCH   8   9
HETATM    9  S           1     -20.944  -3.710 -11.133  0.00  0.00    -0.173 SA
HETATM   10  C           1     -22.605  -4.437 -11.042  0.00  0.00     0.089 C 
ENDBRANCH   8   9
ENDBRANCH   7   8
ENDBRANCH   6   7
BRANCH   6  11
HETATM   11  N           1     -22.434  -4.279  -7.248  0.00  0.00    -0.066 N 
HETATM   12  H           1     -23.009  -4.862  -6.598  0.00  0.00     0.275 HD
HETATM   13  H           1     -22.988  -4.067  -8.109  0.00  0.00     0.275 HD
HETATM   14  H           1     -22.172  -3.386  -6.773  0.00  0.00     0.275 HD
ENDBRANCH   6  11
ENDBRANCH   3   6
ENDBRANCH   1   2
BRANCH   1  15
HETATM   15  C           1     -20.420  -8.293  -4.239  0.00  0.00     0.077 C 
BRANCH  15  16
HETATM   16  C           1     -21.293  -9.429  -3.808  0.00  0.00    -0.028 A 
HETATM   17  C           1     -21.920  -9.570  -2.539  0.00  0.00    -0.002 A 
HETATM   18  C           1     -22.635 -10.768  -2.564  0.00  0.00     0.042 A 
HETATM   19  C           1     -21.947  -8.789  -1.367  0.00  0.00     0.014 A 
HETATM   20  C           1     -23.380 -11.226  -1.471  0.00  0.00     0.030 A 
HETATM   21  N           1     -22.443 -11.327  -3.807  0.00  0.00    -0.365 N 
HETATM   22  C           1     -23.392 -10.434  -0.319  0.00  0.00     0.002 A 
HETATM   23  C           1     -22.687  -9.233  -0.265  0.00  0.00     0.001 A 
HETATM   24  H           1     -22.858 -12.237  -4.128  0.00  0.00     0.165 HD
HETATM   25  C           1     -21.633 -10.526  -4.567  0.00  0.00     0.096 A 
ENDBRANCH  15  16
ENDBRANCH   1  15
BRANCH   1  26
HETATM   26  C           1     -22.064  -6.466  -4.545  0.00  0.00     0.197 C 
HETATM   27  O           1     -21.706  -5.970  -3.456  0.00  0.00    -0.646 OA
HETATM   28  O           1     -23.168  -6.156  -5.041  0.00  0.00    -0.646 OA
ENDBRANCH   1  26
TORSDOF 9
ENDMDL
MODEL 4
REMARK VINA RESULT:      -6.9      3.767      7.146
REMARK  9 active torsions:
REMARK  status: ('A' for Active; 'I' for Inactive)
REMARK    1  A    between atoms: C_2  and  C_10 
REMARK    2  A    between atoms: C_2  and  S_3 
REMARK    3  A    between atoms: N_7  and  C_27 
REMARK       I    between atoms: N_7  and  C_11 
REMARK    4  A    between atoms: C_8  and  C_27 
REMARK    5  A    between atoms: C_8  and  C_18 
REMARK    6  A    between atoms: C_10  and  C_23 
REMARK    7  A    between atoms: C_11  and  C_23 
REMARK    8  A    between atoms: N_16  and  C_23 
REMARK    9  A    between atoms: C_21  and  C_27 
ROOT
HETATM    1  C           1     -21.334  -7.779  -2.361  0.00  0.00     0.190 C 
ENDROOT
BRANCH   1   2
HETATM    2  N           1     -21.336  -6.455  -2.950  0.00  0.00    -0.344 N 
HETATM    3  C           1     -21.596  -6.300  -4.285  0.00  0.00     0.249 C 
HETATM    4  O           1     -22.732  -6.139  -4.664  0.00  0.00    -0.271 OA
HETATM    5  H           1     -21.144  -5.644  -2.375  0.00  0.00     0.163 HD
BRANCH   3   6
HETATM    6  C           1     -20.465  -6.329  -5.283  0.00  0.00     0.275 C 
BRANCH   6   7
HETATM    7  C           1     -20.125  -4.907  -5.709  0.00  0.00     0.053 C 
BRANCH   7   8
HETATM    8  C           1     -20.274  -4.778  -7.219  0.00  0.00     0.076 C 
BRANCH   8   9
HETATM    9  S           1     -21.753  -3.796  -7.600  0.00  0.00    -0.173 SA
HETATM   10  C           1     -22.152  -4.635  -9.160  0.00  0.00     0.089 C 
ENDBRANCH   8   9
ENDBRANCH   7   8
ENDBRANCH   6   7
BRANCH   6  11
HETATM   11  N           1     -20.882  -7.124  -6.486  0.00  0.00    -0.066 N 
HETATM   12  H           1     -20.574  -8.116  -6.372  0.00  0.00     0.275 HD
HETATM   13  H           1     -20.441  -6.718  -7.342  0.00  0.00     0.275 HD
HETATM   14  H           1     -21.922  -7.092  -6.580  0.00  0.00     0.275 HD
ENDBRANCH   6  11
ENDBRANCH   3   6
ENDBRANCH   1   2
BRANCH   1  15
HETATM   15  C           1     -19.897  -8.228  -2.126  0.00  0.00     0.077 C 
BRANCH  15  16
HETATM   16  C           1     -19.504  -9.213  -3.183  0.00  0.00    -0.028 A 
HETATM   17  C           1     -18.185  -9.676  -3.447  0.00  0.00    -0.002 A 
HETATM   18  C           1     -18.271 -10.578  -4.508  0.00  0.00     0.042 A 
HETATM   19  C           1     -16.922  -9.412  -2.883  0.00  0.00     0.014 A 
HETATM   20  C           1     -17.152 -11.234  -5.036  0.00  0.00     0.030 A 
HETATM   21  N           1     -19.598 -10.654  -4.868  0.00  0.00    -0.365 N 
HETATM   22  C           1     -15.909 -10.956  -4.459  0.00  0.00     0.002 A 
HETATM   23  C           1     -15.793 -10.059  -3.399  0.00  0.00     0.001 A 
HETATM   24  H           1     -19.978 -11.255  -5.641  0.00  0.00     0.165 HD
HETATM   25  C           1     -20.352  -9.832  -4.073  0.00  0.00     0.096 A 
ENDBRANCH  15  16
ENDBRANCH   1  15
BRANCH   1  26
HETATM   26  C           1     -22.072  -7.745  -1.044  0.00  0.00     0.197 C 
HETATM   27  O           1     -21.933  -8.679  -0.226  0.00  0.00    -0.646 OA
HETATM   28  O           1     -22.821  -6.783  -0.773  0.00  0.00    -0.646 OA
ENDBRANCH   1  26
TORSDOF 9
ENDMDL
MODEL 5
REMARK VINA RESULT:      -6.8      3.075      7.786
REMARK  9 active torsions:
REMARK  status: ('A' for Active; 'I' for Inactive)
REMARK    1  A    between atoms: C_2  and  C_10 
REMARK    2  A    between atoms: C_2  and  S_3 
REMARK    3  A    between atoms: N_7  and  C_27 
REMARK       I    between atoms: N_7  and  C_11 
REMARK    4  A    between atoms: C_8  and  C_27 
REMARK    5  A    between atoms: C_8  and  C_18 
REMARK    6  A    between atoms: C_10  and  C_23 
REMARK    7  A    between atoms: C_11  and  C_23 
REMARK    8  A    between atoms: N_16  and  C_23 
REMARK    9  A    between atoms: C_21  and  C_27 
ROOT
HETATM    1  C           1     -19.911  -8.785  -4.720  0.00  0.00     0.190 C 
ENDROOT
BRANCH   1   2
HETATM    2  N           1     -20.620  -8.152  -5.814  0.00  0.00    -0.344 N 
HETATM    3  C           1     -20.334  -6.858  -6.158  0.00  0.00     0.249 C 
HETATM    4  O           1     -19.478  -6.626  -6.979  0.00  0.00    -0.271 OA
HETATM    5  H           1     -21.328  -8.666  -6.324  0.00  0.00     0.163 HD
BRANCH   3   6
HETATM    6  C           1     -21.087  -5.721  -5.511  0.00  0.00     0.275 C 
BRANCH   6   7
HETATM    7  C           1     -22.233  -5.290  -6.417  0.00  0.00     0.053 C 
BRANCH   7   8
HETATM    8  C           1     -21.789  -4.114  -7.277  0.00  0.00     0.076 C 
BRANCH   8   9
HETATM    9  S           1     -22.121  -4.481  -9.023  0.00  0.00    -0.173 SA
HETATM   10  C           1     -20.421  -4.226  -9.607  0.00  0.00     0.089 C 
ENDBRANCH   8   9
ENDBRANCH   7   8
ENDBRANCH   6   7
BRANCH   6  11
HETATM   11  N           1     -20.156  -4.563  -5.300  0.00  0.00    -0.066 N 
HETATM   12  H           1     -20.496  -3.739  -5.847  0.00  0.00     0.275 HD
HETATM   13  H           1     -19.197  -4.824  -5.621  0.00  0.00     0.275 HD
HETATM   14  H           1     -20.130  -4.319  -4.284  0.00  0.00     0.275 HD
ENDBRANCH   6  11
ENDBRANCH   3   6
ENDBRANCH   1   2
BRANCH   1  15
HETATM   15  C           1     -20.792  -9.863  -4.100  0.00  0.00     0.077 C 
BRANCH  15  16
HETATM   16  C           1     -21.277  -9.402  -2.762  0.00  0.00    -0.028 A 
HETATM   17  C           1     -22.275 -10.034  -1.969  0.00  0.00    -0.002 A 
HETATM   18  C           1     -22.416  -9.277  -0.806  0.00  0.00     0.042 A 
HETATM   19  C           1     -23.074 -11.182  -2.132  0.00  0.00     0.014 A 
HETATM   20  C           1     -23.321  -9.612   0.209  0.00  0.00     0.030 A 
HETATM   21  N           1     -21.532  -8.226  -0.898  0.00  0.00    -0.365 N 
HETATM   22  C           1     -24.103 -10.756   0.025  0.00  0.00     0.002 A 
HETATM   23  C           1     -23.984 -11.532  -1.126  0.00  0.00     0.001 A 
HETATM   24  H           1     -21.407  -7.480  -0.169  0.00  0.00     0.165 HD
HETATM   25  C           1     -20.838  -8.292  -2.077  0.00  0.00     0.096 A 
ENDBRANCH  15  16
ENDBRANCH   1  15
BRANCH   1  26
HETATM   26  C           1     -18.640  -9.411  -5.240  0.00  0.00     0.197 C 
HETATM   27  O           1     -17.637  -9.496  -4.499  0.00  0.00    -0.646 OA
HETATM   28  O           1     -18.590  -9.844  -6.411  0.00  0.00    -0.646 OA
ENDBRANCH   1  26
TORSDOF 9
ENDMDL
MODEL 6
REMARK VINA RESULT:      -6.8      3.110      7.837
REMARK  9 active torsions:
REMARK  status: ('A' for Active; 'I' for Inactive)
REMARK    1  A    between atoms: C_2  and  C_10 
REMARK    2  A    between atoms: C_2  and  S_3 
REMARK    3  A    between atoms: N_7  and  C_27 
REMARK       I    between atoms: N_7  and  C_11 
REMARK    4  A    between atoms: C_8  and  C_27 
REMARK    5  A    between atoms: C_8  and  C_18 
REMARK    6  A    between atoms: C_10  and  C_23 
REMARK    7  A    between atoms: C_11  and  C_23 
REMARK    8  A    between atoms: N_16  and  C_23 
REMARK    9  A    between atoms: C_21  and  C_27 
ROOT
HETATM    1  C           1     -20.576  -8.778  -4.616  0.00  0.00     0.190 C 
ENDROOT
BRANCH   1   2
HETATM    2  N           1     -21.080  -8.148  -5.821  0.00  0.00    -0.344 N 
HETATM    3  C           1     -20.618  -6.914  -6.193  0.00  0.00     0.249 C 
HETATM    4  O           1     -19.653  -6.822  -6.913  0.00  0.00    -0.271 OA
HETATM    5  H           1     -21.774  -8.620  -6.387  0.00  0.00     0.163 HD
BRANCH   3   6
HETATM    6  C           1     -21.316  -5.668  -5.703  0.00  0.00     0.275 C 
BRANCH   6   7
HETATM    7  C           1     -20.589  -4.438  -6.232  0.00  0.00     0.053 C 
BRANCH   7   8
HETATM    8  C           1     -21.471  -3.723  -7.247  0.00  0.00     0.076 C 
BRANCH   8   9
HETATM    9  S           1     -21.005  -4.238  -8.924  0.00  0.00    -0.173 SA
HETATM   10  C           1     -22.697  -4.409  -9.557  0.00  0.00     0.089 C 
ENDBRANCH   8   9
ENDBRANCH   7   8
ENDBRANCH   6   7
BRANCH   6  11
HETATM   11  N           1     -21.305  -5.647  -4.203  0.00  0.00    -0.066 N 
HETATM   12  H           1     -20.534  -6.259  -3.852  0.00  0.00     0.275 HD
HETATM   13  H           1     -22.221  -5.999  -3.843  0.00  0.00     0.275 HD
HETATM   14  H           1     -21.151  -4.668  -3.870  0.00  0.00     0.275 HD
ENDBRANCH   6  11
ENDBRANCH   3   6
ENDBRANCH   1   2
BRANCH   1  15
HETATM   15  C           1     -21.596  -9.789  -4.107  0.00  0.00     0.077 C 
BRANCH  15  16
HETATM   16  C           1     -21.294 -10.126  -2.680  0.00  0.00    -0.028 A 
HETATM   17  C           1     -21.528  -9.289  -1.554  0.00  0.00    -0.002 A 
HETATM   18  C           1     -21.104  -9.991  -0.426  0.00  0.00     0.042 A 
HETATM   19  C           1     -22.061  -7.996  -1.388  0.00  0.00     0.014 A 
HETATM   20  C           1     -21.187  -9.463   0.868  0.00  0.00     0.030 A 
HETATM   21  N           1     -20.632 -11.209  -0.861  0.00  0.00    -0.365 N 
HETATM   22  C           1     -21.720  -8.178   1.009  0.00  0.00     0.002 A 
HETATM   23  C           1     -22.152  -7.453  -0.101  0.00  0.00     0.001 A 
HETATM   24  H           1     -20.242 -11.960  -0.238  0.00  0.00     0.165 HD
HETATM   25  C           1     -20.742 -11.301  -2.223  0.00  0.00     0.096 A 
ENDBRANCH  15  16
ENDBRANCH   1  15
BRANCH   1  26
HETATM   26  C           1     -19.278  -9.484  -4.924  0.00  0.00     0.197 C 
HETATM   27  O           1     -18.274  -9.286  -4.206  0.00  0.00    -0.646 OA
HETATM   28  O           1     -19.206 -10.264  -5.897  0.00  0.00    -0.646 OA
ENDBRANCH   1  26
TORSDOF 9
ENDMDL
MODEL 7
REMARK VINA RESULT:      -6.7      2.985      4.292
REMARK  9 active torsions:
REMARK  status: ('A' for Active; 'I' for Inactive)
REMARK    1  A    between atoms: C_2  and  C_10 
REMARK    2  A    between atoms: C_2  and  S_3 
REMARK    3  A    between atoms: N_7  and  C_27 
REMARK       I    between atoms: N_7  and  C_11 
REMARK    4  A    between atoms: C_8  and  C_27 
REMARK    5  A    between atoms: C_8  and  C_18 
REMARK    6  A    between atoms: C_10  and  C_23 
REMARK    7  A    between atoms: C_11  and  C_23 
REMARK    8  A    between atoms: N_16  and  C_23 
REMARK    9  A    between atoms: C_21  and  C_27 
ROOT
HETATM    1  C           1     -21.345  -7.364  -3.813  0.00  0.00     0.190 C 
ENDROOT
BRANCH   1   2
HETATM    2  N           1     -21.707  -8.767  -3.832  0.00  0.00    -0.344 N 
HETATM    3  C           1     -20.741  -9.725  -3.684  0.00  0.00     0.249 C 
HETATM    4  O           1     -20.453 -10.127  -2.581  0.00  0.00    -0.271 OA
HETATM    5  H           1     -22.674  -9.039  -3.956  0.00  0.00     0.163 HD
BRANCH   3   6
HETATM    6  C           1     -20.035 -10.281  -4.897  0.00  0.00     0.275 C 
BRANCH   6   7
HETATM    7  C           1     -18.732  -9.523  -5.118  0.00  0.00     0.053 C 
BRANCH   7   8
HETATM    8  C           1     -17.725 -10.433  -5.809  0.00  0.00     0.076 C 
BRANCH   8   9
HETATM    9  S           1     -16.057 -10.063  -5.200  0.00  0.00    -0.173 SA
HETATM   10  C           1     -16.547  -9.683  -3.494  0.00  0.00     0.089 C 
ENDBRANCH   8   9
ENDBRANCH   7   8
ENDBRANCH   6   7
BRANCH   6  11
HETATM   11  N           1     -20.915 -10.122  -6.102  0.00  0.00    -0.066 N 
HETATM   12  H           1     -20.841 -10.975  -6.702  0.00  0.00     0.275 HD
HETATM   13  H           1     -20.612  -9.284  -6.648  0.00  0.00     0.275 HD
HETATM   14  H           1     -21.907  -9.998  -5.795  0.00  0.00     0.275 HD
ENDBRANCH   6  11
ENDBRANCH   3   6
ENDBRANCH   1   2
BRANCH   1  15
HETATM   15  C           1     -22.184  -6.609  -4.837  0.00  0.00     0.077 C 
BRANCH  15  16
HETATM   16  C           1     -21.321  -6.209  -5.992  0.00  0.00    -0.028 A 
HETATM   17  C           1     -21.701  -5.360  -7.068  0.00  0.00    -0.002 A 
HETATM   18  C           1     -20.599  -5.254  -7.917  0.00  0.00     0.042 A 
HETATM   19  C           1     -22.883  -4.670  -7.401  0.00  0.00     0.014 A 
HETATM   20  C           1     -20.619  -4.488  -9.089  0.00  0.00     0.030 A 
HETATM   21  N           1     -19.591  -6.014  -7.368  0.00  0.00    -0.365 N 
HETATM   22  C           1     -21.803  -3.811  -9.399  0.00  0.00     0.002 A 
HETATM   23  C           1     -22.920  -3.899  -8.569  0.00  0.00     0.001 A 
HETATM   24  H           1     -18.633  -6.132  -7.783  0.00  0.00     0.165 HD
HETATM   25  C           1     -20.017  -6.596  -6.204  0.00  0.00     0.096 A 
ENDBRANCH  15  16
ENDBRANCH   1  15
BRANCH   1  26
HETATM   26  C           1     -21.601  -6.797  -2.438  0.00  0.00     0.197 C 
HETATM   27  O           1     -22.467  -5.911  -2.278  0.00  0.00    -0.646 OA
HETATM   28  O           1     -20.945  -7.214  -1.459  0.00  0.00    -0.646 OA
ENDBRANCH   1  26
TORSDOF 9
ENDMDL
MODEL 8
REMARK VINA RESULT:      -6.7      3.121      4.557
REMARK  9 active torsions:
REMARK  status: ('A' for Active; 'I' for Inactive)
REMARK    1  A    between atoms: C_2  and  C_10 
REMARK    2  A    between atoms: C_2  and  S_3 
REMARK    3  A    between atoms: N_7  and  C_27 
REMARK       I    between atoms: N_7  and  C_11 
REMARK    4  A    between atoms: C_8  and  C_27 
REMARK    5  A    between atoms: C_8  and  C_18 
REMARK    6  A    between atoms: C_10  and  C_23 
REMARK    7  A    between atoms: C_11  and  C_23 
REMARK    8  A    between atoms: N_16  and  C_23 
REMARK    9  A    between atoms: C_21  and  C_27 
ROOT
HETATM    1  C           1     -21.460  -7.378  -3.877  0.00  0.00     0.190 C 
ENDROOT
BRANCH   1   2
HETATM    2  N           1     -22.017  -8.715  -3.943  0.00  0.00    -0.344 N 
HETATM    3  C           1     -21.188  -9.796  -4.066  0.00  0.00     0.249 C 
HETATM    4  O           1     -20.765 -10.349  -3.078  0.00  0.00    -0.271 OA
HETATM    5  H           1     -23.020  -8.848  -3.899  0.00  0.00     0.163 HD
BRANCH   3   6
HETATM    6  C           1     -20.801 -10.300  -5.435  0.00  0.00     0.275 C 
BRANCH   6   7
HETATM    7  C           1     -21.060 -11.798  -5.518  0.00  0.00     0.053 C 
BRANCH   7   8
HETATM    8  C           1     -21.273 -12.199  -6.972  0.00  0.00     0.076 C 
BRANCH   8   9
HETATM    9  S           1     -20.160 -13.570  -7.392  0.00  0.00    -0.173 SA
HETATM   10  C           1     -18.925 -12.565  -8.264  0.00  0.00     0.089 C 
ENDBRANCH   8   9
ENDBRANCH   7   8
ENDBRANCH   6   7
BRANCH   6  11
HETATM   11  N           1     -19.344 -10.032  -5.672  0.00  0.00    -0.066 N 
HETATM   12  H           1     -18.833 -10.939  -5.763  0.00  0.00     0.275 HD
HETATM   13  H           1     -18.954  -9.490  -4.868  0.00  0.00     0.275 HD
HETATM   14  H           1     -19.230  -9.480  -6.553  0.00  0.00     0.275 HD
ENDBRANCH   6  11
ENDBRANCH   3   6
ENDBRANCH   1   2
BRANCH   1  15
HETATM   15  C           1     -22.207  -6.469  -4.845  0.00  0.00     0.077 C 
BRANCH  15  16
HETATM   16  C           1     -21.322  -6.142  -6.007  0.00  0.00    -0.028 A 
HETATM   17  C           1     -21.658  -5.304  -7.107  0.00  0.00    -0.002 A 
HETATM   18  C           1     -20.550  -5.274  -7.953  0.00  0.00     0.042 A 
HETATM   19  C           1     -22.804  -4.567  -7.463  0.00  0.00     0.014 A 
HETATM   20  C           1     -20.529  -4.539  -9.145  0.00  0.00     0.030 A 
HETATM   21  N           1     -19.581  -6.067  -7.381  0.00  0.00    -0.365 N 
HETATM   22  C           1     -21.677  -3.815  -9.478  0.00  0.00     0.002 A 
HETATM   23  C           1     -22.799  -3.826  -8.651  0.00  0.00     0.001 A 
HETATM   24  H           1     -18.629  -6.242  -7.788  0.00  0.00     0.165 HD
HETATM   25  C           1     -20.038  -6.597  -6.203  0.00  0.00     0.096 A 
ENDBRANCH  15  16
ENDBRANCH   1  15
BRANCH   1  26
HETATM   26  C           1     -21.601  -6.843  -2.473  0.00  0.00     0.197 C 
HETATM   27  O           1     -22.380  -5.893  -2.242  0.00  0.00    -0.646 OA
HETATM   28  O           1     -20.939  -7.348  -1.542  0.00  0.00    -0.646 OA
ENDBRANCH   1  26
TORSDOF 9
ENDMDL
MODEL 9
REMARK VINA RESULT:      -6.7      5.186      7.752
REMARK  9 active torsions:
REMARK  status: ('A' for Active; 'I' for Inactive)
REMARK    1  A    between atoms: C_2  and  C_10 
REMARK    2  A    between atoms: C_2  and  S_3 
REMARK    3  A    between atoms: N_7  and  C_27 
REMARK       I    between atoms: N_7  and  C_11 
REMARK    4  A    between atoms: C_8  and  C_27 
REMARK    5  A    between atoms: C_8  and  C_18 
REMARK    6  A    between atoms: C_10  and  C_23 
REMARK    7  A    between atoms: C_11  and  C_23 
REMARK    8  A    between atoms: N_16  and  C_23 
REMARK    9  A    between atoms: C_21  and  C_27 
ROOT
HETATM    1  C           1     -19.368 -10.153  -4.860  0.00  0.00     0.190 C 
ENDROOT
BRANCH   1   2
HETATM    2  N           1     -18.497 -10.101  -6.018  0.00  0.00    -0.344 N 
HETATM    3  C           1     -18.164 -11.253  -6.676  0.00  0.00     0.249 C 
HETATM    4  O           1     -18.850 -11.648  -7.589  0.00  0.00    -0.271 OA
HETATM    5  H           1     -18.136  -9.212  -6.339  0.00  0.00     0.163 HD
BRANCH   3   6
HETATM    6  C           1     -16.938 -12.031  -6.263  0.00  0.00     0.275 C 
BRANCH   6   7
HETATM    7  C           1     -15.735 -11.097  -6.214  0.00  0.00     0.053 C 
BRANCH   7   8
HETATM    8  C           1     -14.907 -11.398  -4.972  0.00  0.00     0.076 C 
BRANCH   8   9
HETATM    9  S           1     -15.999 -11.963  -3.638  0.00  0.00    -0.173 SA
HETATM   10  C           1     -15.863 -10.465  -2.621  0.00  0.00     0.089 C 
ENDBRANCH   8   9
ENDBRANCH   7   8
ENDBRANCH   6   7
BRANCH   6  11
HETATM   11  N           1     -16.681 -13.124  -7.258  0.00  0.00    -0.066 N 
HETATM   12  H           1     -17.277 -12.972  -8.104  0.00  0.00     0.275 HD
HETATM   13  H           1     -16.914 -14.048  -6.829  0.00  0.00     0.275 HD
HETATM   14  H           1     -15.673 -13.111  -7.536  0.00  0.00     0.275 HD
ENDBRANCH   6  11
ENDBRANCH   3   6
ENDBRANCH   1   2
BRANCH   1  15
HETATM   15  C           1     -19.002  -9.030  -3.898  0.00  0.00     0.077 C 
BRANCH  15  16
HETATM   16  C           1     -19.720  -9.231  -2.600  0.00  0.00    -0.028 A 
HETATM   17  C           1     -20.676  -8.347  -2.026  0.00  0.00    -0.002 A 
HETATM   18  C           1     -21.091  -8.916  -0.822  0.00  0.00     0.042 A 
HETATM   19  C           1     -21.227  -7.111  -2.418  0.00  0.00     0.014 A 
HETATM   20  C           1     -22.036  -8.310   0.014  0.00  0.00     0.030 A 
HETATM   21  N           1     -20.408 -10.103  -0.679  0.00  0.00    -0.365 N 
HETATM   22  C           1     -22.570  -7.085  -0.396  0.00  0.00     0.002 A 
HETATM   23  C           1     -22.174  -6.492  -1.594  0.00  0.00     0.001 A 
HETATM   24  H           1     -20.509 -10.761   0.133  0.00  0.00     0.165 HD
HETATM   25  C           1     -19.576 -10.303  -1.749  0.00  0.00     0.096 A 
ENDBRANCH  15  16
ENDBRANCH   1  15
BRANCH   1  26
HETATM   26  C           1     -20.802  -9.990  -5.301  0.00  0.00     0.197 C 
HETATM   27  O           1     -21.622 -10.915  -5.116  0.00  0.00    -0.646 OA
HETATM   28  O           1     -21.169  -8.931  -5.853  0.00  0.00    -0.646 OA
ENDBRANCH   1  26
TORSDOF 9
ENDMDL
