MODEL 1
REMARK VINA RESULT:      -6.5      0.000      0.000
REMARK  13 active torsions:
REMARK  status: ('A' for Active; 'I' for Inactive)
REMARK    1  A    between atoms: N_6  and  C_7 
REMARK    2  A    between atoms: C_7  and  C_8 
REMARK    3  A    between atoms: C_8  and  C_9 
REMARK    4  A    between atoms: C_9  and  C_10 
REMARK    5  A    between atoms: C_10  and  C_11 
REMARK    6  A    between atoms: C_11  and  C_12 
REMARK    7  A    between atoms: C_11  and  N_15 
REMARK       I    between atoms: N_15  and  C_16 
REMARK    8  A    between atoms: C_16  and  C_17 
REMARK    9  A    between atoms: C_17  and  C_18 
REMARK   10  A    between atoms: C_17  and  N_24 
REMARK   11  A    between atoms: C_18  and  O_19 
REMARK   12  A    between atoms: O_19  and  P_20 
REMARK   13  A    between atoms: P_20  and  O_21 
ROOT
HETATM    1  O           1     -34.582  -0.447 -11.705  0.00  0.00    -0.271 OA
HETATM    2  N           1     -35.301  -2.562 -11.668  0.00  0.00    -0.345 N 
HETATM    3  C           1     -35.519  -1.211 -11.720  0.00  0.00     0.251 C 
HETATM    4  H           1     -36.085  -3.202 -11.680  0.00  0.00     0.163 HD
ENDROOT
BRANCH   2   5
HETATM    5  C           1     -33.947  -3.076 -11.595  0.00  0.00     0.185 C 
BRANCH   5   6
HETATM    6  C           1     -33.849  -4.088 -10.462  0.00  0.00     0.036 C 
BRANCH   6   7
HETATM    7  C           1     -34.863  -5.203 -10.686  0.00  0.00     0.004 C 
BRANCH   7   8
HETATM    8  C           1     -34.162  -6.552 -10.606  0.00  0.00     0.027 C 
BRANCH   8   9
HETATM    9  C           1     -35.003  -7.513  -9.776  0.00  0.00     0.229 C 
BRANCH   9  10
HETATM   10  N           1     -34.200  -8.741  -9.464  0.00  0.00    -0.079 N 
HETATM   11  H           1     -34.179  -8.890  -8.430  0.00  0.00     0.274 HD
HETATM   12  H           1     -34.639  -9.569  -9.926  0.00  0.00     0.274 HD
HETATM   13  H           1     -33.225  -8.619  -9.818  0.00  0.00     0.274 HD
ENDBRANCH   9  10
ENDBRANCH   8   9
ENDBRANCH   7   8
ENDBRANCH   6   7
ENDBRANCH   5   6
BRANCH   5  14
HETATM   14  C           1     -33.593  -3.745 -12.900  0.00  0.00     0.196 C 
HETATM   15  O           1     -32.549  -4.427 -12.991  0.00  0.00    -0.646 OA
HETATM   16  O           1     -34.345  -3.618 -13.892  0.00  0.00    -0.646 OA
ENDBRANCH   5  14
ENDBRANCH   2   5
BRANCH   3  17
HETATM   17  C           1     -36.928  -0.676 -11.795  0.00  0.00     0.298 C 
BRANCH  17  18
HETATM   18  C           1     -37.186  -0.121 -13.189  0.00  0.00     0.224 C 
BRANCH  18  19
HETATM   19  O           1     -36.651  -0.994 -14.148  0.00  0.00    -0.287 OA
BRANCH  19  20
HETATM   20  P           1     -35.741  -0.313 -15.295  0.00  0.00     0.406 P 
HETATM   21  O           1     -35.226  -1.363 -16.202  0.00  0.00    -0.624 OA
HETATM   22  O           1     -36.560   0.649 -16.067  0.00  0.00    -0.624 OA
BRANCH  20  23
HETATM   23  O           1     -34.502   0.464 -14.612  0.00  0.00    -0.300 OA
HETATM   24  H           1     -34.741   0.555 -13.705  0.00  0.00     0.223 HD
ENDBRANCH  20  23
ENDBRANCH  19  20
ENDBRANCH  18  19
ENDBRANCH  17  18
BRANCH  17  25
HETATM   25  N           1     -37.102   0.415 -10.782  0.00  0.00    -0.064 N 
HETATM   26  H           1     -36.612   1.277 -11.112  0.00  0.00     0.275 HD
HETATM   27  H           1     -38.121   0.617 -10.659  0.00  0.00     0.275 HD
HETATM   28  H           1     -36.695   0.111  -9.868  0.00  0.00     0.275 HD
ENDBRANCH  17  25
ENDBRANCH   3  17
TORSDOF 13
ENDMDL
MODEL 2
REMARK VINA RESULT:      -6.4      3.816      5.354
REMARK  13 active torsions:
REMARK  status: ('A' for Active; 'I' for Inactive)
REMARK    1  A    between atoms: N_6  and  C_7 
REMARK    2  A    between atoms: C_7  and  C_8 
REMARK    3  A    between atoms: C_8  and  C_9 
REMARK    4  A    between atoms: C_9  and  C_10 
REMARK    5  A    between atoms: C_10  and  C_11 
REMARK    6  A    between atoms: C_11  and  C_12 
REMARK    7  A    between atoms: C_11  and  N_15 
REMARK       I    between atoms: N_15  and  C_16 
REMARK    8  A    between atoms: C_16  and  C_17 
REMARK    9  A    between atoms: C_17  and  C_18 
REMARK   10  A    between atoms: C_17  and  N_24 
REMARK   11  A    between atoms: C_18  and  O_19 
REMARK   12  A    between atoms: O_19  and  P_20 
REMARK   13  A    between atoms: P_20  and  O_21 
ROOT
HETATM    1  O           1     -35.071  -5.149 -15.275  0.00  0.00    -0.271 OA
HETATM    2  N           1     -33.490  -3.932 -14.272  0.00  0.00    -0.345 N 
HETATM    3  C           1     -34.036  -4.533 -15.374  0.00  0.00     0.251 C 
HETATM    4  H           1     -32.622  -3.416 -14.355  0.00  0.00     0.163 HD
ENDROOT
BRANCH   2   5
HETATM    5  C           1     -34.152  -4.033 -12.987  0.00  0.00     0.185 C 
BRANCH   5   6
HETATM    6  C           1     -33.111  -4.240 -11.895  0.00  0.00     0.036 C 
BRANCH   6   7
HETATM    7  C           1     -33.279  -5.625 -11.285  0.00  0.00     0.004 C 
BRANCH   7   8
HETATM    8  C           1     -34.566  -5.670 -10.472  0.00  0.00     0.027 C 
BRANCH   8   9
HETATM    9  C           1     -34.726  -7.050  -9.849  0.00  0.00     0.229 C 
BRANCH   9  10
HETATM   10  N           1     -34.791  -8.085 -10.933  0.00  0.00    -0.079 N 
HETATM   11  H           1     -35.507  -7.804 -11.639  0.00  0.00     0.274 HD
HETATM   12  H           1     -33.857  -8.162 -11.395  0.00  0.00     0.274 HD
HETATM   13  H           1     -35.054  -9.007 -10.518  0.00  0.00     0.274 HD
ENDBRANCH   9  10
ENDBRANCH   8   9
ENDBRANCH   7   8
ENDBRANCH   6   7
ENDBRANCH   5   6
BRANCH   5  14
HETATM   14  C           1     -34.920  -2.764 -12.716  0.00  0.00     0.196 C 
HETATM   15  O           1     -35.600  -2.655 -11.672  0.00  0.00    -0.646 OA
HETATM   16  O           1     -34.878  -1.821 -13.536  0.00  0.00    -0.646 OA
ENDBRANCH   5  14
ENDBRANCH   2   5
BRANCH   3  17
HETATM   17  C           1     -33.347  -4.427 -16.712  0.00  0.00     0.298 C 
BRANCH  17  18
HETATM   18  C           1     -31.848  -4.628 -16.529  0.00  0.00     0.224 C 
BRANCH  18  19
HETATM   19  O           1     -31.153  -3.654 -17.260  0.00  0.00    -0.287 OA
BRANCH  19  20
HETATM   20  P           1     -29.571  -3.913 -17.457  0.00  0.00     0.406 P 
HETATM   21  O           1     -29.070  -4.761 -16.353  0.00  0.00    -0.624 OA
HETATM   22  O           1     -29.339  -4.595 -18.749  0.00  0.00    -0.624 OA
BRANCH  20  23
HETATM   23  O           1     -28.788  -2.500 -17.447  0.00  0.00    -0.300 OA
HETATM   24  H           1     -29.431  -1.866 -17.178  0.00  0.00     0.223 HD
ENDBRANCH  20  23
ENDBRANCH  19  20
ENDBRANCH  18  19
ENDBRANCH  17  18
BRANCH  17  25
HETATM   25  N           1     -33.601  -3.071 -17.298  0.00  0.00    -0.064 N 
HETATM   26  H           1     -32.758  -2.759 -17.832  0.00  0.00     0.275 HD
HETATM   27  H           1     -34.424  -3.118 -17.942  0.00  0.00     0.275 HD
HETATM   28  H           1     -33.799  -2.390 -16.530  0.00  0.00     0.275 HD
ENDBRANCH  17  25
ENDBRANCH   3  17
TORSDOF 13
ENDMDL
MODEL 3
REMARK VINA RESULT:      -6.2      2.538      5.874
REMARK  13 active torsions:
REMARK  status: ('A' for Active; 'I' for Inactive)
REMARK    1  A    between atoms: N_6  and  C_7 
REMARK    2  A    between atoms: C_7  and  C_8 
REMARK    3  A    between atoms: C_8  and  C_9 
REMARK    4  A    between atoms: C_9  and  C_10 
REMARK    5  A    between atoms: C_10  and  C_11 
REMARK    6  A    between atoms: C_11  and  C_12 
REMARK    7  A    between atoms: C_11  and  N_15 
REMARK       I    between atoms: N_15  and  C_16 
REMARK    8  A    between atoms: C_16  and  C_17 
REMARK    9  A    between atoms: C_17  and  C_18 
REMARK   10  A    between atoms: C_17  and  N_24 
REMARK   11  A    between atoms: C_18  and  O_19 
REMARK   12  A    between atoms: O_19  and  P_20 
REMARK   13  A    between atoms: P_20  and  O_21 
ROOT
HETATM    1  O           1     -33.456  -1.769 -10.743  0.00  0.00    -0.271 OA
HETATM    2  N           1     -35.264  -1.973 -12.038  0.00  0.00    -0.345 N 
HETATM    3  C           1     -34.151  -2.484 -11.427  0.00  0.00     0.251 C 
HETATM    4  H           1     -35.847  -2.572 -12.610  0.00  0.00     0.163 HD
ENDROOT
BRANCH   2   5
HETATM    5  C           1     -35.610  -0.575 -11.866  0.00  0.00     0.185 C 
BRANCH   5   6
HETATM    6  C           1     -36.127  -0.015 -13.184  0.00  0.00     0.036 C 
BRANCH   6   7
HETATM    7  C           1     -35.050   0.848 -13.827  0.00  0.00     0.004 C 
BRANCH   7   8
HETATM    8  C           1     -35.277   0.908 -15.332  0.00  0.00     0.027 C 
BRANCH   8   9
HETATM    9  C           1     -36.550   0.151 -15.684  0.00  0.00     0.229 C 
BRANCH   9  10
HETATM   10  N           1     -36.375  -0.536 -17.006  0.00  0.00    -0.079 N 
HETATM   11  H           1     -36.238  -1.560 -16.851  0.00  0.00     0.274 HD
HETATM   12  H           1     -37.226  -0.383 -17.592  0.00  0.00     0.274 HD
HETATM   13  H           1     -35.539  -0.144 -17.494  0.00  0.00     0.274 HD
ENDBRANCH   9  10
ENDBRANCH   8   9
ENDBRANCH   7   8
ENDBRANCH   6   7
ENDBRANCH   5   6
BRANCH   5  14
HETATM   14  C           1     -36.680  -0.449 -10.811  0.00  0.00     0.196 C 
HETATM   15  O           1     -37.747  -1.093 -10.921  0.00  0.00    -0.646 OA
HETATM   16  O           1     -36.502   0.300  -9.825  0.00  0.00    -0.646 OA
ENDBRANCH   5  14
ENDBRANCH   2   5
BRANCH   3  17
HETATM   17  C           1     -33.792  -3.938 -11.606  0.00  0.00     0.298 C 
BRANCH  17  18
HETATM   18  C           1     -34.287  -4.421 -12.963  0.00  0.00     0.224 C 
BRANCH  18  19
HETATM   19  O           1     -33.670  -3.676 -13.978  0.00  0.00    -0.287 OA
BRANCH  19  20
HETATM   20  P           1     -34.107  -4.041 -15.489  0.00  0.00     0.406 P 
HETATM   21  O           1     -34.905  -2.930 -16.053  0.00  0.00    -0.624 OA
HETATM   22  O           1     -32.897  -4.250 -16.315  0.00  0.00    -0.624 OA
BRANCH  20  23
HETATM   23  O           1     -34.993  -5.391 -15.483  0.00  0.00    -0.300 OA
HETATM   24  H           1     -34.794  -5.818 -16.299  0.00  0.00     0.223 HD
ENDBRANCH  20  23
ENDBRANCH  19  20
ENDBRANCH  18  19
ENDBRANCH  17  18
BRANCH  17  25
HETATM   25  N           1     -34.436  -4.749 -10.521  0.00  0.00    -0.064 N 
HETATM   26  H           1     -35.041  -4.129  -9.937  0.00  0.00     0.275 HD
HETATM   27  H           1     -35.019  -5.503 -10.950  0.00  0.00     0.275 HD
HETATM   28  H           1     -33.696  -5.179  -9.921  0.00  0.00     0.275 HD
ENDBRANCH  17  25
ENDBRANCH   3  17
TORSDOF 13
ENDMDL
MODEL 4
REMARK VINA RESULT:      -6.0      5.391      6.731
REMARK  13 active torsions:
REMARK  status: ('A' for Active; 'I' for Inactive)
REMARK    1  A    between atoms: N_6  and  C_7 
REMARK    2  A    between atoms: C_7  and  C_8 
REMARK    3  A    between atoms: C_8  and  C_9 
REMARK    4  A    between atoms: C_9  and  C_10 
REMARK    5  A    between atoms: C_10  and  C_11 
REMARK    6  A    between atoms: C_11  and  C_12 
REMARK    7  A    between atoms: C_11  and  N_15 
REMARK       I    between atoms: N_15  and  C_16 
REMARK    8  A    between atoms: C_16  and  C_17 
REMARK    9  A    between atoms: C_17  and  C_18 
REMARK   10  A    between atoms: C_17  and  N_24 
REMARK   11  A    between atoms: C_18  and  O_19 
REMARK   12  A    between atoms: O_19  and  P_20 
REMARK   13  A    between atoms: P_20  and  O_21 
ROOT
HETATM    1  O           1     -32.115  -3.414 -17.469  0.00  0.00    -0.271 OA
HETATM    2  N           1     -31.993  -5.515 -16.721  0.00  0.00    -0.345 N 
HETATM    3  C           1     -32.624  -4.305 -16.831  0.00  0.00     0.251 C 
HETATM    4  H           1     -32.420  -6.261 -16.187  0.00  0.00     0.163 HD
ENDROOT
BRANCH   2   5
HETATM    5  C           1     -30.714  -5.727 -17.370  0.00  0.00     0.185 C 
BRANCH   5   6
HETATM    6  C           1     -29.591  -5.342 -16.416  0.00  0.00     0.036 C 
BRANCH   6   7
HETATM    7  C           1     -28.490  -4.627 -17.188  0.00  0.00     0.004 C 
BRANCH   7   8
HETATM    8  C           1     -27.368  -5.609 -17.500  0.00  0.00     0.027 C 
BRANCH   8   9
HETATM    9  C           1     -26.669  -6.009 -16.208  0.00  0.00     0.229 C 
BRANCH   9  10
HETATM   10  N           1     -26.960  -7.449 -15.906  0.00  0.00    -0.079 N 
HETATM   11  H           1     -26.257  -7.810 -15.223  0.00  0.00     0.274 HD
HETATM   12  H           1     -27.918  -7.531 -15.496  0.00  0.00     0.274 HD
HETATM   13  H           1     -26.908  -8.007 -16.787  0.00  0.00     0.274 HD
ENDBRANCH   9  10
ENDBRANCH   8   9
ENDBRANCH   7   8
ENDBRANCH   6   7
ENDBRANCH   5   6
BRANCH   5  14
HETATM   14  C           1     -30.577  -7.182 -17.746  0.00  0.00     0.196 C 
HETATM   15  O           1     -31.188  -7.630 -18.741  0.00  0.00    -0.646 OA
HETATM   16  O           1     -29.854  -7.939 -17.063  0.00  0.00    -0.646 OA
ENDBRANCH   5  14
ENDBRANCH   2   5
BRANCH   3  17
HETATM   17  C           1     -33.955  -4.084 -16.156  0.00  0.00     0.298 C 
BRANCH  17  18
HETATM   18  C           1     -34.539  -2.751 -16.608  0.00  0.00     0.224 C 
BRANCH  18  19
HETATM   19  O           1     -35.033  -2.055 -15.494  0.00  0.00    -0.287 OA
BRANCH  19  20
HETATM   20  P           1     -35.927  -0.750 -15.816  0.00  0.00     0.406 P 
HETATM   21  O           1     -37.166  -0.791 -15.007  0.00  0.00    -0.624 OA
HETATM   22  O           1     -35.158   0.470 -15.481  0.00  0.00    -0.624 OA
BRANCH  20  23
HETATM   23  O           1     -36.309  -0.731 -17.384  0.00  0.00    -0.300 OA
HETATM   24  H           1     -36.883   0.009 -17.487  0.00  0.00     0.223 HD
ENDBRANCH  20  23
ENDBRANCH  19  20
ENDBRANCH  18  19
ENDBRANCH  17  18
BRANCH  17  25
HETATM   25  N           1     -33.764  -4.067 -14.669  0.00  0.00    -0.064 N 
HETATM   26  H           1     -34.479  -4.682 -14.220  0.00  0.00     0.275 HD
HETATM   27  H           1     -32.807  -4.419 -14.437  0.00  0.00     0.275 HD
HETATM   28  H           1     -33.871  -3.090 -14.314  0.00  0.00     0.275 HD
ENDBRANCH  17  25
ENDBRANCH   3  17
TORSDOF 13
ENDMDL
MODEL 5
REMARK VINA RESULT:      -6.0     13.427     15.257
REMARK  13 active torsions:
REMARK  status: ('A' for Active; 'I' for Inactive)
REMARK    1  A    between atoms: N_6  and  C_7 
REMARK    2  A    between atoms: C_7  and  C_8 
REMARK    3  A    between atoms: C_8  and  C_9 
REMARK    4  A    between atoms: C_9  and  C_10 
REMARK    5  A    between atoms: C_10  and  C_11 
REMARK    6  A    between atoms: C_11  and  C_12 
REMARK    7  A    between atoms: C_11  and  N_15 
REMARK       I    between atoms: N_15  and  C_16 
REMARK    8  A    between atoms: C_16  and  C_17 
REMARK    9  A    between atoms: C_17  and  C_18 
REMARK   10  A    between atoms: C_17  and  N_24 
REMARK   11  A    between atoms: C_18  and  O_19 
REMARK   12  A    between atoms: O_19  and  P_20 
REMARK   13  A    between atoms: P_20  and  O_21 
ROOT
HETATM    1  O           1     -19.651  -4.593  -6.229  0.00  0.00    -0.271 OA
HETATM    2  N           1     -21.618  -5.579  -5.846  0.00  0.00    -0.345 N 
HETATM    3  C           1     -20.805  -4.739  -6.558  0.00  0.00     0.251 C 
HETATM    4  H           1     -22.584  -5.702  -6.121  0.00  0.00     0.163 HD
ENDROOT
BRANCH   2   5
HETATM    5  C           1     -21.095  -6.295  -4.698  0.00  0.00     0.185 C 
BRANCH   5   6
HETATM    6  C           1     -22.182  -6.417  -3.639  0.00  0.00     0.036 C 
BRANCH   6   7
HETATM    7  C           1     -21.604  -6.065  -2.274  0.00  0.00     0.004 C 
BRANCH   7   8
HETATM    8  C           1     -22.327  -6.860  -1.195  0.00  0.00     0.027 C 
BRANCH   8   9
HETATM    9  C           1     -21.795  -8.286  -1.173  0.00  0.00     0.229 C 
BRANCH   9  10
HETATM   10  N           1     -20.317  -8.275  -1.433  0.00  0.00    -0.079 N 
HETATM   11  H           1     -19.975  -7.288  -1.449  0.00  0.00     0.274 HD
HETATM   12  H           1     -19.828  -8.801  -0.674  0.00  0.00     0.274 HD
HETATM   13  H           1     -20.123  -8.726  -2.354  0.00  0.00     0.274 HD
ENDBRANCH   9  10
ENDBRANCH   8   9
ENDBRANCH   7   8
ENDBRANCH   6   7
ENDBRANCH   5   6
BRANCH   5  14
HETATM   14  C           1     -20.651  -7.672  -5.125  0.00  0.00     0.196 C 
HETATM   15  O           1     -21.185  -8.223  -6.112  0.00  0.00    -0.646 OA
HETATM   16  O           1     -19.749  -8.263  -4.491  0.00  0.00    -0.646 OA
ENDBRANCH   5  14
ENDBRANCH   2   5
BRANCH   3  17
HETATM   17  C           1     -21.349  -3.994  -7.752  0.00  0.00     0.298 C 
BRANCH  17  18
HETATM   18  C           1     -22.718  -4.552  -8.118  0.00  0.00     0.224 C 
BRANCH  18  19
HETATM   19  O           1     -23.446  -3.582  -8.823  0.00  0.00    -0.287 OA
BRANCH  19  20
HETATM   20  P           1     -23.748  -3.912 -10.374  0.00  0.00     0.406 P 
HETATM   21  O           1     -22.608  -3.462 -11.204  0.00  0.00    -0.624 OA
HETATM   22  O           1     -23.934  -5.371 -10.541  0.00  0.00    -0.624 OA
BRANCH  20  23
HETATM   23  O           1     -25.089  -3.142 -10.839  0.00  0.00    -0.300 OA
HETATM   24  H           1     -24.877  -2.768 -11.678  0.00  0.00     0.223 HD
ENDBRANCH  20  23
ENDBRANCH  19  20
ENDBRANCH  18  19
ENDBRANCH  17  18
BRANCH  17  25
HETATM   25  N           1     -20.415  -4.161  -8.912  0.00  0.00    -0.064 N 
HETATM   26  H           1     -20.646  -5.044  -9.421  0.00  0.00     0.275 HD
HETATM   27  H           1     -20.517  -3.347  -9.561  0.00  0.00     0.275 HD
HETATM   28  H           1     -19.431  -4.206  -8.564  0.00  0.00     0.275 HD
ENDBRANCH  17  25
ENDBRANCH   3  17
TORSDOF 13
ENDMDL
MODEL 6
REMARK VINA RESULT:      -5.6     13.625     15.473
REMARK  13 active torsions:
REMARK  status: ('A' for Active; 'I' for Inactive)
REMARK    1  A    between atoms: N_6  and  C_7 
REMARK    2  A    between atoms: C_7  and  C_8 
REMARK    3  A    between atoms: C_8  and  C_9 
REMARK    4  A    between atoms: C_9  and  C_10 
REMARK    5  A    between atoms: C_10  and  C_11 
REMARK    6  A    between atoms: C_11  and  C_12 
REMARK    7  A    between atoms: C_11  and  N_15 
REMARK       I    between atoms: N_15  and  C_16 
REMARK    8  A    between atoms: C_16  and  C_17 
REMARK    9  A    between atoms: C_17  and  C_18 
REMARK   10  A    between atoms: C_17  and  N_24 
REMARK   11  A    between atoms: C_18  and  O_19 
REMARK   12  A    between atoms: O_19  and  P_20 
REMARK   13  A    between atoms: P_20  and  O_21 
ROOT
HETATM    1  O           1     -20.685  -4.450  -6.200  0.00  0.00    -0.271 OA
HETATM    2  N           1     -21.899  -6.274  -5.767  0.00  0.00    -0.345 N 
HETATM    3  C           1     -21.605  -5.167  -6.516  0.00  0.00     0.251 C 
HETATM    4  H           1     -22.670  -6.874  -6.032  0.00  0.00     0.163 HD
ENDROOT
BRANCH   2   5
HETATM    5  C           1     -21.106  -6.588  -4.594  0.00  0.00     0.185 C 
BRANCH   5   6
HETATM    6  C           1     -22.030  -6.962  -3.443  0.00  0.00     0.036 C 
BRANCH   6   7
HETATM    7  C           1     -21.718  -6.086  -2.236  0.00  0.00     0.004 C 
BRANCH   7   8
HETATM    8  C           1     -22.287  -6.732  -0.979  0.00  0.00     0.027 C 
BRANCH   8   9
HETATM    9  C           1     -21.518  -8.010  -0.672  0.00  0.00     0.229 C 
BRANCH   9  10
HETATM   10  N           1     -22.478  -9.086  -0.261  0.00  0.00    -0.079 N 
HETATM   11  H           1     -22.171  -9.498   0.648  0.00  0.00     0.274 HD
HETATM   12  H           1     -23.433  -8.676  -0.152  0.00  0.00     0.274 HD
HETATM   13  H           1     -22.499  -9.832  -0.992  0.00  0.00     0.274 HD
ENDBRANCH   9  10
ENDBRANCH   8   9
ENDBRANCH   7   8
ENDBRANCH   6   7
ENDBRANCH   5   6
BRANCH   5  14
HETATM   14  C           1     -20.192  -7.748  -4.902  0.00  0.00     0.196 C 
HETATM   15  O           1     -20.002  -8.639  -4.046  0.00  0.00    -0.646 OA
HETATM   16  O           1     -19.623  -7.817  -6.014  0.00  0.00    -0.646 OA
ENDBRANCH   5  14
ENDBRANCH   2   5
BRANCH   3  17
HETATM   17  C           1     -22.431  -4.840  -7.736  0.00  0.00     0.298 C 
BRANCH  17  18
HETATM   18  C           1     -21.686  -3.829  -8.598  0.00  0.00     0.224 C 
BRANCH  18  19
HETATM   19  O           1     -22.440  -3.546  -9.745  0.00  0.00    -0.287 OA
BRANCH  19  20
HETATM   20  P           1     -21.689  -3.765 -11.158  0.00  0.00     0.406 P 
HETATM   21  O           1     -21.327  -2.451 -11.732  0.00  0.00    -0.624 OA
HETATM   22  O           1     -20.464  -4.568 -10.945  0.00  0.00    -0.624 OA
BRANCH  20  23
HETATM   23  O           1     -22.671  -4.544 -12.176  0.00  0.00    -0.300 OA
HETATM   24  H           1     -22.253  -5.374 -12.332  0.00  0.00     0.223 HD
ENDBRANCH  20  23
ENDBRANCH  19  20
ENDBRANCH  18  19
ENDBRANCH  17  18
BRANCH  17  25
HETATM   25  N           1     -23.746  -4.261  -7.309  0.00  0.00    -0.064 N 
HETATM   26  H           1     -23.692  -3.217  -7.338  0.00  0.00     0.275 HD
HETATM   27  H           1     -24.498  -4.589  -7.957  0.00  0.00     0.275 HD
HETATM   28  H           1     -23.964  -4.572  -6.336  0.00  0.00     0.275 HD
ENDBRANCH  17  25
ENDBRANCH   3  17
TORSDOF 13
ENDMDL
MODEL 7
REMARK VINA RESULT:      -5.5     12.929     14.639
REMARK  13 active torsions:
REMARK  status: ('A' for Active; 'I' for Inactive)
REMARK    1  A    between atoms: N_6  and  C_7 
REMARK    2  A    between atoms: C_7  and  C_8 
REMARK    3  A    between atoms: C_8  and  C_9 
REMARK    4  A    between atoms: C_9  and  C_10 
REMARK    5  A    between atoms: C_10  and  C_11 
REMARK    6  A    between atoms: C_11  and  C_12 
REMARK    7  A    between atoms: C_11  and  N_15 
REMARK       I    between atoms: N_15  and  C_16 
REMARK    8  A    between atoms: C_16  and  C_17 
REMARK    9  A    between atoms: C_17  and  C_18 
REMARK   10  A    between atoms: C_17  and  N_24 
REMARK   11  A    between atoms: C_18  and  O_19 
REMARK   12  A    between atoms: O_19  and  P_20 
REMARK   13  A    between atoms: P_20  and  O_21 
ROOT
HETATM    1  O           1     -21.890  -3.096  -7.995  0.00  0.00    -0.271 OA
HETATM    2  N           1     -22.053  -5.085  -6.993  0.00  0.00    -0.345 N 
HETATM    3  C           1     -22.486  -4.141  -7.885  0.00  0.00     0.251 C 
HETATM    4  H           1     -22.552  -5.961  -6.901  0.00  0.00     0.163 HD
ENDROOT
BRANCH   2   5
HETATM    5  C           1     -20.880  -4.830  -6.180  0.00  0.00     0.185 C 
BRANCH   5   6
HETATM    6  C           1     -21.007  -5.577  -4.859  0.00  0.00     0.036 C 
BRANCH   6   7
HETATM    7  C           1     -21.958  -6.754  -5.029  0.00  0.00     0.004 C 
BRANCH   7   8
HETATM    8  C           1     -21.590  -7.853  -4.042  0.00  0.00     0.027 C 
BRANCH   8   9
HETATM    9  C           1     -21.249  -9.127  -4.803  0.00  0.00     0.229 C 
BRANCH   9  10
HETATM   10  N           1     -20.001  -8.912  -5.607  0.00  0.00    -0.079 N 
HETATM   11  H           1     -20.221  -9.013  -6.624  0.00  0.00     0.274 HD
HETATM   12  H           1     -19.632  -7.951  -5.425  0.00  0.00     0.274 HD
HETATM   13  H           1     -19.284  -9.620  -5.334  0.00  0.00     0.274 HD
ENDBRANCH   9  10
ENDBRANCH   8   9
ENDBRANCH   7   8
ENDBRANCH   6   7
ENDBRANCH   5   6
BRANCH   5  14
HETATM   14  C           1     -19.649  -5.305  -6.911  0.00  0.00     0.196 C 
HETATM   15  O           1     -19.560  -6.498  -7.274  0.00  0.00    -0.646 OA
HETATM   16  O           1     -18.718  -4.507  -7.153  0.00  0.00    -0.646 OA
ENDBRANCH   5  14
ENDBRANCH   2   5
BRANCH   3  17
HETATM   17  C           1     -23.707  -4.407  -8.731  0.00  0.00     0.298 C 
BRANCH  17  18
HETATM   18  C           1     -23.274  -4.882 -10.112  0.00  0.00     0.224 C 
BRANCH  18  19
HETATM   19  O           1     -23.069  -3.773 -10.946  0.00  0.00    -0.287 OA
BRANCH  19  20
HETATM   20  P           1     -21.604  -3.652 -11.614  0.00  0.00     0.406 P 
HETATM   21  O           1     -20.991  -2.362 -11.227  0.00  0.00    -0.624 OA
HETATM   22  O           1     -20.752  -4.767 -11.140  0.00  0.00    -0.624 OA
BRANCH  20  23
HETATM   23  O           1     -21.737  -3.724 -13.222  0.00  0.00    -0.300 OA
HETATM   24  H           1     -21.330  -4.538 -13.465  0.00  0.00     0.223 HD
ENDBRANCH  20  23
ENDBRANCH  19  20
ENDBRANCH  18  19
ENDBRANCH  17  18
BRANCH  17  25
HETATM   25  N           1     -24.505  -3.144  -8.865  0.00  0.00    -0.064 N 
HETATM   26  H           1     -23.921  -2.411  -9.326  0.00  0.00     0.275 HD
HETATM   27  H           1     -25.355  -3.330  -9.446  0.00  0.00     0.275 HD
HETATM   28  H           1     -24.797  -2.814  -7.917  0.00  0.00     0.275 HD
ENDBRANCH  17  25
ENDBRANCH   3  17
TORSDOF 13
ENDMDL
MODEL 8
REMARK VINA RESULT:      -5.4      5.676      7.378
REMARK  13 active torsions:
REMARK  status: ('A' for Active; 'I' for Inactive)
REMARK    1  A    between atoms: N_6  and  C_7 
REMARK    2  A    between atoms: C_7  and  C_8 
REMARK    3  A    between atoms: C_8  and  C_9 
REMARK    4  A    between atoms: C_9  and  C_10 
REMARK    5  A    between atoms: C_10  and  C_11 
REMARK    6  A    between atoms: C_11  and  C_12 
REMARK    7  A    between atoms: C_11  and  N_15 
REMARK       I    between atoms: N_15  and  C_16 
REMARK    8  A    between atoms: C_16  and  C_17 
REMARK    9  A    between atoms: C_17  and  C_18 
REMARK   10  A    between atoms: C_17  and  N_24 
REMARK   11  A    between atoms: C_18  and  O_19 
REMARK   12  A    between atoms: O_19  and  P_20 
REMARK   13  A    between atoms: P_20  and  O_21 
ROOT
HETATM    1  O           1     -32.268  -3.608 -17.308  0.00  0.00    -0.271 OA
HETATM    2  N           1     -31.985  -5.725 -16.652  0.00  0.00    -0.345 N 
HETATM    3  C           1     -32.688  -4.551 -16.678  0.00  0.00     0.251 C 
HETATM    4  H           1     -32.337  -6.514 -16.125  0.00  0.00     0.163 HD
ENDROOT
BRANCH   2   5
HETATM    5  C           1     -30.736  -5.838 -17.380  0.00  0.00     0.185 C 
BRANCH   5   6
HETATM    6  C           1     -29.578  -5.480 -16.459  0.00  0.00     0.036 C 
BRANCH   6   7
HETATM    7  C           1     -28.515  -4.726 -17.247  0.00  0.00     0.004 C 
BRANCH   7   8
HETATM    8  C           1     -27.234  -5.550 -17.290  0.00  0.00     0.027 C 
BRANCH   8   9
HETATM    9  C           1     -27.075  -6.311 -15.981  0.00  0.00     0.229 C 
BRANCH   9  10
HETATM   10  N           1     -25.913  -7.253 -16.088  0.00  0.00    -0.079 N 
HETATM   11  H           1     -25.865  -7.844 -15.228  0.00  0.00     0.274 HD
HETATM   12  H           1     -26.039  -7.866 -16.925  0.00  0.00     0.274 HD
HETATM   13  H           1     -25.029  -6.706 -16.184  0.00  0.00     0.274 HD
ENDBRANCH   9  10
ENDBRANCH   8   9
ENDBRANCH   7   8
ENDBRANCH   6   7
ENDBRANCH   5   6
BRANCH   5  14
HETATM   14  C           1     -30.568  -7.255 -17.871  0.00  0.00     0.196 C 
HETATM   15  O           1     -31.217  -7.654 -18.863  0.00  0.00    -0.646 OA
HETATM   16  O           1     -29.780  -8.030 -17.286  0.00  0.00    -0.646 OA
ENDBRANCH   5  14
ENDBRANCH   2   5
BRANCH   3  17
HETATM   17  C           1     -33.988  -4.432 -15.921  0.00  0.00     0.298 C 
BRANCH  17  18
HETATM   18  C           1     -33.701  -4.044 -14.477  0.00  0.00     0.224 C 
BRANCH  18  19
HETATM   19  O           1     -34.740  -4.503 -13.653  0.00  0.00    -0.287 OA
BRANCH  19  20
HETATM   20  P           1     -34.457  -4.455 -12.064  0.00  0.00     0.406 P 
HETATM   21  O           1     -34.305  -5.834 -11.550  0.00  0.00    -0.624 OA
HETATM   22  O           1     -33.214  -3.692 -11.807  0.00  0.00    -0.624 OA
BRANCH  20  23
HETATM   23  O           1     -35.694  -3.735 -11.317  0.00  0.00    -0.300 OA
HETATM   24  H           1     -35.853  -4.257 -10.549  0.00  0.00     0.223 HD
ENDBRANCH  20  23
ENDBRANCH  19  20
ENDBRANCH  18  19
ENDBRANCH  17  18
BRANCH  17  25
HETATM   25  N           1     -34.705  -5.749 -15.951  0.00  0.00    -0.064 N 
HETATM   26  H           1     -35.169  -5.913 -15.030  0.00  0.00     0.275 HD
HETATM   27  H           1     -35.427  -5.735 -16.708  0.00  0.00     0.275 HD
HETATM   28  H           1     -34.019  -6.515 -16.138  0.00  0.00     0.275 HD
ENDBRANCH  17  25
ENDBRANCH   3  17
TORSDOF 13
ENDMDL
MODEL 9
REMARK VINA RESULT:      -5.3     13.502     15.408
REMARK  13 active torsions:
REMARK  status: ('A' for Active; 'I' for Inactive)
REMARK    1  A    between atoms: N_6  and  C_7 
REMARK    2  A    between atoms: C_7  and  C_8 
REMARK    3  A    between atoms: C_8  and  C_9 
REMARK    4  A    between atoms: C_9  and  C_10 
REMARK    5  A    between atoms: C_10  and  C_11 
REMARK    6  A    between atoms: C_11  and  C_12 
REMARK    7  A    between atoms: C_11  and  N_15 
REMARK       I    between atoms: N_15  and  C_16 
REMARK    8  A    between atoms: C_16  and  C_17 
REMARK    9  A    between atoms: C_17  and  C_18 
REMARK   10  A    between atoms: C_17  and  N_24 
REMARK   11  A    between atoms: C_18  and  O_19 
REMARK   12  A    between atoms: O_19  and  P_20 
REMARK   13  A    between atoms: P_20  and  O_21 
ROOT
HETATM    1  O           1     -23.046  -5.708  -5.750  0.00  0.00    -0.271 OA
HETATM    2  N           1     -21.061  -6.478  -5.074  0.00  0.00    -0.345 N 
HETATM    3  C           1     -21.842  -5.661  -5.847  0.00  0.00     0.251 C 
HETATM    4  H           1     -20.053  -6.439  -5.154  0.00  0.00     0.163 HD
ENDROOT
BRANCH   2   5
HETATM    5  C           1     -21.678  -7.399  -4.139  0.00  0.00     0.185 C 
BRANCH   5   6
HETATM    6  C           1     -20.941  -8.731  -4.179  0.00  0.00     0.036 C 
BRANCH   6   7
HETATM    7  C           1     -21.929  -9.866  -3.944  0.00  0.00     0.004 C 
BRANCH   7   8
HETATM    8  C           1     -21.541 -10.625  -2.682  0.00  0.00     0.027 C 
BRANCH   8   9
HETATM    9  C           1     -22.722 -10.651  -1.722  0.00  0.00     0.229 C 
BRANCH   9  10
HETATM   10  N           1     -22.587  -9.534  -0.730  0.00  0.00    -0.079 N 
HETATM   11  H           1     -21.664  -9.063  -0.860  0.00  0.00     0.274 HD
HETATM   12  H           1     -23.356  -8.842  -0.880  0.00  0.00     0.274 HD
HETATM   13  H           1     -22.648  -9.920   0.239  0.00  0.00     0.274 HD
ENDBRANCH   9  10
ENDBRANCH   8   9
ENDBRANCH   7   8
ENDBRANCH   6   7
ENDBRANCH   5   6
BRANCH   5  14
HETATM   14  C           1     -21.605  -6.825  -2.746  0.00  0.00     0.196 C 
HETATM   15  O           1     -20.762  -7.262  -1.933  0.00  0.00    -0.646 OA
HETATM   16  O           1     -22.389  -5.912  -2.404  0.00  0.00    -0.646 OA
ENDBRANCH   5  14
ENDBRANCH   2   5
BRANCH   3  17
HETATM   17  C           1     -21.200  -4.702  -6.819  0.00  0.00     0.298 C 
BRANCH  17  18
HETATM   18  C           1     -21.887  -4.817  -8.174  0.00  0.00     0.224 C 
BRANCH  18  19
HETATM   19  O           1     -22.617  -3.646  -8.428  0.00  0.00    -0.287 OA
BRANCH  19  20
HETATM   20  P           1     -23.652  -3.713  -9.666  0.00  0.00     0.406 P 
HETATM   21  O           1     -23.036  -3.086 -10.856  0.00  0.00    -0.624 OA
HETATM   22  O           1     -23.975  -5.127  -9.963  0.00  0.00    -0.624 OA
BRANCH  20  23
HETATM   23  O           1     -25.006  -2.922  -9.281  0.00  0.00    -0.300 OA
HETATM   24  H           1     -24.778  -2.397  -8.532  0.00  0.00     0.223 HD
ENDBRANCH  20  23
ENDBRANCH  19  20
ENDBRANCH  18  19
ENDBRANCH  17  18
BRANCH  17  25
HETATM   25  N           1     -19.746  -5.039  -6.966  0.00  0.00    -0.064 N 
HETATM   26  H           1     -19.383  -4.631  -7.857  0.00  0.00     0.275 HD
HETATM   27  H           1     -19.214  -4.643  -6.158  0.00  0.00     0.275 HD
HETATM   28  H           1     -19.629  -6.077  -6.984  0.00  0.00     0.275 HD
ENDBRANCH  17  25
ENDBRANCH   3  17
TORSDOF 13
ENDMDL
