MODEL 1
REMARK VINA RESULT:      -5.8      0.000      0.000
REMARK  8 active torsions:
REMARK  status: ('A' for Active; 'I' for Inactive)
REMARK    1  A    between atoms: C_1  and  C_17 
REMARK    2  A    between atoms: C_1  and  C_2 
REMARK    3  A    between atoms: N_8  and  C_17 
REMARK       I    between atoms: N_8  and  C_9 
REMARK    4  A    between atoms: C_9  and  C_18 
REMARK    5  A    between atoms: C_15  and  C_17 
REMARK    6  A    between atoms: C_18  and  C_19 
REMARK    7  A    between atoms: C_18  and  N_20 
REMARK    8  A    between atoms: C_19  and  S_23 
ROOT
HETATM    1  N           1     -25.531  -7.207 -18.140  0.00  0.00    -0.344 N 
HETATM    2  C           1     -24.885  -6.767 -19.264  0.00  0.00     0.249 C 
HETATM    3  O           1     -23.739  -6.390 -19.194  0.00  0.00    -0.271 OA
HETATM    4  H           1     -25.493  -8.185 -17.885  0.00  0.00     0.163 HD
ENDROOT
BRANCH   1   5
HETATM    5  C           1     -26.271  -6.271 -17.316  0.00  0.00     0.191 C 
BRANCH   5   6
HETATM    6  C           1     -27.764  -6.466 -17.544  0.00  0.00     0.094 C 
BRANCH   6   7
HETATM    7  C           1     -28.439  -5.131 -17.600  0.00  0.00     0.028 A 
HETATM    8  C           1     -29.501  -4.825 -18.418  0.00  0.00     0.114 A 
HETATM    9  N           1     -29.792  -3.517 -18.146  0.00  0.00    -0.360 N 
HETATM   10  C           1     -28.913  -3.091 -17.191  0.00  0.00     0.180 A 
HETATM   11  H           1     -30.553  -2.945 -18.588  0.00  0.00     0.166 HD
HETATM   12  N           1     -28.083  -4.046 -16.841  0.00  0.00    -0.354 N 
ATOM     13  HN          1     -27.333  -3.991 -16.152  1.00  0.00     0.166 HD
ENDBRANCH   6   7
ENDBRANCH   5   6
BRANCH   5  14
HETATM   14  C           1     -25.947  -6.518 -15.863  0.00  0.00     0.197 C 
HETATM   15  O           1     -26.562  -7.400 -15.226  0.00  0.00    -0.646 OA
HETATM   16  O           1     -25.063  -5.839 -15.295  0.00  0.00    -0.646 OA
ENDBRANCH   5  14
ENDBRANCH   1   5
BRANCH   2  17
HETATM   17  C           1     -25.604  -6.750 -20.591  0.00  0.00     0.283 C 
BRANCH  17  18
HETATM   18  C           1     -25.354  -8.064 -21.321  0.00  0.00     0.113 C 
BRANCH  18  19
HETATM   19  S           1     -23.947  -7.870 -22.452  0.00  0.00    -0.180 SA
HETATM   20  H           1     -24.182  -6.579 -22.746  0.00  0.00     0.101 HD
ENDBRANCH  18  19
ENDBRANCH  17  18
BRANCH  17  21
HETATM   21  N           1     -25.093  -5.612 -21.422  0.00  0.00    -0.066 N 
HETATM   22  H           1     -24.081  -5.764 -21.638  0.00  0.00     0.275 HD
HETATM   23  H           1     -25.636  -5.560 -22.313  0.00  0.00     0.275 HD
HETATM   24  H           1     -25.205  -4.717 -20.893  0.00  0.00     0.275 HD
ENDBRANCH  17  21
ENDBRANCH   2  17
TORSDOF 8
ENDMDL
MODEL 2
REMARK VINA RESULT:      -5.8      3.168      4.394
REMARK  8 active torsions:
REMARK  status: ('A' for Active; 'I' for Inactive)
REMARK    1  A    between atoms: C_1  and  C_17 
REMARK    2  A    between atoms: C_1  and  C_2 
REMARK    3  A    between atoms: N_8  and  C_17 
REMARK       I    between atoms: N_8  and  C_9 
REMARK    4  A    between atoms: C_9  and  C_18 
REMARK    5  A    between atoms: C_15  and  C_17 
REMARK    6  A    between atoms: C_18  and  C_19 
REMARK    7  A    between atoms: C_18  and  N_20 
REMARK    8  A    between atoms: C_19  and  S_23 
ROOT
HETATM    1  N           1     -28.467  -7.818 -16.939  0.00  0.00    -0.344 N 
HETATM    2  C           1     -27.662  -7.237 -15.995  0.00  0.00     0.249 C 
HETATM    3  O           1     -27.822  -7.493 -14.825  0.00  0.00    -0.271 OA
HETATM    4  H           1     -28.200  -8.699 -17.357  0.00  0.00     0.163 HD
ENDROOT
BRANCH   1   5
HETATM    5  C           1     -29.701  -7.169 -17.338  0.00  0.00     0.191 C 
BRANCH   5   6
HETATM    6  C           1     -29.416  -5.716 -17.696  0.00  0.00     0.094 C 
BRANCH   6   7
HETATM    7  C           1     -30.629  -4.886 -17.414  0.00  0.00     0.028 A 
HETATM    8  C           1     -30.774  -3.566 -17.770  0.00  0.00     0.114 A 
HETATM    9  N           1     -32.016  -3.213 -17.322  0.00  0.00    -0.360 N 
HETATM   10  C           1     -32.565  -4.312 -16.724  0.00  0.00     0.180 A 
HETATM   11  H           1     -32.467  -2.270 -17.420  0.00  0.00     0.166 HD
HETATM   12  N           1     -31.749  -5.339 -16.765  0.00  0.00    -0.354 N 
ATOM     13  HN          1     -31.914  -6.274 -16.394  1.00  0.00     0.166 HD
ENDBRANCH   6   7
ENDBRANCH   5   6
BRANCH   5  14
HETATM   14  C           1     -30.275  -7.880 -18.539  0.00  0.00     0.197 C 
HETATM   15  O           1     -29.546  -8.616 -19.238  0.00  0.00    -0.646 OA
HETATM   16  O           1     -31.481  -7.732 -18.836  0.00  0.00    -0.646 OA
ENDBRANCH   5  14
ENDBRANCH   1   5
BRANCH   2  17
HETATM   17  C           1     -26.578  -6.276 -16.416  0.00  0.00     0.283 C 
BRANCH  17  18
HETATM   18  C           1     -26.186  -6.554 -17.861  0.00  0.00     0.113 C 
BRANCH  18  19
HETATM   19  S           1     -24.430  -7.009 -17.936  0.00  0.00    -0.180 SA
HETATM   20  H           1     -24.618  -8.186 -18.559  0.00  0.00     0.101 HD
ENDBRANCH  18  19
ENDBRANCH  17  18
BRANCH  17  21
HETATM   21  N           1     -25.382  -6.453 -15.530  0.00  0.00    -0.066 N 
HETATM   22  H           1     -25.122  -5.534 -15.105  0.00  0.00     0.275 HD
HETATM   23  H           1     -25.608  -7.136 -14.772  0.00  0.00     0.275 HD
HETATM   24  H           1     -24.579  -6.814 -16.096  0.00  0.00     0.275 HD
ENDBRANCH  17  21
ENDBRANCH   2  17
TORSDOF 8
ENDMDL
MODEL 3
REMARK VINA RESULT:      -5.5     11.582     13.629
REMARK  8 active torsions:
REMARK  status: ('A' for Active; 'I' for Inactive)
REMARK    1  A    between atoms: C_1  and  C_17 
REMARK    2  A    between atoms: C_1  and  C_2 
REMARK    3  A    between atoms: N_8  and  C_17 
REMARK       I    between atoms: N_8  and  C_9 
REMARK    4  A    between atoms: C_9  and  C_18 
REMARK    5  A    between atoms: C_15  and  C_17 
REMARK    6  A    between atoms: C_18  and  C_19 
REMARK    7  A    between atoms: C_18  and  N_20 
REMARK    8  A    between atoms: C_19  and  S_23 
ROOT
HETATM    1  N           1     -21.848  -6.861  -6.252  0.00  0.00    -0.344 N 
HETATM    2  C           1     -22.343  -6.400  -5.061  0.00  0.00     0.249 C 
HETATM    3  O           1     -23.500  -6.063  -4.978  0.00  0.00    -0.271 OA
HETATM    4  H           1     -21.887  -7.849  -6.467  0.00  0.00     0.163 HD
ENDROOT
BRANCH   1   5
HETATM    5  C           1     -21.269  -5.934  -7.204  0.00  0.00     0.191 C 
BRANCH   5   6
HETATM    6  C           1     -21.861  -4.547  -6.985  0.00  0.00     0.094 C 
BRANCH   6   7
HETATM    7  C           1     -22.623  -4.132  -8.204  0.00  0.00     0.028 A 
HETATM    8  C           1     -22.063  -3.919  -9.441  0.00  0.00     0.114 A 
HETATM    9  N           1     -23.108  -3.559 -10.246  0.00  0.00    -0.360 N 
HETATM   10  C           1     -24.238  -3.569  -9.479  0.00  0.00     0.180 A 
HETATM   11  H           1     -23.053  -3.320 -11.266  0.00  0.00     0.166 HD
HETATM   12  N           1     -23.976  -3.912  -8.240  0.00  0.00    -0.354 N 
ATOM     13  HN          1     -24.638  -3.997  -7.468  1.00  0.00     0.166 HD
ENDBRANCH   6   7
ENDBRANCH   5   6
BRANCH   5  14
HETATM   14  C           1     -19.774  -5.880  -7.006  0.00  0.00     0.197 C 
HETATM   15  O           1     -19.173  -4.786  -7.072  0.00  0.00    -0.646 OA
HETATM   16  O           1     -19.136  -6.931  -6.777  0.00  0.00    -0.646 OA
ENDBRANCH   5  14
ENDBRANCH   1   5
BRANCH   2  17
HETATM   17  C           1     -21.442  -6.312  -3.853  0.00  0.00     0.283 C 
BRANCH  17  18
HETATM   18  C           1     -20.734  -7.645  -3.649  0.00  0.00     0.113 C 
BRANCH  18  19
HETATM   19  S           1     -21.011  -8.224  -1.951  0.00  0.00    -0.180 SA
HETATM   20  H           1     -19.828  -7.808  -1.467  0.00  0.00     0.101 HD
ENDBRANCH  18  19
ENDBRANCH  17  18
BRANCH  17  21
HETATM   21  N           1     -22.263  -5.990  -2.641  0.00  0.00    -0.066 N 
HETATM   22  H           1     -23.141  -6.559  -2.652  0.00  0.00     0.275 HD
HETATM   23  H           1     -21.715  -6.213  -1.780  0.00  0.00     0.275 HD
HETATM   24  H           1     -22.508  -4.974  -2.645  0.00  0.00     0.275 HD
ENDBRANCH  17  21
ENDBRANCH   2  17
TORSDOF 8
ENDMDL
MODEL 4
REMARK VINA RESULT:      -5.3      4.019      6.140
REMARK  8 active torsions:
REMARK  status: ('A' for Active; 'I' for Inactive)
REMARK    1  A    between atoms: C_1  and  C_17 
REMARK    2  A    between atoms: C_1  and  C_2 
REMARK    3  A    between atoms: N_8  and  C_17 
REMARK       I    between atoms: N_8  and  C_9 
REMARK    4  A    between atoms: C_9  and  C_18 
REMARK    5  A    between atoms: C_15  and  C_17 
REMARK    6  A    between atoms: C_18  and  C_19 
REMARK    7  A    between atoms: C_18  and  N_20 
REMARK    8  A    between atoms: C_19  and  S_23 
ROOT
HETATM    1  N           1     -29.292  -5.311 -18.760  0.00  0.00    -0.344 N 
HETATM    2  C           1     -29.840  -4.488 -17.812  0.00  0.00     0.249 C 
HETATM    3  O           1     -29.255  -3.490 -17.466  0.00  0.00    -0.271 OA
HETATM    4  H           1     -29.496  -5.159 -19.739  0.00  0.00     0.163 HD
ENDROOT
BRANCH   1   5
HETATM    5  C           1     -28.420  -6.398 -18.359  0.00  0.00     0.191 C 
BRANCH   5   6
HETATM    6  C           1     -27.660  -6.000 -17.101  0.00  0.00     0.094 C 
BRANCH   6   7
HETATM    7  C           1     -26.248  -6.487 -17.196  0.00  0.00     0.028 A 
HETATM    8  C           1     -25.436  -6.747 -16.118  0.00  0.00     0.114 A 
HETATM    9  N           1     -24.252  -7.164 -16.658  0.00  0.00    -0.360 N 
HETATM   10  C           1     -24.390  -7.140 -18.017  0.00  0.00     0.180 A 
HETATM   11  H           1     -23.393  -7.450 -16.127  0.00  0.00     0.166 HD
HETATM   12  N           1     -25.587  -6.735 -18.372  0.00  0.00    -0.354 N 
ATOM     13  HN          1     -25.949  -6.629 -19.319  1.00  0.00     0.166 HD
ENDBRANCH   6   7
ENDBRANCH   5   6
BRANCH   5  14
HETATM   14  C           1     -29.248  -7.628 -18.080  0.00  0.00     0.197 C 
HETATM   15  O           1     -29.494  -7.962 -16.901  0.00  0.00    -0.646 OA
HETATM   16  O           1     -29.689  -8.314 -19.029  0.00  0.00    -0.646 OA
ENDBRANCH   5  14
ENDBRANCH   1   5
BRANCH   2  17
HETATM   17  C           1     -31.176  -4.830 -17.197  0.00  0.00     0.283 C 
BRANCH  17  18
HETATM   18  C           1     -32.102  -3.624 -17.290  0.00  0.00     0.113 C 
BRANCH  18  19
HETATM   19  S           1     -33.617  -3.950 -16.345  0.00  0.00    -0.180 SA
HETATM   20  H           1     -33.518  -5.290 -16.381  0.00  0.00     0.101 HD
ENDBRANCH  18  19
ENDBRANCH  17  18
BRANCH  17  21
HETATM   21  N           1     -30.982  -5.202 -15.758  0.00  0.00    -0.066 N 
HETATM   22  H           1     -31.219  -4.384 -15.151  0.00  0.00     0.275 HD
HETATM   23  H           1     -31.606  -6.005 -15.519  0.00  0.00     0.275 HD
HETATM   24  H           1     -29.985  -5.476 -15.600  0.00  0.00     0.275 HD
ENDBRANCH  17  21
ENDBRANCH   2  17
TORSDOF 8
ENDMDL
MODEL 5
REMARK VINA RESULT:      -5.3     10.997     13.014
REMARK  8 active torsions:
REMARK  status: ('A' for Active; 'I' for Inactive)
REMARK    1  A    between atoms: C_1  and  C_17 
REMARK    2  A    between atoms: C_1  and  C_2 
REMARK    3  A    between atoms: N_8  and  C_17 
REMARK       I    between atoms: N_8  and  C_9 
REMARK    4  A    between atoms: C_9  and  C_18 
REMARK    5  A    between atoms: C_15  and  C_17 
REMARK    6  A    between atoms: C_18  and  C_19 
REMARK    7  A    between atoms: C_18  and  N_20 
REMARK    8  A    between atoms: C_19  and  S_23 
ROOT
HETATM    1  N           1     -22.149  -5.217  -5.965  0.00  0.00    -0.344 N 
HETATM    2  C           1     -21.497  -5.986  -5.039  0.00  0.00     0.249 C 
HETATM    3  O           1     -20.622  -5.503  -4.361  0.00  0.00    -0.271 OA
HETATM    4  H           1     -22.984  -4.708  -5.702  0.00  0.00     0.163 HD
ENDROOT
BRANCH   1   5
HETATM    5  C           1     -21.644  -5.130  -7.322  0.00  0.00     0.191 C 
BRANCH   5   6
HETATM    6  C           1     -21.965  -3.756  -7.894  0.00  0.00     0.094 C 
BRANCH   6   7
HETATM    7  C           1     -23.012  -3.889  -8.955  0.00  0.00     0.028 A 
HETATM    8  C           1     -22.861  -4.608 -10.117  0.00  0.00     0.114 A 
HETATM    9  N           1     -24.046  -4.459 -10.783  0.00  0.00    -0.360 N 
HETATM   10  C           1     -24.852  -3.670 -10.013  0.00  0.00     0.180 A 
HETATM   11  H           1     -24.292  -4.875 -11.715  0.00  0.00     0.166 HD
HETATM   12  N           1     -24.254  -3.311  -8.901  0.00  0.00    -0.354 N 
ATOM     13  HN          1     -24.633  -2.726  -8.156  1.00  0.00     0.166 HD
ENDBRANCH   6   7
ENDBRANCH   5   6
BRANCH   5  14
HETATM   14  C           1     -20.150  -5.337  -7.314  0.00  0.00     0.197 C 
HETATM   15  O           1     -19.384  -4.363  -7.145  0.00  0.00    -0.646 OA
HETATM   16  O           1     -19.676  -6.483  -7.478  0.00  0.00    -0.646 OA
ENDBRANCH   5  14
ENDBRANCH   1   5
BRANCH   2  17
HETATM   17  C           1     -21.870  -7.439  -4.868  0.00  0.00     0.283 C 
BRANCH  17  18
HETATM   18  C           1     -21.527  -7.887  -3.453  0.00  0.00     0.113 C 
BRANCH  18  19
HETATM   19  S           1     -20.143  -9.061  -3.508  0.00  0.00    -0.180 SA
HETATM   20  H           1     -20.831 -10.060  -4.088  0.00  0.00     0.101 HD
ENDBRANCH  18  19
ENDBRANCH  17  18
BRANCH  17  21
HETATM   21  N           1     -21.106  -8.270  -5.854  0.00  0.00    -0.066 N 
HETATM   22  H           1     -21.600  -9.180  -6.000  0.00  0.00     0.275 HD
HETATM   23  H           1     -21.042  -7.760  -6.764  0.00  0.00     0.275 HD
HETATM   24  H           1     -20.144  -8.451  -5.487  0.00  0.00     0.275 HD
ENDBRANCH  17  21
ENDBRANCH   2  17
TORSDOF 8
ENDMDL
MODEL 6
REMARK VINA RESULT:      -5.3      2.923      3.893
REMARK  8 active torsions:
REMARK  status: ('A' for Active; 'I' for Inactive)
REMARK    1  A    between atoms: C_1  and  C_17 
REMARK    2  A    between atoms: C_1  and  C_2 
REMARK    3  A    between atoms: N_8  and  C_17 
REMARK       I    between atoms: N_8  and  C_9 
REMARK    4  A    between atoms: C_9  and  C_18 
REMARK    5  A    between atoms: C_15  and  C_17 
REMARK    6  A    between atoms: C_18  and  C_19 
REMARK    7  A    between atoms: C_18  and  N_20 
REMARK    8  A    between atoms: C_19  and  S_23 
ROOT
HETATM    1  N           1     -29.533  -5.245 -18.493  0.00  0.00    -0.344 N 
HETATM    2  C           1     -28.652  -6.293 -18.527  0.00  0.00     0.249 C 
HETATM    3  O           1     -29.045  -7.419 -18.337  0.00  0.00    -0.271 OA
HETATM    4  H           1     -30.002  -4.952 -19.341  0.00  0.00     0.163 HD
ENDROOT
BRANCH   1   5
HETATM    5  C           1     -29.794  -4.556 -17.244  0.00  0.00     0.191 C 
BRANCH   5   6
HETATM    6  C           1     -30.936  -5.248 -16.513  0.00  0.00     0.094 C 
BRANCH   6   7
HETATM    7  C           1     -32.184  -4.434 -16.654  0.00  0.00     0.028 A 
HETATM    8  C           1     -32.407  -3.509 -17.647  0.00  0.00     0.114 A 
HETATM    9  N           1     -33.655  -3.012 -17.394  0.00  0.00    -0.360 N 
HETATM   10  C           1     -34.130  -3.643 -16.279  0.00  0.00     0.180 A 
HETATM   11  H           1     -34.157  -2.279 -17.954  0.00  0.00     0.166 HD
HETATM   12  N           1     -33.263  -4.509 -15.810  0.00  0.00    -0.354 N 
ATOM     13  HN          1     -33.369  -5.109 -14.993  1.00  0.00     0.166 HD
ENDBRANCH   6   7
ENDBRANCH   5   6
BRANCH   5  14
HETATM   14  C           1     -28.553  -4.589 -16.386  0.00  0.00     0.197 C 
HETATM   15  O           1     -28.424  -5.468 -15.507  0.00  0.00    -0.646 OA
HETATM   16  O           1     -27.654  -3.736 -16.552  0.00  0.00    -0.646 OA
ENDBRANCH   5  14
ENDBRANCH   1   5
BRANCH   2  17
HETATM   17  C           1     -27.189  -6.040 -18.799  0.00  0.00     0.283 C 
BRANCH  17  18
HETATM   18  C           1     -26.793  -6.708 -20.109  0.00  0.00     0.113 C 
BRANCH  18  19
HETATM   19  S           1     -25.014  -7.071 -20.090  0.00  0.00    -0.180 SA
HETATM   20  H           1     -24.729  -6.429 -21.237  0.00  0.00     0.101 HD
ENDBRANCH  18  19
ENDBRANCH  17  18
BRANCH  17  21
HETATM   21  N           1     -26.368  -6.606 -17.680  0.00  0.00    -0.066 N 
HETATM   22  H           1     -26.192  -5.863 -16.965  0.00  0.00     0.275 HD
HETATM   23  H           1     -26.883  -7.400 -17.237  0.00  0.00     0.275 HD
HETATM   24  H           1     -25.455  -6.949 -18.056  0.00  0.00     0.275 HD
ENDBRANCH  17  21
ENDBRANCH   2  17
TORSDOF 8
ENDMDL
MODEL 7
REMARK VINA RESULT:      -5.0     13.280     15.166
REMARK  8 active torsions:
REMARK  status: ('A' for Active; 'I' for Inactive)
REMARK    1  A    between atoms: C_1  and  C_17 
REMARK    2  A    between atoms: C_1  and  C_2 
REMARK    3  A    between atoms: N_8  and  C_17 
REMARK       I    between atoms: N_8  and  C_9 
REMARK    4  A    between atoms: C_9  and  C_18 
REMARK    5  A    between atoms: C_15  and  C_17 
REMARK    6  A    between atoms: C_18  and  C_19 
REMARK    7  A    between atoms: C_18  and  N_20 
REMARK    8  A    between atoms: C_19  and  S_23 
ROOT
HETATM    1  N           1     -20.828  -7.546  -5.979  0.00  0.00    -0.344 N 
HETATM    2  C           1     -20.323  -6.431  -6.592  0.00  0.00     0.249 C 
HETATM    3  O           1     -19.418  -6.535  -7.386  0.00  0.00    -0.271 OA
HETATM    4  H           1     -21.597  -8.051  -6.402  0.00  0.00     0.163 HD
ENDROOT
BRANCH   1   5
HETATM    5  C           1     -20.263  -8.004  -4.724  0.00  0.00     0.191 C 
BRANCH   5   6
HETATM    6  C           1     -21.360  -8.626  -3.871  0.00  0.00     0.094 C 
BRANCH   6   7
HETATM    7  C           1     -21.747  -7.673  -2.784  0.00  0.00     0.028 A 
HETATM    8  C           1     -21.966  -6.328  -2.964  0.00  0.00     0.114 A 
HETATM    9  N           1     -22.292  -5.853  -1.724  0.00  0.00    -0.360 N 
HETATM   10  C           1     -22.259  -6.909  -0.859  0.00  0.00     0.180 A 
HETATM   11  H           1     -22.526  -4.859  -1.482  0.00  0.00     0.166 HD
HETATM   12  N           1     -21.933  -8.023  -1.471  0.00  0.00    -0.354 N 
ATOM     13  HN          1     -21.839  -8.951  -1.058  1.00  0.00     0.166 HD
ENDBRANCH   6   7
ENDBRANCH   5   6
BRANCH   5  14
HETATM   14  C           1     -19.196  -9.034  -5.002  0.00  0.00     0.197 C 
HETATM   15  O           1     -19.251  -9.728  -6.041  0.00  0.00    -0.646 OA
HETATM   16  O           1     -18.256  -9.196  -4.193  0.00  0.00    -0.646 OA
ENDBRANCH   5  14
ENDBRANCH   1   5
BRANCH   2  17
HETATM   17  C           1     -20.894  -5.070  -6.273  0.00  0.00     0.283 C 
BRANCH  17  18
HETATM   18  C           1     -20.889  -4.210  -7.530  0.00  0.00     0.113 C 
BRANCH  18  19
HETATM   19  S           1     -22.543  -4.221  -8.278  0.00  0.00    -0.180 SA
HETATM   20  H           1     -22.953  -3.066  -7.725  0.00  0.00     0.101 HD
ENDBRANCH  18  19
ENDBRANCH  17  18
BRANCH  17  21
HETATM   21  N           1     -20.059  -4.414  -5.215  0.00  0.00    -0.066 N 
HETATM   22  H           1     -19.792  -3.452  -5.527  0.00  0.00     0.275 HD
HETATM   23  H           1     -20.607  -4.352  -4.328  0.00  0.00     0.275 HD
HETATM   24  H           1     -19.195  -4.979  -5.052  0.00  0.00     0.275 HD
ENDBRANCH  17  21
ENDBRANCH   2  17
TORSDOF 8
ENDMDL
MODEL 8
REMARK VINA RESULT:      -4.9     11.627     13.870
REMARK  8 active torsions:
REMARK  status: ('A' for Active; 'I' for Inactive)
REMARK    1  A    between atoms: C_1  and  C_17 
REMARK    2  A    between atoms: C_1  and  C_2 
REMARK    3  A    between atoms: N_8  and  C_17 
REMARK       I    between atoms: N_8  and  C_9 
REMARK    4  A    between atoms: C_9  and  C_18 
REMARK    5  A    between atoms: C_15  and  C_17 
REMARK    6  A    between atoms: C_18  and  C_19 
REMARK    7  A    between atoms: C_18  and  N_20 
REMARK    8  A    between atoms: C_19  and  S_23 
ROOT
HETATM    1  N           1     -20.537  -6.366  -6.768  0.00  0.00    -0.344 N 
HETATM    2  C           1     -20.970  -5.103  -7.071  0.00  0.00     0.249 C 
HETATM    3  O           1     -20.635  -4.167  -6.384  0.00  0.00    -0.271 OA
HETATM    4  H           1     -19.672  -6.712  -7.165  0.00  0.00     0.163 HD
ENDROOT
BRANCH   1   5
HETATM    5  C           1     -21.315  -7.206  -5.879  0.00  0.00     0.191 C 
BRANCH   5   6
HETATM    6  C           1     -20.378  -8.104  -5.083  0.00  0.00     0.094 C 
BRANCH   6   7
HETATM    7  C           1     -20.961  -9.480  -4.994  0.00  0.00     0.028 A 
HETATM    8  C           1     -21.682  -9.956  -3.925  0.00  0.00     0.114 A 
HETATM    9  N           1     -22.015 -11.238  -4.265  0.00  0.00    -0.360 N 
HETATM   10  C           1     -21.492 -11.483  -5.503  0.00  0.00     0.180 A 
HETATM   11  H           1     -22.571 -11.911  -3.682  0.00  0.00     0.166 HD
HETATM   12  N           1     -20.850 -10.438  -5.969  0.00  0.00    -0.354 N 
ATOM     13  HN          1     -20.371 -10.356  -6.866  1.00  0.00     0.166 HD
ENDBRANCH   6   7
ENDBRANCH   5   6
BRANCH   5  14
HETATM   14  C           1     -22.105  -6.337  -4.932  0.00  0.00     0.197 C 
HETATM   15  O           1     -21.584  -5.935  -3.870  0.00  0.00    -0.646 OA
HETATM   16  O           1     -23.283  -6.020  -5.210  0.00  0.00    -0.646 OA
ENDBRANCH   5  14
ENDBRANCH   1   5
BRANCH   2  17
HETATM   17  C           1     -21.870  -4.879  -8.263  0.00  0.00     0.283 C 
BRANCH  17  18
HETATM   18  C           1     -21.103  -4.132  -9.346  0.00  0.00     0.113 C 
BRANCH  18  19
HETATM   19  S           1     -22.078  -4.115 -10.877  0.00  0.00    -0.180 SA
HETATM   20  H           1     -21.032  -4.258 -11.710  0.00  0.00     0.101 HD
ENDBRANCH  18  19
ENDBRANCH  17  18
BRANCH  17  21
HETATM   21  N           1     -23.061  -4.070  -7.845  0.00  0.00    -0.066 N 
HETATM   22  H           1     -23.931  -4.504  -8.229  0.00  0.00     0.275 HD
HETATM   23  H           1     -23.116  -4.045  -6.802  0.00  0.00     0.275 HD
HETATM   24  H           1     -22.966  -3.096  -8.213  0.00  0.00     0.275 HD
ENDBRANCH  17  21
ENDBRANCH   2  17
TORSDOF 8
ENDMDL
MODEL 9
REMARK VINA RESULT:      -4.9     10.848     12.902
REMARK  8 active torsions:
REMARK  status: ('A' for Active; 'I' for Inactive)
REMARK    1  A    between atoms: C_1  and  C_17 
REMARK    2  A    between atoms: C_1  and  C_2 
REMARK    3  A    between atoms: N_8  and  C_17 
REMARK       I    between atoms: N_8  and  C_9 
REMARK    4  A    between atoms: C_9  and  C_18 
REMARK    5  A    between atoms: C_15  and  C_17 
REMARK    6  A    between atoms: C_18  and  C_19 
REMARK    7  A    between atoms: C_18  and  N_20 
REMARK    8  A    between atoms: C_19  and  S_23 
ROOT
HETATM    1  N           1     -21.949  -3.699  -7.495  0.00  0.00    -0.344 N 
HETATM    2  C           1     -22.945  -4.139  -8.327  0.00  0.00     0.249 C 
HETATM    3  O           1     -24.095  -4.117  -7.957  0.00  0.00    -0.271 OA
HETATM    4  H           1     -21.670  -2.727  -7.512  0.00  0.00     0.163 HD
ENDROOT
BRANCH   1   5
HETATM    5  C           1     -21.297  -4.626  -6.591  0.00  0.00     0.191 C 
BRANCH   5   6
HETATM    6  C           1     -22.224  -5.803  -6.317  0.00  0.00     0.094 C 
BRANCH   6   7
HETATM    7  C           1     -21.794  -6.496  -5.062  0.00  0.00     0.028 A 
HETATM    8  C           1     -21.435  -7.820  -4.983  0.00  0.00     0.114 A 
HETATM    9  N           1     -21.120  -8.024  -3.668  0.00  0.00    -0.360 N 
HETATM   10  C           1     -21.296  -6.837  -3.016  0.00  0.00     0.180 A 
HETATM   11  H           1     -20.800  -8.927  -3.239  0.00  0.00     0.166 HD
HETATM   12  N           1     -21.703  -5.894  -3.833  0.00  0.00    -0.354 N 
ATOM     13  HN          1     -21.907  -4.922  -3.602  1.00  0.00     0.166 HD
ENDBRANCH   6   7
ENDBRANCH   5   6
BRANCH   5  14
HETATM   14  C           1     -20.021  -5.127  -7.222  0.00  0.00     0.197 C 
HETATM   15  O           1     -20.025  -6.186  -7.885  0.00  0.00    -0.646 OA
HETATM   16  O           1     -18.958  -4.483  -7.079  0.00  0.00    -0.646 OA
ENDBRANCH   5  14
ENDBRANCH   1   5
BRANCH   2  17
HETATM   17  C           1     -22.604  -4.653  -9.704  0.00  0.00     0.283 C 
BRANCH  17  18
HETATM   18  C           1     -21.981  -3.532 -10.526  0.00  0.00     0.113 C 
BRANCH  18  19
HETATM   19  S           1     -20.284  -3.988 -10.983  0.00  0.00    -0.180 SA
HETATM   20  H           1     -19.773  -3.885  -9.744  0.00  0.00     0.101 HD
ENDBRANCH  18  19
ENDBRANCH  17  18
BRANCH  17  21
HETATM   21  N           1     -23.853  -5.134 -10.380  0.00  0.00    -0.066 N 
HETATM   22  H           1     -24.083  -4.501 -11.181  0.00  0.00     0.275 HD
HETATM   23  H           1     -23.705  -6.105 -10.736  0.00  0.00     0.275 HD
HETATM   24  H           1     -24.644  -5.130  -9.696  0.00  0.00     0.275 HD
ENDBRANCH  17  21
ENDBRANCH   2  17
TORSDOF 8
ENDMDL
