MODEL 1
REMARK VINA RESULT:      -6.1      0.000      0.000
REMARK  6 active torsions:
REMARK  status: ('A' for Active; 'I' for Inactive)
REMARK    1  A    between atoms: N_1  and  C_12 
REMARK    2  A    between atoms: C_5  and  C_6 
REMARK    3  A    between atoms: C_5  and  N_18 
REMARK       I    between atoms: C_11  and  N_18 
REMARK    4  A    between atoms: C_11  and  C_12 
REMARK    5  A    between atoms: C_12  and  C_13 
REMARK    6  A    between atoms: C_13  and  C_14 
ROOT
HETATM    1  O           1     -21.538  -3.508  -7.229  0.00  0.00    -0.271 OA
HETATM    2  H           1     -22.343  -5.709  -9.313  0.00  0.00     0.163 HD
HETATM    3  C           1     -21.659  -4.615  -7.695  0.00  0.00     0.249 C 
HETATM    4  N           1     -22.242  -4.781  -8.922  0.00  0.00    -0.345 N 
ENDROOT
BRANCH   3   5
HETATM    5  C           1     -21.166  -5.816  -6.925  0.00  0.00     0.275 C 
BRANCH   5   6
HETATM    6  N           1     -19.863  -6.280  -7.503  0.00  0.00    -0.066 N 
HETATM    7  H           1     -19.258  -6.660  -6.740  0.00  0.00     0.275 HD
HETATM    8  H           1     -20.041  -7.028  -8.211  0.00  0.00     0.275 HD
HETATM    9  H           1     -19.379  -5.475  -7.962  0.00  0.00     0.275 HD
ENDBRANCH   5   6
BRANCH   5  10
HETATM   10  C           1     -20.967  -5.436  -5.464  0.00  0.00     0.046 C 
BRANCH  10  11
HETATM   11  C           1     -21.826  -6.333  -4.583  0.00  0.00    -0.020 C 
HETATM   12  C           1     -21.626  -7.788  -4.991  0.00  0.00     0.009 C 
HETATM   13  C           1     -21.418  -6.154  -3.127  0.00  0.00     0.009 C 
ENDBRANCH  10  11
ENDBRANCH   5  10
ENDBRANCH   3   5
BRANCH   4  14
HETATM   14  C           1     -22.715  -3.627  -9.663  0.00  0.00     0.181 C 
HETATM   15  C           1     -21.820  -3.400 -10.874  0.00  0.00     0.043 C 
BRANCH  14  16
HETATM   16  C           1     -24.132  -3.871 -10.121  0.00  0.00     0.196 C 
HETATM   17  O           1     -24.741  -2.990 -10.766  0.00  0.00    -0.646 OA
HETATM   18  O           1     -24.697  -4.954  -9.855  0.00  0.00    -0.646 OA
ENDBRANCH  14  16
ENDBRANCH   4  14
TORSDOF 6
ENDMDL
MODEL 2
REMARK VINA RESULT:      -5.5     11.308     13.039
REMARK  6 active torsions:
REMARK  status: ('A' for Active; 'I' for Inactive)
REMARK    1  A    between atoms: N_1  and  C_12 
REMARK    2  A    between atoms: C_5  and  C_6 
REMARK    3  A    between atoms: C_5  and  N_18 
REMARK       I    between atoms: C_11  and  N_18 
REMARK    4  A    between atoms: C_11  and  C_12 
REMARK    5  A    between atoms: C_12  and  C_13 
REMARK    6  A    between atoms: C_13  and  C_14 
ROOT
HETATM    1  O           1     -27.061  -6.372 -20.214  0.00  0.00    -0.271 OA
HETATM    2  H           1     -26.160  -6.628 -17.221  0.00  0.00     0.163 HD
HETATM    3  C           1     -26.314  -6.554 -19.284  0.00  0.00     0.249 C 
HETATM    4  N           1     -26.786  -6.475 -18.001  0.00  0.00    -0.345 N 
ENDROOT
BRANCH   3   5
HETATM    5  C           1     -24.860  -6.871 -19.534  0.00  0.00     0.275 C 
BRANCH   5   6
HETATM    6  N           1     -24.232  -7.370 -18.266  0.00  0.00    -0.066 N 
HETATM    7  H           1     -23.214  -7.541 -18.425  0.00  0.00     0.275 HD
HETATM    8  H           1     -24.353  -6.656 -17.513  0.00  0.00     0.275 HD
HETATM    9  H           1     -24.693  -8.263 -17.977  0.00  0.00     0.275 HD
ENDBRANCH   5   6
BRANCH   5  10
HETATM   10  C           1     -24.751  -7.943 -20.610  0.00  0.00     0.046 C 
BRANCH  10  11
HETATM   11  C           1     -23.483  -7.720 -21.423  0.00  0.00    -0.020 C 
HETATM   12  C           1     -22.537  -8.897 -21.222  0.00  0.00     0.009 C 
HETATM   13  C           1     -23.841  -7.603 -22.898  0.00  0.00     0.009 C 
ENDBRANCH  10  11
ENDBRANCH   5  10
ENDBRANCH   3   5
BRANCH   4  14
HETATM   14  C           1     -28.184  -6.171 -17.760  0.00  0.00     0.181 C 
HETATM   15  C           1     -28.687  -6.996 -16.583  0.00  0.00     0.043 C 
BRANCH  14  16
HETATM   16  C           1     -28.332  -4.703 -17.447  0.00  0.00     0.196 C 
HETATM   17  O           1     -29.150  -4.006 -18.085  0.00  0.00    -0.646 OA
HETATM   18  O           1     -27.635  -4.182 -16.548  0.00  0.00    -0.646 OA
ENDBRANCH  14  16
ENDBRANCH   4  14
TORSDOF 6
ENDMDL
MODEL 3
REMARK VINA RESULT:      -5.5     12.061     13.373
REMARK  6 active torsions:
REMARK  status: ('A' for Active; 'I' for Inactive)
REMARK    1  A    between atoms: N_1  and  C_12 
REMARK    2  A    between atoms: C_5  and  C_6 
REMARK    3  A    between atoms: C_5  and  N_18 
REMARK       I    between atoms: C_11  and  N_18 
REMARK    4  A    between atoms: C_11  and  C_12 
REMARK    5  A    between atoms: C_12  and  C_13 
REMARK    6  A    between atoms: C_13  and  C_14 
ROOT
HETATM    1  O           1     -28.296  -5.165 -19.121  0.00  0.00    -0.271 OA
HETATM    2  H           1     -27.351  -8.128 -18.710  0.00  0.00     0.163 HD
HETATM    3  C           1     -28.232  -6.257 -18.611  0.00  0.00     0.249 C 
HETATM    4  N           1     -27.405  -7.212 -19.138  0.00  0.00    -0.345 N 
ENDROOT
BRANCH   3   5
HETATM    5  C           1     -29.063  -6.570 -17.391  0.00  0.00     0.275 C 
BRANCH   5   6
HETATM    6  N           1     -28.316  -7.525 -16.508  0.00  0.00    -0.066 N 
HETATM    7  H           1     -28.292  -7.152 -15.532  0.00  0.00     0.275 HD
HETATM    8  H           1     -28.795  -8.454 -16.515  0.00  0.00     0.275 HD
HETATM    9  H           1     -27.339  -7.635 -16.862  0.00  0.00     0.275 HD
ENDBRANCH   5   6
BRANCH   5  10
HETATM   10  C           1     -29.344  -5.285 -16.624  0.00  0.00     0.046 C 
BRANCH  10  11
HETATM   11  C           1     -30.838  -4.991 -16.652  0.00  0.00    -0.020 C 
HETATM   12  C           1     -31.096  -3.750 -17.499  0.00  0.00     0.009 C 
HETATM   13  C           1     -31.576  -6.178 -17.255  0.00  0.00     0.009 C 
ENDBRANCH  10  11
ENDBRANCH   5  10
ENDBRANCH   3   5
BRANCH   4  14
HETATM   14  C           1     -26.605  -6.912 -20.310  0.00  0.00     0.181 C 
HETATM   15  C           1     -25.191  -6.546 -19.880  0.00  0.00     0.043 C 
BRANCH  14  16
HETATM   16  C           1     -26.561  -8.122 -21.211  0.00  0.00     0.196 C 
HETATM   17  O           1     -25.486  -8.458 -21.753  0.00  0.00    -0.646 OA
HETATM   18  O           1     -27.599  -8.788 -21.414  0.00  0.00    -0.646 OA
ENDBRANCH  14  16
ENDBRANCH   4  14
TORSDOF 6
ENDMDL
MODEL 4
REMARK VINA RESULT:      -5.4     11.542     13.248
REMARK  6 active torsions:
REMARK  status: ('A' for Active; 'I' for Inactive)
REMARK    1  A    between atoms: N_1  and  C_12 
REMARK    2  A    between atoms: C_5  and  C_6 
REMARK    3  A    between atoms: C_5  and  N_18 
REMARK       I    between atoms: C_11  and  N_18 
REMARK    4  A    between atoms: C_11  and  C_12 
REMARK    5  A    between atoms: C_12  and  C_13 
REMARK    6  A    between atoms: C_13  and  C_14 
ROOT
HETATM    1  O           1     -26.265  -6.023 -16.981  0.00  0.00    -0.271 OA
HETATM    2  H           1     -27.727  -6.706 -19.671  0.00  0.00     0.163 HD
HETATM    3  C           1     -26.383  -6.300 -18.150  0.00  0.00     0.249 C 
HETATM    4  N           1     -27.629  -6.475 -18.691  0.00  0.00    -0.345 N 
ENDROOT
BRANCH   3   5
HETATM    5  C           1     -25.157  -6.452 -19.017  0.00  0.00     0.275 C 
BRANCH   5   6
HETATM    6  N           1     -24.427  -7.705 -18.635  0.00  0.00    -0.066 N 
HETATM    7  H           1     -23.397  -7.543 -18.704  0.00  0.00     0.275 HD
HETATM    8  H           1     -24.674  -7.967 -17.654  0.00  0.00     0.275 HD
HETATM    9  H           1     -24.701  -8.479 -19.282  0.00  0.00     0.275 HD
ENDBRANCH   5   6
BRANCH   5  10
HETATM   10  C           1     -25.576  -6.535 -20.479  0.00  0.00     0.046 C 
BRANCH  10  11
HETATM   11  C           1     -25.323  -7.943 -21.001  0.00  0.00    -0.020 C 
HETATM   12  C           1     -26.644  -8.571 -21.429  0.00  0.00     0.009 C 
HETATM   13  C           1     -24.382  -7.879 -22.196  0.00  0.00     0.009 C 
ENDBRANCH  10  11
ENDBRANCH   5  10
ENDBRANCH   3   5
BRANCH   4  14
HETATM   14  C           1     -28.807  -6.328 -17.858  0.00  0.00     0.181 C 
HETATM   15  C           1     -29.405  -4.943 -18.064  0.00  0.00     0.043 C 
BRANCH  14  16
HETATM   16  C           1     -29.823  -7.377 -18.238  0.00  0.00     0.196 C 
HETATM   17  O           1     -31.004  -7.278 -17.839  0.00  0.00    -0.646 OA
HETATM   18  O           1     -29.484  -8.346 -18.952  0.00  0.00    -0.646 OA
ENDBRANCH  14  16
ENDBRANCH   4  14
TORSDOF 6
ENDMDL
MODEL 5
REMARK VINA RESULT:      -5.4      2.538      5.931
REMARK  6 active torsions:
REMARK  status: ('A' for Active; 'I' for Inactive)
REMARK    1  A    between atoms: N_1  and  C_12 
REMARK    2  A    between atoms: C_5  and  C_6 
REMARK    3  A    between atoms: C_5  and  N_18 
REMARK       I    between atoms: C_11  and  N_18 
REMARK    4  A    between atoms: C_11  and  C_12 
REMARK    5  A    between atoms: C_12  and  C_13 
REMARK    6  A    between atoms: C_13  and  C_14 
ROOT
HETATM    1  O           1     -20.670  -4.131  -6.582  0.00  0.00    -0.271 OA
HETATM    2  H           1     -22.568  -6.603  -6.217  0.00  0.00     0.163 HD
HETATM    3  C           1     -21.579  -4.889  -6.825  0.00  0.00     0.249 C 
HETATM    4  N           1     -21.806  -5.968  -6.013  0.00  0.00    -0.345 N 
ENDROOT
BRANCH   3   5
HETATM    5  C           1     -22.465  -4.646  -8.022  0.00  0.00     0.275 C 
BRANCH   5   6
HETATM    6  N           1     -23.807  -4.161  -7.561  0.00  0.00    -0.066 N 
HETATM    7  H           1     -24.521  -4.357  -8.298  0.00  0.00     0.275 HD
HETATM    8  H           1     -24.072  -4.656  -6.679  0.00  0.00     0.275 HD
HETATM    9  H           1     -23.764  -3.132  -7.384  0.00  0.00     0.275 HD
ENDBRANCH   5   6
BRANCH   5  10
HETATM   10  C           1     -21.828  -3.594  -8.921  0.00  0.00     0.046 C 
BRANCH  10  11
HETATM   11  C           1     -21.402  -4.237 -10.234  0.00  0.00    -0.020 C 
HETATM   12  C           1     -21.443  -3.197 -11.346  0.00  0.00     0.009 C 
HETATM   13  C           1     -19.985  -4.777 -10.097  0.00  0.00     0.009 C 
ENDBRANCH  10  11
ENDBRANCH   5  10
ENDBRANCH   3   5
BRANCH   4  14
HETATM   14  C           1     -20.955  -6.202  -4.862  0.00  0.00     0.181 C 
HETATM   15  C           1     -21.817  -6.340  -3.614  0.00  0.00     0.043 C 
BRANCH  14  16
HETATM   16  C           1     -20.164  -7.469  -5.072  0.00  0.00     0.196 C 
HETATM   17  O           1     -20.028  -8.284  -4.134  0.00  0.00    -0.646 OA
HETATM   18  O           1     -19.645  -7.706  -6.185  0.00  0.00    -0.646 OA
ENDBRANCH  14  16
ENDBRANCH   4  14
TORSDOF 6
ENDMDL
MODEL 6
REMARK VINA RESULT:      -5.4      1.692      2.220
REMARK  6 active torsions:
REMARK  status: ('A' for Active; 'I' for Inactive)
REMARK    1  A    between atoms: N_1  and  C_12 
REMARK    2  A    between atoms: C_5  and  C_6 
REMARK    3  A    between atoms: C_5  and  N_18 
REMARK       I    between atoms: C_11  and  N_18 
REMARK    4  A    between atoms: C_11  and  C_12 
REMARK    5  A    between atoms: C_12  and  C_13 
REMARK    6  A    between atoms: C_13  and  C_14 
ROOT
HETATM    1  O           1     -20.537  -4.490  -5.717  0.00  0.00    -0.271 OA
HETATM    2  H           1     -22.279  -6.081  -7.785  0.00  0.00     0.163 HD
HETATM    3  C           1     -21.243  -5.374  -6.138  0.00  0.00     0.249 C 
HETATM    4  N           1     -21.687  -5.340  -7.432  0.00  0.00    -0.345 N 
ENDROOT
BRANCH   3   5
HETATM    5  C           1     -21.638  -6.519  -5.236  0.00  0.00     0.275 C 
BRANCH   5   6
HETATM    6  N           1     -21.200  -7.814  -5.852  0.00  0.00    -0.066 N 
HETATM    7  H           1     -20.582  -7.619  -6.672  0.00  0.00     0.275 HD
HETATM    8  H           1     -20.674  -8.376  -5.145  0.00  0.00     0.275 HD
HETATM    9  H           1     -22.039  -8.351  -6.169  0.00  0.00     0.275 HD
ENDBRANCH   5   6
BRANCH   5  10
HETATM   10  C           1     -20.967  -6.351  -3.879  0.00  0.00     0.046 C 
BRANCH  10  11
HETATM   11  C           1     -21.715  -7.171  -2.837  0.00  0.00    -0.020 C 
HETATM   12  C           1     -20.763  -8.178  -2.203  0.00  0.00     0.009 C 
HETATM   13  C           1     -22.264  -6.244  -1.761  0.00  0.00     0.009 C 
ENDBRANCH  10  11
ENDBRANCH   5  10
ENDBRANCH   3   5
BRANCH   4  14
HETATM   14  C           1     -21.308  -4.240  -8.299  0.00  0.00     0.181 C 
HETATM   15  C           1     -20.159  -4.676  -9.199  0.00  0.00     0.043 C 
BRANCH  14  16
HETATM   16  C           1     -22.489  -3.840  -9.148  0.00  0.00     0.196 C 
HETATM   17  O           1     -23.652  -3.996  -8.715  0.00  0.00    -0.646 OA
HETATM   18  O           1     -22.306  -3.352 -10.285  0.00  0.00    -0.646 OA
ENDBRANCH  14  16
ENDBRANCH   4  14
TORSDOF 6
ENDMDL
MODEL 7
REMARK VINA RESULT:      -5.3      3.733      5.571
REMARK  6 active torsions:
REMARK  status: ('A' for Active; 'I' for Inactive)
REMARK    1  A    between atoms: N_1  and  C_12 
REMARK    2  A    between atoms: C_5  and  C_6 
REMARK    3  A    between atoms: C_5  and  N_18 
REMARK       I    between atoms: C_11  and  N_18 
REMARK    4  A    between atoms: C_11  and  C_12 
REMARK    5  A    between atoms: C_12  and  C_13 
REMARK    6  A    between atoms: C_13  and  C_14 
ROOT
HETATM    1  O           1     -22.675  -5.934  -2.798  0.00  0.00    -0.271 OA
HETATM    2  H           1     -20.245  -7.459  -4.065  0.00  0.00     0.163 HD
HETATM    3  C           1     -21.789  -6.749  -2.883  0.00  0.00     0.249 C 
HETATM    4  N           1     -20.988  -6.776  -3.994  0.00  0.00    -0.345 N 
ENDROOT
BRANCH   3   5
HETATM    5  C           1     -21.562  -7.738  -1.766  0.00  0.00     0.275 C 
BRANCH   5   6
HETATM    6  N           1     -20.100  -8.057  -1.669  0.00  0.00    -0.066 N 
HETATM    7  H           1     -19.939  -9.048  -1.958  0.00  0.00     0.275 HD
HETATM    8  H           1     -19.562  -7.418  -2.298  0.00  0.00     0.275 HD
HETATM    9  H           1     -19.779  -7.926  -0.683  0.00  0.00     0.275 HD
ENDBRANCH   5   6
BRANCH   5  10
HETATM   10  C           1     -22.038  -7.137  -0.451  0.00  0.00     0.046 C 
BRANCH  10  11
HETATM   11  C           1     -22.454  -8.253   0.498  0.00  0.00    -0.020 C 
HETATM   12  C           1     -22.911  -9.462  -0.308  0.00  0.00     0.009 C 
HETATM   13  C           1     -21.269  -8.643   1.371  0.00  0.00     0.009 C 
ENDBRANCH  10  11
ENDBRANCH   5  10
ENDBRANCH   3   5
BRANCH   4  14
HETATM   14  C           1     -21.205  -5.826  -5.067  0.00  0.00     0.181 C 
HETATM   15  C           1     -20.100  -4.778  -5.048  0.00  0.00     0.043 C 
BRANCH  14  16
HETATM   16  C           1     -21.189  -6.551  -6.390  0.00  0.00     0.196 C 
HETATM   17  O           1     -21.231  -7.800  -6.420  0.00  0.00    -0.646 OA
HETATM   18  O           1     -21.134  -5.902  -7.458  0.00  0.00    -0.646 OA
ENDBRANCH  14  16
ENDBRANCH   4  14
TORSDOF 6
ENDMDL
MODEL 8
REMARK VINA RESULT:      -5.2     12.115     13.110
REMARK  6 active torsions:
REMARK  status: ('A' for Active; 'I' for Inactive)
REMARK    1  A    between atoms: N_1  and  C_12 
REMARK    2  A    between atoms: C_5  and  C_6 
REMARK    3  A    between atoms: C_5  and  N_18 
REMARK       I    between atoms: C_11  and  N_18 
REMARK    4  A    between atoms: C_11  and  C_12 
REMARK    5  A    between atoms: C_12  and  C_13 
REMARK    6  A    between atoms: C_13  and  C_14 
ROOT
HETATM    1  O           1     -27.577  -5.837 -16.792  0.00  0.00    -0.271 OA
HETATM    2  H           1     -29.679  -5.223 -19.038  0.00  0.00     0.163 HD
HETATM    3  C           1     -28.131  -5.933 -17.861  0.00  0.00     0.249 C 
HETATM    4  N           1     -29.214  -5.144 -18.143  0.00  0.00    -0.345 N 
ENDROOT
BRANCH   3   5
HETATM    5  C           1     -27.632  -6.922 -18.885  0.00  0.00     0.275 C 
BRANCH   5   6
HETATM    6  N           1     -28.755  -7.826 -19.296  0.00  0.00    -0.066 N 
HETATM    7  H           1     -29.645  -7.281 -19.337  0.00  0.00     0.275 HD
HETATM    8  H           1     -28.550  -8.230 -20.238  0.00  0.00     0.275 HD
HETATM    9  H           1     -28.852  -8.600 -18.600  0.00  0.00     0.275 HD
ENDBRANCH   5   6
BRANCH   5  10
HETATM   10  C           1     -27.113  -6.171 -20.105  0.00  0.00     0.046 C 
BRANCH  10  11
HETATM   11  C           1     -25.737  -6.703 -20.483  0.00  0.00    -0.020 C 
HETATM   12  C           1     -24.894  -6.872 -19.225  0.00  0.00     0.009 C 
HETATM   13  C           1     -25.888  -8.050 -21.176  0.00  0.00     0.009 C 
ENDBRANCH  10  11
ENDBRANCH   5  10
ENDBRANCH   3   5
BRANCH   4  14
HETATM   14  C           1     -29.695  -4.193 -17.159  0.00  0.00     0.181 C 
HETATM   15  C           1     -28.998  -2.854 -17.364  0.00  0.00     0.043 C 
BRANCH  14  16
HETATM   16  C           1     -31.184  -4.015 -17.318  0.00  0.00     0.196 C 
HETATM   17  O           1     -31.637  -2.981 -17.856  0.00  0.00    -0.646 OA
HETATM   18  O           1     -31.967  -4.902 -16.913  0.00  0.00    -0.646 OA
ENDBRANCH  14  16
ENDBRANCH   4  14
TORSDOF 6
ENDMDL
MODEL 9
REMARK VINA RESULT:      -5.0      5.621      7.792
REMARK  6 active torsions:
REMARK  status: ('A' for Active; 'I' for Inactive)
REMARK    1  A    between atoms: N_1  and  C_12 
REMARK    2  A    between atoms: C_5  and  C_6 
REMARK    3  A    between atoms: C_5  and  N_18 
REMARK       I    between atoms: C_11  and  N_18 
REMARK    4  A    between atoms: C_11  and  C_12 
REMARK    5  A    between atoms: C_12  and  C_13 
REMARK    6  A    between atoms: C_13  and  C_14 
ROOT
HETATM    1  O           1     -19.886  -9.662  -1.624  0.00  0.00    -0.271 OA
HETATM    2  H           1     -22.704  -8.286  -1.699  0.00  0.00     0.163 HD
HETATM    3  C           1     -21.016  -9.409  -1.281  0.00  0.00     0.249 C 
HETATM    4  N           1     -21.757  -8.499  -1.986  0.00  0.00    -0.345 N 
ENDROOT
BRANCH   3   5
HETATM    5  C           1     -21.611 -10.095  -0.076  0.00  0.00     0.275 C 
BRANCH   5   6
HETATM    6  N           1     -20.943  -9.590   1.168  0.00  0.00    -0.066 N 
HETATM    7  H           1     -21.638  -9.070   1.751  0.00  0.00     0.275 HD
HETATM    8  H           1     -20.565 -10.397   1.713  0.00  0.00     0.275 HD
HETATM    9  H           1     -20.160  -8.948   0.907  0.00  0.00     0.275 HD
ENDBRANCH   5   6
BRANCH   5  10
HETATM   10  C           1     -23.103  -9.796  -0.007  0.00  0.00     0.046 C 
BRANCH  10  11
HETATM   11  C           1     -23.890 -11.085  -0.201  0.00  0.00    -0.020 C 
HETATM   12  C           1     -23.920 -11.445  -1.682  0.00  0.00     0.009 C 
HETATM   13  C           1     -23.222 -12.209   0.580  0.00  0.00     0.009 C 
ENDBRANCH  10  11
ENDBRANCH   5  10
ENDBRANCH   3   5
BRANCH   4  14
HETATM   14  C           1     -21.185  -7.839  -3.144  0.00  0.00     0.181 C 
HETATM   15  C           1     -21.575  -8.599  -4.405  0.00  0.00     0.043 C 
BRANCH  14  16
HETATM   16  C           1     -21.708  -6.426  -3.226  0.00  0.00     0.196 C 
HETATM   17  O           1     -21.515  -5.747  -4.257  0.00  0.00    -0.646 OA
HETATM   18  O           1     -22.334  -5.934  -2.261  0.00  0.00    -0.646 OA
ENDBRANCH  14  16
ENDBRANCH   4  14
TORSDOF 6
ENDMDL
