MODEL 1
REMARK VINA RESULT:      -7.5      0.000      0.000
REMARK  10 active torsions:
REMARK  status: ('A' for Active; 'I' for Inactive)
REMARK    1  A    between atoms: C_2  and  C_16 
REMARK    2  A    between atoms: C_2  and  C_9 
REMARK    3  A    between atoms: C_6  and  C_7 
REMARK    4  A    between atoms: C_7  and  C_8 
REMARK    5  A    between atoms: C_8  and  C_10 
REMARK    6  A    between atoms: C_8  and  N_23 
REMARK    7  A    between atoms: C_9  and  C_20 
REMARK       I    between atoms: C_10  and  N_15 
REMARK    8  A    between atoms: N_15  and  C_20 
REMARK    9  A    between atoms: C_16  and  N_17 
REMARK   10  A    between atoms: C_20  and  C_28 
ROOT
HETATM    1  C           1     -21.195  -5.807  -6.862  0.00  0.00     0.278 C 
ENDROOT
BRANCH   1   2
HETATM    2  C           1     -21.027  -5.552  -5.369  0.00  0.00     0.083 C 
BRANCH   2   3
HETATM    3  C           1     -21.086  -6.853  -4.631  0.00  0.00    -0.028 A 
HETATM    4  C           1     -20.745  -8.088  -5.134  0.00  0.00     0.096 A 
HETATM    5  N           1     -20.941  -9.013  -4.143  0.00  0.00    -0.365 N 
HETATM    6  C           1     -21.403  -8.397  -3.001  0.00  0.00     0.042 A 
HETATM    7  H           1     -20.763 -10.043  -4.239  0.00  0.00     0.165 HD
HETATM    8  C           1     -21.737  -8.937  -1.753  0.00  0.00     0.030 A 
HETATM    9  C           1     -21.503  -7.034  -3.283  0.00  0.00    -0.002 A 
HETATM   10  C           1     -22.186  -8.054  -0.766  0.00  0.00     0.002 A 
HETATM   11  C           1     -22.296  -6.688  -1.019  0.00  0.00     0.001 A 
HETATM   12  C           1     -21.958  -6.164  -2.273  0.00  0.00     0.014 A 
ENDBRANCH   2   3
ENDBRANCH   1   2
BRANCH   1  13
HETATM   13  C           1     -21.827  -4.600  -7.510  0.00  0.00     0.249 C 
HETATM   14  N           1     -22.646  -4.756  -8.596  0.00  0.00    -0.345 N 
HETATM   15  H           1     -22.826  -5.682  -8.964  0.00  0.00     0.163 HD
HETATM   16  O           1     -21.611  -3.496  -7.070  0.00  0.00    -0.271 OA
BRANCH  14  17
HETATM   17  C           1     -23.254  -3.597  -9.219  0.00  0.00     0.185 C 
BRANCH  17  18
HETATM   18  C           1     -22.416  -3.165 -10.415  0.00  0.00     0.038 C 
BRANCH  18  19
HETATM   19  C           1     -22.090  -4.381 -11.273  0.00  0.00     0.030 C 
BRANCH  19  20
HETATM   20  C           1     -20.626  -4.329 -11.692  0.00  0.00     0.230 C 
BRANCH  20  21
HETATM   21  N           1     -19.762  -4.768 -10.548  0.00  0.00    -0.079 N 
HETATM   22  H           1     -19.901  -4.120  -9.738  0.00  0.00     0.274 HD
HETATM   23  H           1     -18.759  -4.748 -10.839  0.00  0.00     0.274 HD
HETATM   24  H           1     -20.024  -5.739 -10.266  0.00  0.00     0.274 HD
ENDBRANCH  20  21
ENDBRANCH  19  20
ENDBRANCH  18  19
ENDBRANCH  17  18
BRANCH  17  25
HETATM   25  C           1     -24.646  -3.947  -9.682  0.00  0.00     0.196 C 
HETATM   26  O           1     -25.414  -3.049 -10.091  0.00  0.00    -0.646 OA
HETATM   27  O           1     -25.034  -5.135  -9.655  0.00  0.00    -0.646 OA
ENDBRANCH  17  25
ENDBRANCH  14  17
ENDBRANCH   1  13
BRANCH   1  28
HETATM   28  N           1     -19.851  -6.060  -7.480  0.00  0.00    -0.066 N 
HETATM   29  H           1     -19.948  -6.092  -8.519  0.00  0.00     0.275 HD
HETATM   30  H           1     -19.476  -6.971  -7.136  0.00  0.00     0.275 HD
HETATM   31  H           1     -19.196  -5.290  -7.214  0.00  0.00     0.275 HD
ENDBRANCH   1  28
TORSDOF 10
ENDMDL
MODEL 2
REMARK VINA RESULT:      -7.4      3.449      8.155
REMARK  10 active torsions:
REMARK  status: ('A' for Active; 'I' for Inactive)
REMARK    1  A    between atoms: C_2  and  C_16 
REMARK    2  A    between atoms: C_2  and  C_9 
REMARK    3  A    between atoms: C_6  and  C_7 
REMARK    4  A    between atoms: C_7  and  C_8 
REMARK    5  A    between atoms: C_8  and  C_10 
REMARK    6  A    between atoms: C_8  and  N_23 
REMARK    7  A    between atoms: C_9  and  C_20 
REMARK       I    between atoms: C_10  and  N_15 
REMARK    8  A    between atoms: N_15  and  C_20 
REMARK    9  A    between atoms: C_16  and  N_17 
REMARK   10  A    between atoms: C_20  and  C_28 
ROOT
HETATM    1  C           1     -21.293  -6.287  -5.439  0.00  0.00     0.278 C 
ENDROOT
BRANCH   1   2
HETATM    2  C           1     -20.816  -5.019  -6.135  0.00  0.00     0.083 C 
BRANCH   2   3
HETATM    3  C           1     -21.780  -4.652  -7.220  0.00  0.00    -0.028 A 
HETATM    4  C           1     -23.130  -4.434  -7.068  0.00  0.00     0.096 A 
HETATM    5  N           1     -23.646  -4.123  -8.298  0.00  0.00    -0.365 N 
HETATM    6  C           1     -22.650  -4.135  -9.249  0.00  0.00     0.042 A 
HETATM    7  H           1     -24.654  -3.906  -8.489  0.00  0.00     0.165 HD
HETATM    8  C           1     -22.709  -3.882 -10.625  0.00  0.00     0.030 A 
HETATM    9  C           1     -21.463  -4.466  -8.595  0.00  0.00    -0.002 A 
HETATM   10  C           1     -21.517  -3.970 -11.350  0.00  0.00     0.002 A 
HETATM   11  C           1     -20.316  -4.298 -10.723  0.00  0.00     0.001 A 
HETATM   12  C           1     -20.275  -4.549  -9.346  0.00  0.00     0.014 A 
ENDBRANCH   2   3
ENDBRANCH   1   2
BRANCH   1  13
HETATM   13  C           1     -20.192  -7.318  -5.463  0.00  0.00     0.249 C 
HETATM   14  N           1     -20.035  -8.177  -4.408  0.00  0.00    -0.345 N 
HETATM   15  H           1     -20.657  -8.118  -3.612  0.00  0.00     0.163 HD
HETATM   16  O           1     -19.450  -7.388  -6.414  0.00  0.00    -0.271 OA
BRANCH  14  17
HETATM   17  C           1     -18.977  -9.168  -4.430  0.00  0.00     0.185 C 
BRANCH  17  18
HETATM   18  C           1     -18.383  -9.309  -3.034  0.00  0.00     0.038 C 
BRANCH  18  19
HETATM   19  C           1     -16.883  -9.550  -3.142  0.00  0.00     0.030 C 
BRANCH  19  20
HETATM   20  C           1     -16.492 -10.722  -2.252  0.00  0.00     0.230 C 
BRANCH  20  21
HETATM   21  N           1     -17.730 -11.409  -1.758  0.00  0.00    -0.079 N 
HETATM   22  H           1     -18.555 -11.080  -2.310  0.00  0.00     0.274 HD
HETATM   23  H           1     -17.876 -11.183  -0.747  0.00  0.00     0.274 HD
HETATM   24  H           1     -17.624 -12.442  -1.872  0.00  0.00     0.274 HD
ENDBRANCH  20  21
ENDBRANCH  19  20
ENDBRANCH  18  19
ENDBRANCH  17  18
BRANCH  17  25
HETATM   25  C           1     -19.541 -10.495  -4.872  0.00  0.00     0.196 C 
HETATM   26  O           1     -19.744 -10.716  -6.086  0.00  0.00    -0.646 OA
HETATM   27  O           1     -19.808 -11.375  -4.024  0.00  0.00    -0.646 OA
ENDBRANCH  17  25
ENDBRANCH  14  17
ENDBRANCH   1  13
BRANCH   1  28
HETATM   28  N           1     -21.652  -5.973  -4.017  0.00  0.00    -0.066 N 
HETATM   29  H           1     -22.651  -6.227  -3.846  0.00  0.00     0.275 HD
HETATM   30  H           1     -21.519  -4.952  -3.842  0.00  0.00     0.275 HD
HETATM   31  H           1     -21.037  -6.520  -3.374  0.00  0.00     0.275 HD
ENDBRANCH   1  28
TORSDOF 10
ENDMDL
MODEL 3
REMARK VINA RESULT:      -7.4      3.102      8.060
REMARK  10 active torsions:
REMARK  status: ('A' for Active; 'I' for Inactive)
REMARK    1  A    between atoms: C_2  and  C_16 
REMARK    2  A    between atoms: C_2  and  C_9 
REMARK    3  A    between atoms: C_6  and  C_7 
REMARK    4  A    between atoms: C_7  and  C_8 
REMARK    5  A    between atoms: C_8  and  C_10 
REMARK    6  A    between atoms: C_8  and  N_23 
REMARK    7  A    between atoms: C_9  and  C_20 
REMARK       I    between atoms: C_10  and  N_15 
REMARK    8  A    between atoms: N_15  and  C_20 
REMARK    9  A    between atoms: C_16  and  N_17 
REMARK   10  A    between atoms: C_20  and  C_28 
ROOT
HETATM    1  C           1     -21.494  -6.334  -5.582  0.00  0.00     0.278 C 
ENDROOT
BRANCH   1   2
HETATM    2  C           1     -20.999  -5.033  -6.202  0.00  0.00     0.083 C 
BRANCH   2   3
HETATM    3  C           1     -21.915  -4.632  -7.315  0.00  0.00    -0.028 A 
HETATM    4  C           1     -23.266  -4.389  -7.208  0.00  0.00     0.096 A 
HETATM    5  N           1     -23.730  -4.049  -8.451  0.00  0.00    -0.365 N 
HETATM    6  C           1     -22.700  -4.067  -9.366  0.00  0.00     0.042 A 
HETATM    7  H           1     -24.727  -3.809  -8.675  0.00  0.00     0.165 HD
HETATM    8  C           1     -22.705  -3.792 -10.739  0.00  0.00     0.030 A 
HETATM    9  C           1     -21.545  -4.431  -8.675  0.00  0.00    -0.002 A 
HETATM   10  C           1     -21.489  -3.893 -11.422  0.00  0.00     0.002 A 
HETATM   11  C           1     -20.319  -4.255 -10.757  0.00  0.00     0.001 A 
HETATM   12  C           1     -20.332  -4.527  -9.384  0.00  0.00     0.014 A 
ENDBRANCH   2   3
ENDBRANCH   1   2
BRANCH   1  13
HETATM   13  C           1     -20.365  -7.335  -5.543  0.00  0.00     0.249 C 
HETATM   14  N           1     -20.318  -8.275  -4.550  0.00  0.00    -0.345 N 
HETATM   15  H           1     -21.040  -8.298  -3.841  0.00  0.00     0.163 HD
HETATM   16  O           1     -19.504  -7.306  -6.390  0.00  0.00    -0.271 OA
BRANCH  14  17
HETATM   17  C           1     -19.234  -9.237  -4.512  0.00  0.00     0.185 C 
BRANCH  17  18
HETATM   18  C           1     -18.797  -9.455  -3.069  0.00  0.00     0.038 C 
BRANCH  18  19
HETATM   19  C           1     -19.770  -8.751  -2.132  0.00  0.00     0.030 C 
BRANCH  19  20
HETATM   20  C           1     -20.459  -9.783  -1.248  0.00  0.00     0.230 C 
BRANCH  20  21
HETATM   21  N           1     -21.661 -10.328  -1.959  0.00  0.00    -0.079 N 
HETATM   22  H           1     -22.230  -9.537  -2.338  0.00  0.00     0.274 HD
HETATM   23  H           1     -22.242 -10.883  -1.289  0.00  0.00     0.274 HD
HETATM   24  H           1     -21.353 -10.943  -2.745  0.00  0.00     0.274 HD
ENDBRANCH  20  21
ENDBRANCH  19  20
ENDBRANCH  18  19
ENDBRANCH  17  18
BRANCH  17  25
HETATM   25  C           1     -19.703 -10.546  -5.097  0.00  0.00     0.196 C 
HETATM   26  O           1     -20.112 -11.457  -4.344  0.00  0.00    -0.646 OA
HETATM   27  O           1     -19.681 -10.722  -6.335  0.00  0.00    -0.646 OA
ENDBRANCH  17  25
ENDBRANCH  14  17
ENDBRANCH   1  13
BRANCH   1  28
HETATM   28  N           1     -21.975  -6.070  -4.185  0.00  0.00    -0.066 N 
HETATM   29  H           1     -23.019  -6.087  -4.168  0.00  0.00     0.275 HD
HETATM   30  H           1     -21.637  -5.133  -3.872  0.00  0.00     0.275 HD
HETATM   31  H           1     -21.603  -6.807  -3.544  0.00  0.00     0.275 HD
ENDBRANCH   1  28
TORSDOF 10
ENDMDL
MODEL 4
REMARK VINA RESULT:      -7.2      3.451      7.868
REMARK  10 active torsions:
REMARK  status: ('A' for Active; 'I' for Inactive)
REMARK    1  A    between atoms: C_2  and  C_16 
REMARK    2  A    between atoms: C_2  and  C_9 
REMARK    3  A    between atoms: C_6  and  C_7 
REMARK    4  A    between atoms: C_7  and  C_8 
REMARK    5  A    between atoms: C_8  and  C_10 
REMARK    6  A    between atoms: C_8  and  N_23 
REMARK    7  A    between atoms: C_9  and  C_20 
REMARK       I    between atoms: C_10  and  N_15 
REMARK    8  A    between atoms: N_15  and  C_20 
REMARK    9  A    between atoms: C_16  and  N_17 
REMARK   10  A    between atoms: C_20  and  C_28 
ROOT
HETATM    1  C           1     -21.666  -6.611  -5.190  0.00  0.00     0.278 C 
ENDROOT
BRANCH   1   2
HETATM    2  C           1     -20.854  -5.710  -6.113  0.00  0.00     0.083 C 
BRANCH   2   3
HETATM    3  C           1     -21.768  -5.050  -7.097  0.00  0.00    -0.028 A 
HETATM    4  C           1     -23.078  -4.692  -6.875  0.00  0.00     0.096 A 
HETATM    5  N           1     -23.556  -4.118  -8.023  0.00  0.00    -0.365 N 
HETATM    6  C           1     -22.575  -4.096  -8.989  0.00  0.00     0.042 A 
HETATM    7  H           1     -24.529  -3.747  -8.149  0.00  0.00     0.165 HD
HETATM    8  C           1     -22.608  -3.611 -10.302  0.00  0.00     0.030 A 
HETATM    9  C           1     -21.437  -4.678  -8.430  0.00  0.00    -0.002 A 
HETATM   10  C           1     -21.441  -3.726 -11.063  0.00  0.00     0.002 A 
HETATM   11  C           1     -20.289  -4.303 -10.531  0.00  0.00     0.001 A 
HETATM   12  C           1     -20.273  -4.783  -9.216  0.00  0.00     0.014 A 
ENDBRANCH   2   3
ENDBRANCH   1   2
BRANCH   1  13
HETATM   13  C           1     -20.994  -7.957  -5.081  0.00  0.00     0.249 C 
HETATM   14  N           1     -20.182  -8.232  -4.014  0.00  0.00    -0.345 N 
HETATM   15  H           1     -20.033  -7.531  -3.298  0.00  0.00     0.163 HD
HETATM   16  O           1     -21.173  -8.792  -5.935  0.00  0.00    -0.271 OA
BRANCH  14  17
HETATM   17  C           1     -19.536  -9.525  -3.908  0.00  0.00     0.185 C 
BRANCH  17  18
HETATM   18  C           1     -18.060  -9.387  -4.262  0.00  0.00     0.038 C 
BRANCH  18  19
HETATM   19  C           1     -17.843  -9.814  -5.708  0.00  0.00     0.030 C 
BRANCH  19  20
HETATM   20  C           1     -18.318 -11.249  -5.890  0.00  0.00     0.230 C 
BRANCH  20  21
HETATM   21  N           1     -19.399 -11.290  -6.929  0.00  0.00    -0.079 N 
HETATM   22  H           1     -20.310 -11.528  -6.474  0.00  0.00     0.274 HD
HETATM   23  H           1     -19.168 -12.016  -7.645  0.00  0.00     0.274 HD
HETATM   24  H           1     -19.474 -10.356  -7.391  0.00  0.00     0.274 HD
ENDBRANCH  20  21
ENDBRANCH  19  20
ENDBRANCH  18  19
ENDBRANCH  17  18
BRANCH  17  25
HETATM   25  C           1     -19.667 -10.039  -2.495  0.00  0.00     0.196 C 
HETATM   26  O           1     -20.528  -9.552  -1.730  0.00  0.00    -0.646 OA
HETATM   27  O           1     -18.914 -10.950  -2.089  0.00  0.00    -0.646 OA
ENDBRANCH  17  25
ENDBRANCH  14  17
ENDBRANCH   1  13
BRANCH   1  28
HETATM   28  N           1     -21.753  -5.983  -3.830  0.00  0.00    -0.066 N 
HETATM   29  H           1     -22.694  -6.173  -3.420  0.00  0.00     0.275 HD
HETATM   30  H           1     -21.611  -4.952  -3.912  0.00  0.00     0.275 HD
HETATM   31  H           1     -21.014  -6.389  -3.212  0.00  0.00     0.275 HD
ENDBRANCH   1  28
TORSDOF 10
ENDMDL
MODEL 5
REMARK VINA RESULT:      -7.0      2.562      3.742
REMARK  10 active torsions:
REMARK  status: ('A' for Active; 'I' for Inactive)
REMARK    1  A    between atoms: C_2  and  C_16 
REMARK    2  A    between atoms: C_2  and  C_9 
REMARK    3  A    between atoms: C_6  and  C_7 
REMARK    4  A    between atoms: C_7  and  C_8 
REMARK    5  A    between atoms: C_8  and  C_10 
REMARK    6  A    between atoms: C_8  and  N_23 
REMARK    7  A    between atoms: C_9  and  C_20 
REMARK       I    between atoms: C_10  and  N_15 
REMARK    8  A    between atoms: N_15  and  C_20 
REMARK    9  A    between atoms: C_16  and  N_17 
REMARK   10  A    between atoms: C_20  and  C_28 
ROOT
HETATM    1  C           1     -21.120  -8.308  -5.186  0.00  0.00     0.278 C 
ENDROOT
BRANCH   1   2
HETATM    2  C           1     -20.296  -8.170  -3.912  0.00  0.00     0.083 C 
BRANCH   2   3
HETATM    3  C           1     -21.113  -7.483  -2.862  0.00  0.00    -0.028 A 
HETATM    4  C           1     -21.691  -6.238  -2.968  0.00  0.00     0.096 A 
HETATM    5  N           1     -22.347  -5.981  -1.794  0.00  0.00    -0.365 N 
HETATM    6  C           1     -22.206  -7.041  -0.926  0.00  0.00     0.042 A 
HETATM    7  H           1     -22.883  -5.102  -1.586  0.00  0.00     0.165 HD
HETATM    8  C           1     -22.700  -7.219   0.372  0.00  0.00     0.030 A 
HETATM    9  C           1     -21.432  -8.002  -1.576  0.00  0.00    -0.002 A 
HETATM   10  C           1     -22.391  -8.418   1.022  0.00  0.00     0.002 A 
HETATM   11  C           1     -21.619  -9.396   0.397  0.00  0.00     0.001 A 
HETATM   12  C           1     -21.132  -9.201  -0.901  0.00  0.00     0.014 A 
ENDBRANCH   2   3
ENDBRANCH   1   2
BRANCH   1  13
HETATM   13  C           1     -20.678  -7.268  -6.186  0.00  0.00     0.249 C 
HETATM   14  N           1     -21.570  -6.339  -6.648  0.00  0.00    -0.345 N 
HETATM   15  H           1     -22.527  -6.350  -6.318  0.00  0.00     0.163 HD
HETATM   16  O           1     -19.535  -7.256  -6.579  0.00  0.00    -0.271 OA
BRANCH  14  17
HETATM   17  C           1     -21.145  -5.339  -7.609  0.00  0.00     0.185 C 
BRANCH  17  18
HETATM   18  C           1     -22.339  -4.482  -8.011  0.00  0.00     0.038 C 
BRANCH  18  19
HETATM   19  C           1     -22.368  -4.332  -9.527  0.00  0.00     0.030 C 
BRANCH  19  20
HETATM   20  C           1     -23.813  -4.252 -10.001  0.00  0.00     0.230 C 
BRANCH  20  21
HETATM   21  N           1     -24.601  -3.390  -9.061  0.00  0.00    -0.079 N 
HETATM   22  H           1     -24.020  -2.570  -8.771  0.00  0.00     0.274 HD
HETATM   23  H           1     -24.865  -3.945  -8.215  0.00  0.00     0.274 HD
HETATM   24  H           1     -25.466  -3.051  -9.540  0.00  0.00     0.274 HD
ENDBRANCH  20  21
ENDBRANCH  19  20
ENDBRANCH  18  19
ENDBRANCH  17  18
BRANCH  17  25
HETATM   25  C           1     -20.085  -4.464  -6.988  0.00  0.00     0.196 C 
HETATM   26  O           1     -20.185  -4.114  -5.792  0.00  0.00    -0.646 OA
HETATM   27  O           1     -19.108  -4.086  -7.670  0.00  0.00    -0.646 OA
ENDBRANCH  17  25
ENDBRANCH  14  17
ENDBRANCH   1  13
BRANCH   1  28
HETATM   28  N           1     -20.918  -9.677  -5.766  0.00  0.00    -0.066 N 
HETATM   29  H           1     -21.847 -10.116  -5.953  0.00  0.00     0.275 HD
HETATM   30  H           1     -20.384 -10.266  -5.089  0.00  0.00     0.275 HD
HETATM   31  H           1     -20.382  -9.600  -6.660  0.00  0.00     0.275 HD
ENDBRANCH   1  28
TORSDOF 10
ENDMDL
MODEL 6
REMARK VINA RESULT:      -7.0     12.886     15.012
REMARK  10 active torsions:
REMARK  status: ('A' for Active; 'I' for Inactive)
REMARK    1  A    between atoms: C_2  and  C_16 
REMARK    2  A    between atoms: C_2  and  C_9 
REMARK    3  A    between atoms: C_6  and  C_7 
REMARK    4  A    between atoms: C_7  and  C_8 
REMARK    5  A    between atoms: C_8  and  C_10 
REMARK    6  A    between atoms: C_8  and  N_23 
REMARK    7  A    between atoms: C_9  and  C_20 
REMARK       I    between atoms: C_10  and  N_15 
REMARK    8  A    between atoms: N_15  and  C_20 
REMARK    9  A    between atoms: C_16  and  N_17 
REMARK   10  A    between atoms: C_20  and  C_28 
ROOT
HETATM    1  C           1     -33.366  -4.514 -16.449  0.00  0.00     0.278 C 
ENDROOT
BRANCH   1   2
HETATM    2  C           1     -31.865  -4.476 -16.191  0.00  0.00     0.083 C 
BRANCH   2   3
HETATM    3  C           1     -31.191  -5.532 -17.010  0.00  0.00    -0.028 A 
HETATM    4  C           1     -31.795  -6.637 -17.565  0.00  0.00     0.096 A 
HETATM    5  N           1     -30.833  -7.348 -18.233  0.00  0.00    -0.365 N 
HETATM    6  C           1     -29.613  -6.720 -18.122  0.00  0.00     0.042 A 
HETATM    7  H           1     -31.003  -8.242 -18.756  0.00  0.00     0.165 HD
HETATM    8  C           1     -28.361  -7.078 -18.637  0.00  0.00     0.030 A 
HETATM    9  C           1     -29.812  -5.572 -17.355  0.00  0.00    -0.002 A 
HETATM   10  C           1     -27.282  -6.234 -18.356  0.00  0.00     0.002 A 
HETATM   11  C           1     -27.451  -5.080 -17.593  0.00  0.00     0.001 A 
HETATM   12  C           1     -28.710  -4.737 -17.085  0.00  0.00     0.014 A 
ENDBRANCH   2   3
ENDBRANCH   1   2
BRANCH   1  13
HETATM   13  C           1     -34.102  -4.583 -15.133  0.00  0.00     0.249 C 
HETATM   14  N           1     -33.547  -4.033 -14.009  0.00  0.00    -0.345 N 
HETATM   15  H           1     -32.642  -3.581 -14.061  0.00  0.00     0.163 HD
HETATM   16  O           1     -35.180  -5.122 -15.072  0.00  0.00    -0.271 OA
BRANCH  14  17
HETATM   17  C           1     -34.252  -4.099 -12.744  0.00  0.00     0.185 C 
BRANCH  17  18
HETATM   18  C           1     -33.352  -4.734 -11.692  0.00  0.00     0.038 C 
BRANCH  18  19
HETATM   19  C           1     -34.206  -5.275 -10.552  0.00  0.00     0.030 C 
BRANCH  19  20
HETATM   20  C           1     -34.536  -6.738 -10.815  0.00  0.00     0.230 C 
BRANCH  20  21
HETATM   21  N           1     -34.948  -7.397  -9.533  0.00  0.00    -0.079 N 
HETATM   22  H           1     -35.606  -8.182  -9.741  0.00  0.00     0.274 HD
HETATM   23  H           1     -35.425  -6.698  -8.918  0.00  0.00     0.274 HD
HETATM   24  H           1     -34.103  -7.770  -9.045  0.00  0.00     0.274 HD
ENDBRANCH  20  21
ENDBRANCH  19  20
ENDBRANCH  18  19
ENDBRANCH  17  18
BRANCH  17  25
HETATM   25  C           1     -34.630  -2.706 -12.306  0.00  0.00     0.196 C 
HETATM   26  O           1     -35.693  -2.189 -12.715  0.00  0.00    -0.646 OA
HETATM   27  O           1     -33.881  -2.067 -11.536  0.00  0.00    -0.646 OA
ENDBRANCH  17  25
ENDBRANCH  14  17
ENDBRANCH   1  13
BRANCH   1  28
HETATM   28  N           1     -33.778  -3.273 -17.186  0.00  0.00    -0.066 N 
HETATM   29  H           1     -33.454  -3.335 -18.177  0.00  0.00     0.275 HD
HETATM   30  H           1     -33.347  -2.438 -16.731  0.00  0.00     0.275 HD
HETATM   31  H           1     -34.819  -3.185 -17.164  0.00  0.00     0.275 HD
ENDBRANCH   1  28
TORSDOF 10
ENDMDL
MODEL 7
REMARK VINA RESULT:      -6.9      1.638      2.297
REMARK  10 active torsions:
REMARK  status: ('A' for Active; 'I' for Inactive)
REMARK    1  A    between atoms: C_2  and  C_16 
REMARK    2  A    between atoms: C_2  and  C_9 
REMARK    3  A    between atoms: C_6  and  C_7 
REMARK    4  A    between atoms: C_7  and  C_8 
REMARK    5  A    between atoms: C_8  and  C_10 
REMARK    6  A    between atoms: C_8  and  N_23 
REMARK    7  A    between atoms: C_9  and  C_20 
REMARK       I    between atoms: C_10  and  N_15 
REMARK    8  A    between atoms: N_15  and  C_20 
REMARK    9  A    between atoms: C_16  and  N_17 
REMARK   10  A    between atoms: C_20  and  C_28 
ROOT
HETATM    1  C           1     -21.774  -6.229  -5.392  0.00  0.00     0.278 C 
ENDROOT
BRANCH   1   2
HETATM    2  C           1     -20.840  -5.860  -4.246  0.00  0.00     0.083 C 
BRANCH   2   3
HETATM    3  C           1     -21.316  -6.512  -2.986  0.00  0.00    -0.028 A 
HETATM    4  C           1     -22.261  -6.012  -2.119  0.00  0.00     0.096 A 
HETATM    5  N           1     -22.408  -6.910  -1.095  0.00  0.00    -0.365 N 
HETATM    6  C           1     -21.572  -7.988  -1.284  0.00  0.00     0.042 A 
HETATM    7  H           1     -23.063  -6.794  -0.284  0.00  0.00     0.165 HD
HETATM    8  C           1     -21.383  -9.135  -0.502  0.00  0.00     0.030 A 
HETATM    9  C           1     -20.872  -7.762  -2.469  0.00  0.00    -0.002 A 
HETATM   10  C           1     -20.451 -10.075  -0.949  0.00  0.00     0.002 A 
HETATM   11  C           1     -19.737  -9.876  -2.130  0.00  0.00     0.001 A 
HETATM   12  C           1     -19.937  -8.723  -2.899  0.00  0.00     0.014 A 
ENDBRANCH   2   3
ENDBRANCH   1   2
BRANCH   1  13
HETATM   13  C           1     -21.680  -5.182  -6.475  0.00  0.00     0.249 C 
HETATM   14  N           1     -22.490  -5.261  -7.575  0.00  0.00    -0.345 N 
HETATM   15  H           1     -23.152  -6.022  -7.662  0.00  0.00     0.163 HD
HETATM   16  O           1     -20.890  -4.274  -6.370  0.00  0.00    -0.271 OA
BRANCH  14  17
HETATM   17  C           1     -22.401  -4.255  -8.615  0.00  0.00     0.185 C 
BRANCH  17  18
HETATM   18  C           1     -21.367  -4.683  -9.649  0.00  0.00     0.038 C 
BRANCH  18  19
HETATM   19  C           1     -20.711  -3.448 -10.254  0.00  0.00     0.030 C 
BRANCH  19  20
HETATM   20  C           1     -21.135  -3.311 -11.710  0.00  0.00     0.230 C 
BRANCH  20  21
HETATM   21  N           1     -21.915  -4.524 -12.120  0.00  0.00    -0.079 N 
HETATM   22  H           1     -22.639  -4.734 -11.395  0.00  0.00     0.274 HD
HETATM   23  H           1     -21.270  -5.341 -12.213  0.00  0.00     0.274 HD
HETATM   24  H           1     -22.384  -4.344 -13.037  0.00  0.00     0.274 HD
ENDBRANCH  20  21
ENDBRANCH  19  20
ENDBRANCH  18  19
ENDBRANCH  17  18
BRANCH  17  25
HETATM   25  C           1     -23.744  -4.102  -9.284  0.00  0.00     0.196 C 
HETATM   26  O           1     -24.155  -4.982 -10.072  0.00  0.00    -0.646 OA
HETATM   27  O           1     -24.447  -3.094  -9.051  0.00  0.00    -0.646 OA
ENDBRANCH  17  25
ENDBRANCH  14  17
ENDBRANCH   1  13
BRANCH   1  28
HETATM   28  N           1     -21.374  -7.563  -5.952  0.00  0.00    -0.066 N 
HETATM   29  H           1     -20.337  -7.596  -6.064  0.00  0.00     0.275 HD
HETATM   30  H           1     -21.829  -7.701  -6.881  0.00  0.00     0.275 HD
HETATM   31  H           1     -21.679  -8.320  -5.298  0.00  0.00     0.275 HD
ENDBRANCH   1  28
TORSDOF 10
ENDMDL
MODEL 8
REMARK VINA RESULT:      -6.9      2.482      7.773
REMARK  10 active torsions:
REMARK  status: ('A' for Active; 'I' for Inactive)
REMARK    1  A    between atoms: C_2  and  C_16 
REMARK    2  A    between atoms: C_2  and  C_9 
REMARK    3  A    between atoms: C_6  and  C_7 
REMARK    4  A    between atoms: C_7  and  C_8 
REMARK    5  A    between atoms: C_8  and  C_10 
REMARK    6  A    between atoms: C_8  and  N_23 
REMARK    7  A    between atoms: C_9  and  C_20 
REMARK       I    between atoms: C_10  and  N_15 
REMARK    8  A    between atoms: N_15  and  C_20 
REMARK    9  A    between atoms: C_16  and  N_17 
REMARK   10  A    between atoms: C_20  and  C_28 
ROOT
HETATM    1  C           1     -20.347  -6.000  -5.893  0.00  0.00     0.278 C 
ENDROOT
BRANCH   1   2
HETATM    2  C           1     -20.777  -4.542  -5.997  0.00  0.00     0.083 C 
BRANCH   2   3
HETATM    3  C           1     -21.765  -4.392  -7.111  0.00  0.00    -0.028 A 
HETATM    4  C           1     -23.135  -4.449  -6.995  0.00  0.00     0.096 A 
HETATM    5  N           1     -23.669  -4.265  -8.243  0.00  0.00    -0.365 N 
HETATM    6  C           1     -22.666  -4.088  -9.169  0.00  0.00     0.042 A 
HETATM    7  H           1     -24.695  -4.258  -8.462  0.00  0.00     0.165 HD
HETATM    8  C           1     -22.737  -3.869 -10.551  0.00  0.00     0.030 A 
HETATM    9  C           1     -21.455  -4.164  -8.481  0.00  0.00    -0.002 A 
HETATM   10  C           1     -21.533  -3.724 -11.245  0.00  0.00     0.002 A 
HETATM   11  C           1     -20.308  -3.796 -10.584  0.00  0.00     0.001 A 
HETATM   12  C           1     -20.254  -4.016  -9.202  0.00  0.00     0.014 A 
ENDBRANCH   2   3
ENDBRANCH   1   2
BRANCH   1  13
HETATM   13  C           1     -21.205  -6.707  -4.873  0.00  0.00     0.249 C 
HETATM   14  N           1     -20.736  -6.904  -3.602  0.00  0.00    -0.345 N 
HETATM   15  H           1     -19.813  -6.576  -3.347  0.00  0.00     0.163 HD
HETATM   16  O           1     -22.307  -7.097  -5.177  0.00  0.00    -0.271 OA
BRANCH  14  17
HETATM   17  C           1     -21.561  -7.582  -2.621  0.00  0.00     0.185 C 
BRANCH  17  18
HETATM   18  C           1     -20.709  -8.577  -1.842  0.00  0.00     0.038 C 
BRANCH  18  19
HETATM   19  C           1     -21.393  -9.939  -1.840  0.00  0.00     0.030 C 
BRANCH  19  20
HETATM   20  C           1     -21.958 -10.225  -3.225  0.00  0.00     0.230 C 
BRANCH  20  21
HETATM   21  N           1     -22.697 -11.530  -3.204  0.00  0.00    -0.079 N 
HETATM   22  H           1     -22.044 -12.295  -2.919  0.00  0.00     0.274 HD
HETATM   23  H           1     -23.076 -11.733  -4.157  0.00  0.00     0.274 HD
HETATM   24  H           1     -23.485 -11.473  -2.520  0.00  0.00     0.274 HD
ENDBRANCH  20  21
ENDBRANCH  19  20
ENDBRANCH  18  19
ENDBRANCH  17  18
BRANCH  17  25
HETATM   25  C           1     -22.145  -6.569  -1.668  0.00  0.00     0.196 C 
HETATM   26  O           1     -22.003  -5.347  -1.890  0.00  0.00    -0.646 OA
HETATM   27  O           1     -22.771  -6.951  -0.656  0.00  0.00    -0.646 OA
ENDBRANCH  17  25
ENDBRANCH  14  17
ENDBRANCH   1  13
BRANCH   1  28
HETATM   28  N           1     -20.508  -6.665  -7.228  0.00  0.00    -0.066 N 
HETATM   29  H           1     -21.118  -6.076  -7.838  0.00  0.00     0.275 HD
HETATM   30  H           1     -20.948  -7.604  -7.099  0.00  0.00     0.275 HD
HETATM   31  H           1     -19.571  -6.778  -7.676  0.00  0.00     0.275 HD
ENDBRANCH   1  28
TORSDOF 10
ENDMDL
MODEL 9
REMARK VINA RESULT:      -6.9      2.415      3.430
REMARK  10 active torsions:
REMARK  status: ('A' for Active; 'I' for Inactive)
REMARK    1  A    between atoms: C_2  and  C_16 
REMARK    2  A    between atoms: C_2  and  C_9 
REMARK    3  A    between atoms: C_6  and  C_7 
REMARK    4  A    between atoms: C_7  and  C_8 
REMARK    5  A    between atoms: C_8  and  C_10 
REMARK    6  A    between atoms: C_8  and  N_23 
REMARK    7  A    between atoms: C_9  and  C_20 
REMARK       I    between atoms: C_10  and  N_15 
REMARK    8  A    between atoms: N_15  and  C_20 
REMARK    9  A    between atoms: C_16  and  N_17 
REMARK   10  A    between atoms: C_20  and  C_28 
ROOT
HETATM    1  C           1     -20.984  -6.862  -4.492  0.00  0.00     0.278 C 
ENDROOT
BRANCH   1   2
HETATM    2  C           1     -21.942  -7.951  -4.026  0.00  0.00     0.083 C 
BRANCH   2   3
HETATM    3  C           1     -21.322  -8.712  -2.896  0.00  0.00    -0.028 A 
HETATM    4  C           1     -20.418  -9.744  -3.012  0.00  0.00     0.096 A 
HETATM    5  N           1     -20.100 -10.165  -1.748  0.00  0.00    -0.365 N 
HETATM    6  C           1     -20.782  -9.421  -0.812  0.00  0.00     0.042 A 
HETATM    7  H           1     -19.430 -10.942  -1.525  0.00  0.00     0.165 HD
HETATM    8  C           1     -20.770  -9.495   0.587  0.00  0.00     0.030 A 
HETATM    9  C           1     -21.560  -8.497  -1.510  0.00  0.00    -0.002 A 
HETATM   10  C           1     -21.579  -8.596   1.288  0.00  0.00     0.002 A 
HETATM   11  C           1     -22.367  -7.662   0.617  0.00  0.00     0.001 A 
HETATM   12  C           1     -22.368  -7.602  -0.782  0.00  0.00     0.014 A 
ENDBRANCH   2   3
ENDBRANCH   1   2
BRANCH   1  13
HETATM   13  C           1     -21.199  -6.598  -5.961  0.00  0.00     0.249 C 
HETATM   14  N           1     -21.343  -5.313  -6.412  0.00  0.00    -0.345 N 
HETATM   15  H           1     -21.306  -4.541  -5.758  0.00  0.00     0.163 HD
HETATM   16  O           1     -21.242  -7.519  -6.741  0.00  0.00    -0.271 OA
BRANCH  14  17
HETATM   17  C           1     -21.549  -5.058  -7.824  0.00  0.00     0.185 C 
BRANCH  17  18
HETATM   18  C           1     -22.628  -3.996  -7.997  0.00  0.00     0.038 C 
BRANCH  18  19
HETATM   19  C           1     -22.951  -3.836  -9.477  0.00  0.00     0.030 C 
BRANCH  19  20
HETATM   20  C           1     -24.281  -4.514  -9.782  0.00  0.00     0.230 C 
BRANCH  20  21
HETATM   21  N           1     -25.389  -3.508  -9.682  0.00  0.00    -0.079 N 
HETATM   22  H           1     -24.989  -2.572  -9.443  0.00  0.00     0.274 HD
HETATM   23  H           1     -26.059  -3.800  -8.935  0.00  0.00     0.274 HD
HETATM   24  H           1     -25.890  -3.450 -10.596  0.00  0.00     0.274 HD
ENDBRANCH  20  21
ENDBRANCH  19  20
ENDBRANCH  18  19
ENDBRANCH  17  18
BRANCH  17  25
HETATM   25  C           1     -20.261  -4.570  -8.440  0.00  0.00     0.196 C 
HETATM   26  O           1     -19.556  -3.733  -7.835  0.00  0.00    -0.646 OA
HETATM   27  O           1     -19.899  -5.000  -9.557  0.00  0.00    -0.646 OA
ENDBRANCH  17  25
ENDBRANCH  14  17
ENDBRANCH   1  13
BRANCH   1  28
HETATM   28  N           1     -21.242  -5.604  -3.715  0.00  0.00    -0.066 N 
HETATM   29  H           1     -22.226  -5.294  -3.874  0.00  0.00     0.275 HD
HETATM   30  H           1     -20.586  -4.857  -4.034  0.00  0.00     0.275 HD
HETATM   31  H           1     -21.093  -5.788  -2.697  0.00  0.00     0.275 HD
ENDBRANCH   1  28
TORSDOF 10
ENDMDL
