MODEL 1
REMARK VINA RESULT:      -6.2      0.000      0.000
REMARK  6 active torsions:
REMARK  status: ('A' for Active; 'I' for Inactive)
REMARK    1  A    between atoms: S_2  and  C_10 
REMARK    2  A    between atoms: C_3  and  C_14 
REMARK       I    between atoms: C_8  and  N_15 
REMARK    3  A    between atoms: C_8  and  C_12 
REMARK    4  A    between atoms: C_10  and  C_11 
REMARK    5  A    between atoms: C_11  and  C_14 
REMARK    6  A    between atoms: C_14  and  N_15 
ROOT
HETATM    1  O           1     -34.472  -3.163 -13.521  0.00  0.00    -0.271 OA
HETATM    2  C           1     -34.249  -2.540 -12.511  0.00  0.00     0.251 C 
HETATM    3  H           1     -34.701  -0.829 -11.439  0.00  0.00     0.163 HD
HETATM    4  N           1     -34.888  -1.350 -12.285  0.00  0.00    -0.345 N 
ENDROOT
BRANCH   4   5
HETATM    5  C           1     -35.832  -0.839 -13.259  0.00  0.00     0.186 C 
BRANCH   5   6
HETATM    6  C           1     -35.120   0.097 -14.205  0.00  0.00     0.196 C 
HETATM    7  O           1     -34.762   1.228 -13.812  0.00  0.00    -0.646 OA
HETATM    8  O           1     -34.887  -0.260 -15.381  0.00  0.00    -0.646 OA
ENDBRANCH   5   6
BRANCH   5   9
HETATM    9  C           1     -36.944  -0.085 -12.543  0.00  0.00     0.046 C 
BRANCH   9  10
HETATM   10  C           1     -36.569   0.103 -11.078  0.00  0.00     0.076 C 
BRANCH  10  11
HETATM   11  S           1     -38.075   0.136 -10.067  0.00  0.00    -0.173 SA
HETATM   12  C           1     -37.475   1.347  -8.856  0.00  0.00     0.089 C 
ENDBRANCH  10  11
ENDBRANCH   9  10
ENDBRANCH   5   9
ENDBRANCH   4   5
BRANCH   2  13
HETATM   13  C           1     -33.266  -3.072 -11.498  0.00  0.00     0.311 C 
HETATM   14  C           1     -32.636  -4.367 -11.981  0.00  0.00     0.047 C 
HETATM   15  C           1     -33.483  -5.475 -11.366  0.00  0.00     0.033 C 
HETATM   16  C           1     -34.547  -4.756 -10.554  0.00  0.00     0.271 C 
HETATM   17  N           1     -33.947  -3.456 -10.265  0.00  0.00     0.097 N 
HETATM   18  H           1     -33.281  -3.553  -9.499  0.00  0.00     0.317 HD
ENDBRANCH   2  13
TORSDOF 6
ENDMDL
MODEL 2
REMARK VINA RESULT:      -6.0      2.961      5.652
REMARK  6 active torsions:
REMARK  status: ('A' for Active; 'I' for Inactive)
REMARK    1  A    between atoms: S_2  and  C_10 
REMARK    2  A    between atoms: C_3  and  C_14 
REMARK       I    between atoms: C_8  and  N_15 
REMARK    3  A    between atoms: C_8  and  C_12 
REMARK    4  A    between atoms: C_10  and  C_11 
REMARK    5  A    between atoms: C_11  and  C_14 
REMARK    6  A    between atoms: C_14  and  N_15 
ROOT
HETATM    1  O           1     -36.974  -0.983 -12.998  0.00  0.00    -0.271 OA
HETATM    2  C           1     -35.932  -0.810 -13.582  0.00  0.00     0.251 C 
HETATM    3  H           1     -33.946  -1.380 -13.715  0.00  0.00     0.163 HD
HETATM    4  N           1     -34.819  -1.525 -13.226  0.00  0.00    -0.345 N 
ENDROOT
BRANCH   4   5
HETATM    5  C           1     -34.895  -2.489 -12.145  0.00  0.00     0.186 C 
BRANCH   5   6
HETATM    6  C           1     -34.423  -1.845 -10.864  0.00  0.00     0.196 C 
HETATM    7  O           1     -33.208  -1.855 -10.571  0.00  0.00    -0.646 OA
HETATM    8  O           1     -35.247  -1.302 -10.097  0.00  0.00    -0.646 OA
ENDBRANCH   5   6
BRANCH   5   9
HETATM    9  C           1     -34.007  -3.685 -12.468  0.00  0.00     0.046 C 
BRANCH   9  10
HETATM   10  C           1     -34.727  -4.971 -12.083  0.00  0.00     0.076 C 
BRANCH  10  11
HETATM   11  S           1     -34.040  -5.608 -10.529  0.00  0.00    -0.173 SA
HETATM   12  C           1     -34.822  -7.243 -10.622  0.00  0.00     0.089 C 
ENDBRANCH  10  11
ENDBRANCH   9  10
ENDBRANCH   5   9
ENDBRANCH   4   5
BRANCH   2  13
HETATM   13  C           1     -35.854   0.194 -14.706  0.00  0.00     0.311 C 
HETATM   14  C           1     -37.172   0.271 -15.456  0.00  0.00     0.047 C 
HETATM   15  C           1     -37.015  -0.682 -16.635  0.00  0.00     0.033 C 
HETATM   16  C           1     -35.611  -1.247 -16.504  0.00  0.00     0.271 C 
HETATM   17  N           1     -34.900  -0.238 -15.723  0.00  0.00     0.097 N 
HETATM   18  H           1     -34.641   0.540 -16.330  0.00  0.00     0.317 HD
ENDBRANCH   2  13
TORSDOF 6
ENDMDL
MODEL 3
REMARK VINA RESULT:      -5.7      3.005      5.317
REMARK  6 active torsions:
REMARK  status: ('A' for Active; 'I' for Inactive)
REMARK    1  A    between atoms: S_2  and  C_10 
REMARK    2  A    between atoms: C_3  and  C_14 
REMARK       I    between atoms: C_8  and  N_15 
REMARK    3  A    between atoms: C_8  and  C_12 
REMARK    4  A    between atoms: C_10  and  C_11 
REMARK    5  A    between atoms: C_11  and  C_14 
REMARK    6  A    between atoms: C_14  and  N_15 
ROOT
HETATM    1  O           1     -37.852  -0.680 -13.493  0.00  0.00    -0.271 OA
HETATM    2  C           1     -36.747  -0.193 -13.436  0.00  0.00     0.251 C 
HETATM    3  H           1     -35.084   0.101 -12.240  0.00  0.00     0.163 HD
HETATM    4  N           1     -36.008  -0.306 -12.289  0.00  0.00    -0.345 N 
ENDROOT
BRANCH   4   5
HETATM    5  C           1     -36.553  -1.008 -11.143  0.00  0.00     0.186 C 
BRANCH   5   6
HETATM    6  C           1     -36.824  -0.022 -10.032  0.00  0.00     0.196 C 
HETATM    7  O           1     -36.180  -0.092  -8.964  0.00  0.00    -0.646 OA
HETATM    8  O           1     -37.694   0.864 -10.182  0.00  0.00    -0.646 OA
ENDBRANCH   5   6
BRANCH   5   9
HETATM    9  C           1     -35.551  -2.049 -10.661  0.00  0.00     0.046 C 
BRANCH   9  10
HETATM   10  C           1     -34.226  -1.853 -11.387  0.00  0.00     0.076 C 
BRANCH  10  11
HETATM   11  S           1     -33.312  -3.421 -11.414  0.00  0.00    -0.173 SA
HETATM   12  C           1     -34.686  -4.441 -12.016  0.00  0.00     0.089 C 
ENDBRANCH  10  11
ENDBRANCH   9  10
ENDBRANCH   5   9
ENDBRANCH   4   5
BRANCH   2  13
HETATM   13  C           1     -36.182   0.538 -14.628  0.00  0.00     0.311 C 
HETATM   14  C           1     -37.096   0.399 -15.833  0.00  0.00     0.047 C 
HETATM   15  C           1     -36.544  -0.785 -16.617  0.00  0.00     0.033 C 
HETATM   16  C           1     -35.336  -1.256 -15.824  0.00  0.00     0.271 C 
HETATM   17  N           1     -34.932  -0.074 -15.068  0.00  0.00     0.097 N 
HETATM   18  H           1     -34.414   0.558 -15.678  0.00  0.00     0.317 HD
ENDBRANCH   2  13
TORSDOF 6
ENDMDL
MODEL 4
REMARK VINA RESULT:      -5.5      2.690      3.384
REMARK  6 active torsions:
REMARK  status: ('A' for Active; 'I' for Inactive)
REMARK    1  A    between atoms: S_2  and  C_10 
REMARK    2  A    between atoms: C_3  and  C_14 
REMARK       I    between atoms: C_8  and  N_15 
REMARK    3  A    between atoms: C_8  and  C_12 
REMARK    4  A    between atoms: C_10  and  C_11 
REMARK    5  A    between atoms: C_11  and  C_14 
REMARK    6  A    between atoms: C_14  and  N_15 
ROOT
HETATM    1  O           1     -34.371  -2.366 -10.331  0.00  0.00    -0.271 OA
HETATM    2  C           1     -35.030  -2.749 -11.268  0.00  0.00     0.251 C 
HETATM    3  H           1     -36.305  -2.174 -12.794  0.00  0.00     0.163 HD
HETATM    4  N           1     -35.754  -1.854 -12.009  0.00  0.00    -0.345 N 
ENDROOT
BRANCH   4   5
HETATM    5  C           1     -35.728  -0.444 -11.668  0.00  0.00     0.186 C 
BRANCH   5   6
HETATM    6  C           1     -37.025  -0.068 -10.993  0.00  0.00     0.196 C 
HETATM    7  O           1     -37.050   0.866 -10.164  0.00  0.00    -0.646 OA
HETATM    8  O           1     -38.075  -0.691 -11.265  0.00  0.00    -0.646 OA
ENDBRANCH   5   6
BRANCH   5   9
HETATM    9  C           1     -35.558   0.383 -12.935  0.00  0.00     0.046 C 
BRANCH   9  10
HETATM   10  C           1     -35.443  -0.546 -14.137  0.00  0.00     0.076 C 
BRANCH  10  11
HETATM   11  S           1     -36.410   0.127 -15.517  0.00  0.00    -0.173 SA
HETATM   12  C           1     -38.019   0.066 -14.680  0.00  0.00     0.089 C 
ENDBRANCH  10  11
ENDBRANCH   9  10
ENDBRANCH   5   9
ENDBRANCH   4   5
BRANCH   2  13
HETATM   13  C           1     -35.057  -4.215 -11.623  0.00  0.00     0.311 C 
HETATM   14  C           1     -34.237  -5.027 -10.634  0.00  0.00     0.047 C 
HETATM   15  C           1     -32.859  -5.157 -11.272  0.00  0.00     0.033 C 
HETATM   16  C           1     -32.965  -4.421 -12.597  0.00  0.00     0.271 C 
HETATM   17  N           1     -34.393  -4.453 -12.902  0.00  0.00     0.097 N 
HETATM   18  H           1     -34.641  -5.370 -13.273  0.00  0.00     0.317 HD
ENDBRANCH   2  13
TORSDOF 6
ENDMDL
MODEL 5
REMARK VINA RESULT:      -5.2      9.830     12.161
REMARK  6 active torsions:
REMARK  status: ('A' for Active; 'I' for Inactive)
REMARK    1  A    between atoms: S_2  and  C_10 
REMARK    2  A    between atoms: C_3  and  C_14 
REMARK       I    between atoms: C_8  and  N_15 
REMARK    3  A    between atoms: C_8  and  C_12 
REMARK    4  A    between atoms: C_10  and  C_11 
REMARK    5  A    between atoms: C_11  and  C_14 
REMARK    6  A    between atoms: C_14  and  N_15 
ROOT
HETATM    1  O           1     -28.317  -7.125 -16.545  0.00  0.00    -0.271 OA
HETATM    2  C           1     -27.813  -6.027 -16.555  0.00  0.00     0.251 C 
HETATM    3  H           1     -26.077  -4.960 -16.921  0.00  0.00     0.163 HD
HETATM    4  N           1     -26.499  -5.879 -16.912  0.00  0.00    -0.345 N 
ENDROOT
BRANCH   4   5
HETATM    5  C           1     -25.714  -7.042 -17.278  0.00  0.00     0.186 C 
BRANCH   5   6
HETATM    6  C           1     -24.836  -7.440 -16.116  0.00  0.00     0.196 C 
HETATM    7  O           1     -23.866  -8.206 -16.300  0.00  0.00    -0.646 OA
HETATM    8  O           1     -25.081  -7.004 -14.970  0.00  0.00    -0.646 OA
ENDBRANCH   5   6
BRANCH   5   9
HETATM    9  C           1     -24.841  -6.708 -18.481  0.00  0.00     0.046 C 
BRANCH   9  10
HETATM   10  C           1     -25.717  -6.553 -19.717  0.00  0.00     0.076 C 
BRANCH  10  11
HETATM   11  S           1     -25.263  -7.813 -20.942  0.00  0.00    -0.173 SA
HETATM   12  C           1     -26.946  -8.432 -21.223  0.00  0.00     0.089 C 
ENDBRANCH  10  11
ENDBRANCH   9  10
ENDBRANCH   5   9
ENDBRANCH   4   5
BRANCH   2  13
HETATM   13  C           1     -28.631  -4.818 -16.174  0.00  0.00     0.311 C 
HETATM   14  C           1     -30.098  -5.180 -16.028  0.00  0.00     0.047 C 
HETATM   15  C           1     -30.723  -4.861 -17.381  0.00  0.00     0.033 C 
HETATM   16  C           1     -29.582  -4.323 -18.228  0.00  0.00     0.271 C 
HETATM   17  N           1     -28.622  -3.826 -17.245  0.00  0.00     0.097 N 
HETATM   18  H           1     -28.931  -2.917 -16.900  0.00  0.00     0.317 HD
ENDBRANCH   2  13
TORSDOF 6
ENDMDL
MODEL 6
REMARK VINA RESULT:      -5.1     11.005     13.131
REMARK  6 active torsions:
REMARK  status: ('A' for Active; 'I' for Inactive)
REMARK    1  A    between atoms: S_2  and  C_10 
REMARK    2  A    between atoms: C_3  and  C_14 
REMARK       I    between atoms: C_8  and  N_15 
REMARK    3  A    between atoms: C_8  and  C_12 
REMARK    4  A    between atoms: C_10  and  C_11 
REMARK    5  A    between atoms: C_11  and  C_14 
REMARK    6  A    between atoms: C_14  and  N_15 
ROOT
HETATM    1  O           1     -28.390  -7.423 -19.139  0.00  0.00    -0.271 OA
HETATM    2  C           1     -28.052  -6.344 -18.713  0.00  0.00     0.251 C 
HETATM    3  H           1     -26.440  -5.122 -18.277  0.00  0.00     0.163 HD
HETATM    4  N           1     -26.723  -6.025 -18.633  0.00  0.00    -0.345 N 
ENDROOT
BRANCH   4   5
HETATM    5  C           1     -25.721  -6.983 -19.060  0.00  0.00     0.186 C 
BRANCH   5   6
HETATM    6  C           1     -24.512  -6.877 -18.163  0.00  0.00     0.196 C 
HETATM    7  O           1     -24.655  -6.844 -16.922  0.00  0.00    -0.646 OA
HETATM    8  O           1     -23.367  -6.821 -18.663  0.00  0.00    -0.646 OA
ENDBRANCH   5   6
BRANCH   5   9
HETATM    9  C           1     -25.314  -6.688 -20.497  0.00  0.00     0.046 C 
BRANCH   9  10
HETATM   10  C           1     -25.146  -7.997 -21.257  0.00  0.00     0.076 C 
BRANCH  10  11
HETATM   11  S           1     -23.856  -7.804 -22.518  0.00  0.00    -0.173 SA
HETATM   12  C           1     -22.541  -8.639 -21.587  0.00  0.00     0.089 C 
ENDBRANCH  10  11
ENDBRANCH   9  10
ENDBRANCH   5   9
ENDBRANCH   4   5
BRANCH   2  13
HETATM   13  C           1     -29.094  -5.348 -18.269  0.00  0.00     0.311 C 
HETATM   14  C           1     -28.472  -4.257 -17.415  0.00  0.00     0.047 C 
HETATM   15  C           1     -28.665  -4.719 -15.976  0.00  0.00     0.033 C 
HETATM   16  C           1     -29.397  -6.047 -16.081  0.00  0.00     0.271 C 
HETATM   17  N           1     -30.066  -5.975 -17.377  0.00  0.00     0.097 N 
HETATM   18  H           1     -30.905  -5.401 -17.296  0.00  0.00     0.317 HD
ENDBRANCH   2  13
TORSDOF 6
ENDMDL
MODEL 7
REMARK VINA RESULT:      -5.0     15.217     17.221
REMARK  6 active torsions:
REMARK  status: ('A' for Active; 'I' for Inactive)
REMARK    1  A    between atoms: S_2  and  C_10 
REMARK    2  A    between atoms: C_3  and  C_14 
REMARK       I    between atoms: C_8  and  N_15 
REMARK    3  A    between atoms: C_8  and  C_12 
REMARK    4  A    between atoms: C_10  and  C_11 
REMARK    5  A    between atoms: C_11  and  C_14 
REMARK    6  A    between atoms: C_14  and  N_15 
ROOT
HETATM    1  O           1     -22.598  -5.560  -5.907  0.00  0.00    -0.271 OA
HETATM    2  C           1     -21.420  -5.336  -5.764  0.00  0.00     0.251 C 
HETATM    3  H           1     -19.683  -5.935  -4.811  0.00  0.00     0.163 HD
HETATM    4  N           1     -20.669  -6.122  -4.931  0.00  0.00    -0.345 N 
ENDROOT
BRANCH   4   5
HETATM    5  C           1     -21.290  -7.224  -4.220  0.00  0.00     0.186 C 
BRANCH   5   6
HETATM    6  C           1     -21.520  -6.827  -2.782  0.00  0.00     0.196 C 
HETATM    7  O           1     -20.837  -7.347  -1.874  0.00  0.00    -0.646 OA
HETATM    8  O           1     -22.394  -5.979  -2.500  0.00  0.00    -0.646 OA
ENDBRANCH   5   6
BRANCH   5   9
HETATM    9  C           1     -20.376  -8.441  -4.270  0.00  0.00     0.046 C 
BRANCH   9  10
HETATM   10  C           1     -21.100  -9.592  -4.956  0.00  0.00     0.076 C 
BRANCH  10  11
HETATM   11  S           1     -22.004 -10.563  -3.719  0.00  0.00    -0.173 SA
HETATM   12  C           1     -20.590 -10.847  -2.617  0.00  0.00     0.089 C 
ENDBRANCH  10  11
ENDBRANCH   9  10
ENDBRANCH   5   9
ENDBRANCH   4   5
BRANCH   2  13
HETATM   13  C           1     -20.774  -4.190  -6.502  0.00  0.00     0.311 C 
HETATM   14  C           1     -21.676  -3.686  -7.615  0.00  0.00     0.047 C 
HETATM   15  C           1     -21.212  -4.422  -8.867  0.00  0.00     0.033 C 
HETATM   16  C           1     -20.062  -5.301  -8.406  0.00  0.00     0.271 C 
HETATM   17  N           1     -19.572  -4.634  -7.203  0.00  0.00     0.097 N 
HETATM   18  H           1     -18.993  -3.838  -7.468  0.00  0.00     0.317 HD
ENDBRANCH   2  13
TORSDOF 6
ENDMDL
MODEL 8
REMARK VINA RESULT:      -5.0     15.830     18.012
REMARK  6 active torsions:
REMARK  status: ('A' for Active; 'I' for Inactive)
REMARK    1  A    between atoms: S_2  and  C_10 
REMARK    2  A    between atoms: C_3  and  C_14 
REMARK       I    between atoms: C_8  and  N_15 
REMARK    3  A    between atoms: C_8  and  C_12 
REMARK    4  A    between atoms: C_10  and  C_11 
REMARK    5  A    between atoms: C_11  and  C_14 
REMARK    6  A    between atoms: C_14  and  N_15 
ROOT
HETATM    1  O           1     -21.273  -8.073  -5.904  0.00  0.00    -0.271 OA
HETATM    2  C           1     -20.651  -7.106  -5.533  0.00  0.00     0.251 C 
HETATM    3  H           1     -20.008  -6.032  -3.885  0.00  0.00     0.163 HD
HETATM    4  N           1     -20.529  -6.841  -4.196  0.00  0.00    -0.345 N 
ENDROOT
BRANCH   4   5
HETATM    5  C           1     -21.149  -7.722  -3.224  0.00  0.00     0.186 C 
BRANCH   5   6
HETATM    6  C           1     -21.944  -6.901  -2.238  0.00  0.00     0.196 C 
HETATM    7  O           1     -22.503  -5.847  -2.611  0.00  0.00    -0.646 OA
HETATM    8  O           1     -22.044  -7.276  -1.050  0.00  0.00    -0.646 OA
ENDBRANCH   5   6
BRANCH   5   9
HETATM    9  C           1     -20.070  -8.498  -2.481  0.00  0.00     0.046 C 
BRANCH   9  10
HETATM   10  C           1     -19.846  -9.840  -3.166  0.00  0.00     0.076 C 
BRANCH  10  11
HETATM   11  S           1     -18.070 -10.099  -3.428  0.00  0.00    -0.173 SA
HETATM   12  C           1     -18.074  -9.729  -5.204  0.00  0.00     0.089 C 
ENDBRANCH  10  11
ENDBRANCH   9  10
ENDBRANCH   5   9
ENDBRANCH   4   5
BRANCH   2  13
HETATM   13  C           1     -20.007  -6.190  -6.545  0.00  0.00     0.311 C 
HETATM   14  C           1     -19.860  -4.785  -5.986  0.00  0.00     0.047 C 
HETATM   15  C           1     -21.095  -4.034  -6.467  0.00  0.00     0.033 C 
HETATM   16  C           1     -21.881  -5.045  -7.285  0.00  0.00     0.271 C 
HETATM   17  N           1     -20.871  -6.012  -7.708  0.00  0.00     0.097 N 
HETATM   18  H           1     -20.345  -5.631  -8.494  0.00  0.00     0.317 HD
ENDBRANCH   2  13
TORSDOF 6
ENDMDL
MODEL 9
REMARK VINA RESULT:      -5.0     10.448     12.399
REMARK  6 active torsions:
REMARK  status: ('A' for Active; 'I' for Inactive)
REMARK    1  A    between atoms: S_2  and  C_10 
REMARK    2  A    between atoms: C_3  and  C_14 
REMARK       I    between atoms: C_8  and  N_15 
REMARK    3  A    between atoms: C_8  and  C_12 
REMARK    4  A    between atoms: C_10  and  C_11 
REMARK    5  A    between atoms: C_11  and  C_14 
REMARK    6  A    between atoms: C_14  and  N_15 
ROOT
HETATM    1  O           1     -24.099  -6.575 -18.090  0.00  0.00    -0.271 OA
HETATM    2  C           1     -25.118  -6.924 -18.637  0.00  0.00     0.251 C 
HETATM    3  H           1     -27.184  -6.945 -18.520  0.00  0.00     0.163 HD
HETATM    4  N           1     -26.331  -6.654 -18.062  0.00  0.00    -0.345 N 
ENDROOT
BRANCH   4   5
HETATM    5  C           1     -26.391  -5.948 -16.796  0.00  0.00     0.186 C 
BRANCH   5   6
HETATM    6  C           1     -26.413  -6.948 -15.666  0.00  0.00     0.196 C 
HETATM    7  O           1     -27.501  -7.422 -15.272  0.00  0.00    -0.646 OA
HETATM    8  O           1     -25.344  -7.302 -15.123  0.00  0.00    -0.646 OA
ENDBRANCH   5   6
BRANCH   5   9
HETATM    9  C           1     -27.655  -5.100 -16.747  0.00  0.00     0.046 C 
BRANCH   9  10
HETATM   10  C           1     -28.487  -5.353 -17.997  0.00  0.00     0.076 C 
BRANCH  10  11
HETATM   11  S           1     -30.100  -6.035 -17.523  0.00  0.00    -0.173 SA
HETATM   12  C           1     -29.867  -7.658 -18.301  0.00  0.00     0.089 C 
ENDBRANCH  10  11
ENDBRANCH   9  10
ENDBRANCH   5   9
ENDBRANCH   4   5
BRANCH   2  13
HETATM   13  C           1     -25.055  -7.658 -19.953  0.00  0.00     0.311 C 
HETATM   14  C           1     -24.146  -6.937 -20.933  0.00  0.00     0.047 C 
HETATM   15  C           1     -25.072  -6.053 -21.759  0.00  0.00     0.033 C 
HETATM   16  C           1     -26.465  -6.322 -21.215  0.00  0.00     0.271 C 
HETATM   17  N           1     -26.356  -7.650 -20.616  0.00  0.00     0.097 N 
HETATM   18  H           1     -26.393  -8.357 -21.349  0.00  0.00     0.317 HD
ENDBRANCH   2  13
TORSDOF 6
ENDMDL
