MODEL 1
REMARK VINA RESULT:      -7.8      0.000      0.000
REMARK  8 active torsions:
REMARK  status: ('A' for Active; 'I' for Inactive)
REMARK    1  A    between atoms: C_2  and  C_4 
REMARK       I    between atoms: N_5  and  C_6 
REMARK    2  A    between atoms: C_6  and  C_7 
REMARK    3  A    between atoms: C_7  and  C_8 
REMARK    4  A    between atoms: C_7  and  N_20 
REMARK    5  A    between atoms: C_8  and  C_9 
REMARK    6  A    between atoms: C_12  and  O_13 
REMARK    7  A    between atoms: O_13  and  P_14 
REMARK    8  A    between atoms: P_14  and  O_16 
ROOT
HETATM    1  C           1     -21.407  -6.797  -4.289  0.00  0.00     0.279 C 
ENDROOT
BRANCH   1   2
HETATM    2  C           1     -21.454  -8.258  -3.918  0.00  0.00     0.251 C 
HETATM    3  N           1     -21.180  -8.647  -2.634  0.00  0.00    -0.336 N 
HETATM    4  C           1     -22.136  -8.920  -1.564  0.00  0.00     0.188 C 
HETATM    5  C           1     -19.868  -8.878  -2.035  0.00  0.00     0.127 C 
HETATM    6  C           1     -21.565 -10.148  -0.875  0.00  0.00     0.038 C 
HETATM    7  C           1     -20.072 -10.117  -1.181  0.00  0.00     0.022 C 
HETATM    8  O           1     -21.733  -9.085  -4.752  0.00  0.00    -0.271 OA
BRANCH   4   9
HETATM    9  C           1     -22.218  -7.756  -0.607  0.00  0.00     0.196 C 
HETATM   10  O           1     -21.751  -7.863   0.547  0.00  0.00    -0.646 OA
HETATM   11  O           1     -22.751  -6.685  -0.970  0.00  0.00    -0.646 OA
ENDBRANCH   4   9
ENDBRANCH   1   2
BRANCH   1  12
HETATM   12  C           1     -20.338  -6.576  -5.353  0.00  0.00     0.081 C 
BRANCH  12  13
HETATM   13  C           1     -20.914  -5.777  -6.480  0.00  0.00    -0.056 A 
HETATM   14  C           1     -22.319  -5.199  -6.366  0.00  0.00     0.010 A 
HETATM   15  C           1     -22.904  -4.386  -7.513  0.00  0.00     0.038 A 
HETATM   16  C           1     -22.084  -4.150  -8.774  0.00  0.00     0.081 A 
HETATM   17  C           1     -20.679  -4.728  -8.890  0.00  0.00     0.038 A 
HETATM   18  C           1     -20.095  -5.541  -7.742  0.00  0.00     0.010 A 
BRANCH  16  19
HETATM   19  O           1     -22.604  -3.427  -9.795  0.00  0.00    -0.247 OA
BRANCH  19  20
HETATM   20  P           1     -23.626  -4.165 -10.805  0.00  0.00     0.411 P 
HETATM   21  O           1     -24.845  -3.339 -10.964  0.00  0.00    -0.624 OA
HETATM   22  O           1     -23.996  -5.487 -10.254  0.00  0.00    -0.624 OA
BRANCH  20  23
HETATM   23  O           1     -22.915  -4.358 -12.242  0.00  0.00    -0.300 OA
HETATM   24  H           1     -23.044  -5.266 -12.457  0.00  0.00     0.223 HD
ENDBRANCH  20  23
ENDBRANCH  19  20
ENDBRANCH  16  19
ENDBRANCH  12  13
ENDBRANCH   1  12
BRANCH   1  25
HETATM   25  N           1     -21.076  -5.983  -3.073  0.00  0.00    -0.066 N 
HETATM   26  H           1     -20.245  -5.382  -3.272  0.00  0.00     0.275 HD
HETATM   27  H           1     -21.891  -5.378  -2.827  0.00  0.00     0.275 HD
HETATM   28  H           1     -20.861  -6.622  -2.274  0.00  0.00     0.275 HD
ENDBRANCH   1  25
TORSDOF 8
ENDMDL
MODEL 2
REMARK VINA RESULT:      -7.4     12.935     14.691
REMARK  8 active torsions:
REMARK  status: ('A' for Active; 'I' for Inactive)
REMARK    1  A    between atoms: C_2  and  C_4 
REMARK       I    between atoms: N_5  and  C_6 
REMARK    2  A    between atoms: C_6  and  C_7 
REMARK    3  A    between atoms: C_7  and  C_8 
REMARK    4  A    between atoms: C_7  and  N_20 
REMARK    5  A    between atoms: C_8  and  C_9 
REMARK    6  A    between atoms: C_12  and  O_13 
REMARK    7  A    between atoms: O_13  and  P_14 
REMARK    8  A    between atoms: P_14  and  O_16 
ROOT
HETATM    1  C           1     -33.849  -4.783 -15.388  0.00  0.00     0.279 C 
ENDROOT
BRANCH   1   2
HETATM    2  C           1     -34.222  -3.830 -14.280  0.00  0.00     0.251 C 
HETATM    3  N           1     -34.079  -4.211 -12.972  0.00  0.00    -0.336 N 
HETATM    4  C           1     -32.959  -3.927 -12.080  0.00  0.00     0.188 C 
HETATM    5  C           1     -35.015  -4.991 -12.167  0.00  0.00     0.127 C 
HETATM    6  C           1     -33.627  -3.609 -10.753  0.00  0.00     0.038 C 
HETATM    7  C           1     -34.977  -4.314 -10.808  0.00  0.00     0.022 C 
HETATM    8  O           1     -34.647  -2.732 -14.546  0.00  0.00    -0.271 OA
BRANCH   4   9
HETATM    9  C           1     -32.055  -5.129 -11.953  0.00  0.00     0.196 C 
HETATM   10  O           1     -30.943  -5.136 -12.523  0.00  0.00    -0.646 OA
HETATM   11  O           1     -32.419  -6.116 -11.277  0.00  0.00    -0.646 OA
ENDBRANCH   4   9
ENDBRANCH   1   2
BRANCH   1  12
HETATM   12  C           1     -33.360  -3.993 -16.595  0.00  0.00     0.081 C 
BRANCH  12  13
HETATM   13  C           1     -32.028  -4.521 -17.031  0.00  0.00    -0.056 A 
HETATM   14  C           1     -31.729  -6.011 -16.932  0.00  0.00     0.010 A 
HETATM   15  C           1     -30.375  -6.548 -17.375  0.00  0.00     0.038 A 
HETATM   16  C           1     -29.319  -5.594 -17.918  0.00  0.00     0.081 A 
HETATM   17  C           1     -29.617  -4.104 -18.017  0.00  0.00     0.038 A 
HETATM   18  C           1     -30.972  -3.568 -17.574  0.00  0.00     0.010 A 
BRANCH  16  19
HETATM   19  O           1     -28.113  -6.071 -18.313  0.00  0.00    -0.247 OA
BRANCH  19  20
HETATM   20  P           1     -26.932  -6.151 -17.214  0.00  0.00     0.411 P 
HETATM   21  O           1     -26.850  -4.867 -16.483  0.00  0.00    -0.624 OA
HETATM   22  O           1     -25.644  -6.414 -17.894  0.00  0.00    -0.624 OA
BRANCH  20  23
HETATM   23  O           1     -27.247  -7.344 -16.173  0.00  0.00    -0.300 OA
HETATM   24  H           1     -27.201  -8.133 -16.685  0.00  0.00     0.223 HD
ENDBRANCH  20  23
ENDBRANCH  19  20
ENDBRANCH  16  19
ENDBRANCH  12  13
ENDBRANCH   1  12
BRANCH   1  25
HETATM   25  N           1     -35.050  -5.594 -15.775  0.00  0.00    -0.066 N 
HETATM   26  H           1     -35.417  -6.096 -14.936  0.00  0.00     0.275 HD
HETATM   27  H           1     -35.790  -4.961 -16.153  0.00  0.00     0.275 HD
HETATM   28  H           1     -34.780  -6.290 -16.507  0.00  0.00     0.275 HD
ENDBRANCH   1  25
TORSDOF 8
ENDMDL
MODEL 3
REMARK VINA RESULT:      -7.3      3.303      8.647
REMARK  8 active torsions:
REMARK  status: ('A' for Active; 'I' for Inactive)
REMARK    1  A    between atoms: C_2  and  C_4 
REMARK       I    between atoms: N_5  and  C_6 
REMARK    2  A    between atoms: C_6  and  C_7 
REMARK    3  A    between atoms: C_7  and  C_8 
REMARK    4  A    between atoms: C_7  and  N_20 
REMARK    5  A    between atoms: C_8  and  C_9 
REMARK    6  A    between atoms: C_12  and  O_13 
REMARK    7  A    between atoms: O_13  and  P_14 
REMARK    8  A    between atoms: P_14  and  O_16 
ROOT
HETATM    1  C           1     -22.344  -4.631  -6.778  0.00  0.00     0.279 C 
ENDROOT
BRANCH   1   2
HETATM    2  C           1     -21.623  -3.708  -7.729  0.00  0.00     0.251 C 
HETATM    3  N           1     -21.569  -4.007  -9.064  0.00  0.00    -0.336 N 
HETATM    4  C           1     -22.440  -3.508 -10.124  0.00  0.00     0.188 C 
HETATM    5  C           1     -20.627  -4.897  -9.737  0.00  0.00     0.127 C 
HETATM    6  C           1     -21.489  -3.251 -11.281  0.00  0.00     0.038 C 
HETATM    7  C           1     -20.298  -4.169 -11.029  0.00  0.00     0.022 C 
HETATM    8  O           1     -21.095  -2.705  -7.313  0.00  0.00    -0.271 OA
BRANCH   4   9
HETATM    9  C           1     -23.475  -4.540 -10.499  0.00  0.00     0.196 C 
HETATM   10  O           1     -24.426  -4.780  -9.723  0.00  0.00    -0.646 OA
HETATM   11  O           1     -23.383  -5.153 -11.584  0.00  0.00    -0.646 OA
ENDBRANCH   4   9
ENDBRANCH   1   2
BRANCH   1  12
HETATM   12  C           1     -21.801  -6.046  -6.932  0.00  0.00     0.081 C 
BRANCH  12  13
HETATM   13  C           1     -21.526  -6.625  -5.579  0.00  0.00    -0.056 A 
HETATM   14  C           1     -21.526  -8.135  -5.382  0.00  0.00     0.010 A 
HETATM   15  C           1     -21.246  -8.724  -4.006  0.00  0.00     0.038 A 
HETATM   16  C           1     -20.966  -7.802  -2.826  0.00  0.00     0.081 A 
HETATM   17  C           1     -20.966  -6.291  -3.023  0.00  0.00     0.038 A 
HETATM   18  C           1     -21.246  -5.703  -4.400  0.00  0.00     0.010 A 
BRANCH  16  19
HETATM   19  O           1     -20.716  -8.325  -1.601  0.00  0.00    -0.247 OA
BRANCH  19  20
HETATM   20  P           1     -21.932  -8.384  -0.539  0.00  0.00     0.411 P 
HETATM   21  O           1     -21.386  -8.544   0.827  0.00  0.00    -0.624 OA
HETATM   22  O           1     -22.809  -9.532  -0.857  0.00  0.00    -0.624 OA
BRANCH  20  23
HETATM   23  O           1     -22.783  -7.014  -0.621  0.00  0.00    -0.300 OA
HETATM   24  H           1     -23.282  -6.989   0.178  0.00  0.00     0.223 HD
ENDBRANCH  20  23
ENDBRANCH  19  20
ENDBRANCH  16  19
ENDBRANCH  12  13
ENDBRANCH   1  12
BRANCH   1  25
HETATM   25  N           1     -23.812  -4.622  -7.090  0.00  0.00    -0.066 N 
HETATM   26  H           1     -24.059  -3.733  -7.579  0.00  0.00     0.275 HD
HETATM   27  H           1     -24.041  -5.434  -7.707  0.00  0.00     0.275 HD
HETATM   28  H           1     -24.358  -4.694  -6.202  0.00  0.00     0.275 HD
ENDBRANCH   1  25
TORSDOF 8
ENDMDL
MODEL 4
REMARK VINA RESULT:      -7.0      1.646      3.044
REMARK  8 active torsions:
REMARK  status: ('A' for Active; 'I' for Inactive)
REMARK    1  A    between atoms: C_2  and  C_4 
REMARK       I    between atoms: N_5  and  C_6 
REMARK    2  A    between atoms: C_6  and  C_7 
REMARK    3  A    between atoms: C_7  and  C_8 
REMARK    4  A    between atoms: C_7  and  N_20 
REMARK    5  A    between atoms: C_8  and  C_9 
REMARK    6  A    between atoms: C_12  and  O_13 
REMARK    7  A    between atoms: O_13  and  P_14 
REMARK    8  A    between atoms: P_14  and  O_16 
ROOT
HETATM    1  C           1     -21.562  -6.775  -4.629  0.00  0.00     0.279 C 
ENDROOT
BRANCH   1   2
HETATM    2  C           1     -20.974  -7.401  -3.389  0.00  0.00     0.251 C 
HETATM    3  N           1     -20.437  -8.660  -3.447  0.00  0.00    -0.336 N 
HETATM    4  C           1     -19.033  -9.021  -3.617  0.00  0.00     0.188 C 
HETATM    5  C           1     -21.146  -9.933  -3.353  0.00  0.00     0.127 C 
HETATM    6  C           1     -18.844 -10.191  -2.666  0.00  0.00     0.038 C 
HETATM    7  C           1     -20.233 -10.794  -2.497  0.00  0.00     0.022 C 
HETATM    8  O           1     -20.976  -6.793  -2.346  0.00  0.00    -0.271 OA
BRANCH   4   9
HETATM    9  C           1     -18.754  -9.435  -5.041  0.00  0.00     0.196 C 
HETATM   10  O           1     -19.077  -8.682  -5.985  0.00  0.00    -0.646 OA
HETATM   11  O           1     -18.198 -10.530  -5.277  0.00  0.00    -0.646 OA
ENDBRANCH   4   9
ENDBRANCH   1   2
BRANCH   1  12
HETATM   12  C           1     -20.744  -5.549  -5.016  0.00  0.00     0.081 C 
BRANCH  12  13
HETATM   13  C           1     -21.050  -5.173  -6.433  0.00  0.00    -0.056 A 
HETATM   14  C           1     -20.073  -5.532  -7.545  0.00  0.00     0.010 A 
HETATM   15  C           1     -20.384  -5.149  -8.985  0.00  0.00     0.038 A 
HETATM   16  C           1     -21.672  -4.407  -9.315  0.00  0.00     0.081 A 
HETATM   17  C           1     -22.650  -4.047  -8.203  0.00  0.00     0.038 A 
HETATM   18  C           1     -22.338  -4.430  -6.762  0.00  0.00     0.010 A 
BRANCH  16  19
HETATM   19  O           1     -21.950  -4.066 -10.596  0.00  0.00    -0.247 OA
BRANCH  19  20
HETATM   20  P           1     -23.431  -4.373 -11.160  0.00  0.00     0.411 P 
HETATM   21  O           1     -24.305  -3.203 -10.917  0.00  0.00    -0.624 OA
HETATM   22  O           1     -23.988  -5.555 -10.465  0.00  0.00    -0.624 OA
BRANCH  20  23
HETATM   23  O           1     -23.352  -4.666 -12.746  0.00  0.00    -0.300 OA
HETATM   24  H           1     -23.971  -5.361 -12.896  0.00  0.00     0.223 HD
ENDBRANCH  20  23
ENDBRANCH  19  20
ENDBRANCH  16  19
ENDBRANCH  12  13
ENDBRANCH   1  12
BRANCH   1  25
HETATM   25  N           1     -22.979  -6.364  -4.357  0.00  0.00    -0.066 N 
HETATM   26  H           1     -23.524  -7.191  -4.026  0.00  0.00     0.275 HD
HETATM   27  H           1     -22.991  -5.622  -3.622  0.00  0.00     0.275 HD
HETATM   28  H           1     -23.409  -5.992  -5.234  0.00  0.00     0.275 HD
ENDBRANCH   1  25
TORSDOF 8
ENDMDL
MODEL 5
REMARK VINA RESULT:      -7.0      1.985      2.486
REMARK  8 active torsions:
REMARK  status: ('A' for Active; 'I' for Inactive)
REMARK    1  A    between atoms: C_2  and  C_4 
REMARK       I    between atoms: N_5  and  C_6 
REMARK    2  A    between atoms: C_6  and  C_7 
REMARK    3  A    between atoms: C_7  and  C_8 
REMARK    4  A    between atoms: C_7  and  N_20 
REMARK    5  A    between atoms: C_8  and  C_9 
REMARK    6  A    between atoms: C_12  and  O_13 
REMARK    7  A    between atoms: O_13  and  P_14 
REMARK    8  A    between atoms: P_14  and  O_16 
ROOT
HETATM    1  C           1     -20.726  -7.709  -5.350  0.00  0.00     0.279 C 
ENDROOT
BRANCH   1   2
HETATM    2  C           1     -19.631  -8.736  -5.193  0.00  0.00     0.251 C 
HETATM    3  N           1     -19.603  -9.542  -4.086  0.00  0.00    -0.336 N 
HETATM    4  C           1     -20.126 -10.899  -3.960  0.00  0.00     0.188 C 
HETATM    5  C           1     -19.043  -9.230  -2.774  0.00  0.00     0.127 C 
HETATM    6  C           1     -19.069 -11.618  -3.138  0.00  0.00     0.038 C 
HETATM    7  C           1     -18.360 -10.520  -2.354  0.00  0.00     0.022 C 
HETATM    8  O           1     -18.781  -8.848  -6.043  0.00  0.00    -0.271 OA
BRANCH   4   9
HETATM    9  C           1     -21.455 -10.899  -3.245  0.00  0.00     0.196 C 
HETATM   10  O           1     -21.536 -11.344  -2.079  0.00  0.00    -0.646 OA
HETATM   11  O           1     -22.473 -10.452  -3.817  0.00  0.00    -0.646 OA
ENDBRANCH   4   9
ENDBRANCH   1   2
BRANCH   1  12
HETATM   12  C           1     -20.108  -6.320  -5.457  0.00  0.00     0.081 C 
BRANCH  12  13
HETATM   13  C           1     -20.742  -5.579  -6.593  0.00  0.00    -0.056 A 
HETATM   14  C           1     -19.998  -5.425  -7.912  0.00  0.00     0.010 A 
HETATM   15  C           1     -20.643  -4.671  -9.068  0.00  0.00     0.038 A 
HETATM   16  C           1     -22.033  -4.071  -8.903  0.00  0.00     0.081 A 
HETATM   17  C           1     -22.779  -4.225  -7.584  0.00  0.00     0.038 A 
HETATM   18  C           1     -22.133  -4.980  -6.429  0.00  0.00     0.010 A 
BRANCH  16  19
HETATM   19  O           1     -22.608  -3.400  -9.931  0.00  0.00    -0.247 OA
BRANCH  19  20
HETATM   20  P           1     -23.667  -4.193 -10.857  0.00  0.00     0.411 P 
HETATM   21  O           1     -24.876  -3.361 -11.048  0.00  0.00    -0.624 OA
HETATM   22  O           1     -24.042  -5.464 -10.200  0.00  0.00    -0.624 OA
BRANCH  20  23
HETATM   23  O           1     -22.996  -4.504 -12.293  0.00  0.00    -0.300 OA
HETATM   24  H           1     -23.305  -5.363 -12.525  0.00  0.00     0.223 HD
ENDBRANCH  20  23
ENDBRANCH  19  20
ENDBRANCH  16  19
ENDBRANCH  12  13
ENDBRANCH   1  12
BRANCH   1  25
HETATM   25  N           1     -21.634  -7.761  -4.157  0.00  0.00    -0.066 N 
HETATM   26  H           1     -22.322  -8.538  -4.276  0.00  0.00     0.275 HD
HETATM   27  H           1     -21.067  -7.928  -3.295  0.00  0.00     0.275 HD
HETATM   28  H           1     -22.145  -6.854  -4.068  0.00  0.00     0.275 HD
ENDBRANCH   1  25
TORSDOF 8
ENDMDL
MODEL 6
REMARK VINA RESULT:      -6.8      3.269      5.035
REMARK  8 active torsions:
REMARK  status: ('A' for Active; 'I' for Inactive)
REMARK    1  A    between atoms: C_2  and  C_4 
REMARK       I    between atoms: N_5  and  C_6 
REMARK    2  A    between atoms: C_6  and  C_7 
REMARK    3  A    between atoms: C_7  and  C_8 
REMARK    4  A    between atoms: C_7  and  N_20 
REMARK    5  A    between atoms: C_8  and  C_9 
REMARK    6  A    between atoms: C_12  and  O_13 
REMARK    7  A    between atoms: O_13  and  P_14 
REMARK    8  A    between atoms: P_14  and  O_16 
ROOT
HETATM    1  C           1     -22.417  -8.797  -0.392  0.00  0.00     0.279 C 
ENDROOT
BRANCH   1   2
HETATM    2  C           1     -21.879 -10.055   0.243  0.00  0.00     0.251 C 
HETATM    3  N           1     -22.348 -11.278  -0.156  0.00  0.00    -0.336 N 
HETATM    4  C           1     -21.750 -12.185  -1.132  0.00  0.00     0.188 C 
HETATM    5  C           1     -23.555 -11.960   0.302  0.00  0.00     0.127 C 
HETATM    6  C           1     -21.936 -13.558  -0.510  0.00  0.00     0.038 C 
HETATM    7  C           1     -23.127 -13.411   0.429  0.00  0.00     0.022 C 
HETATM    8  O           1     -21.035  -9.984   1.104  0.00  0.00    -0.271 OA
BRANCH   4   9
HETATM    9  C           1     -22.466 -12.093  -2.458  0.00  0.00     0.196 C 
HETATM   10  O           1     -22.712 -10.974  -2.958  0.00  0.00    -0.646 OA
HETATM   11  O           1     -22.810 -13.136  -3.056  0.00  0.00    -0.646 OA
ENDBRANCH   4   9
ENDBRANCH   1   2
BRANCH   1  12
HETATM   12  C           1     -21.265  -7.847  -0.696  0.00  0.00     0.081 C 
BRANCH  12  13
HETATM   13  C           1     -21.188  -7.612  -2.172  0.00  0.00    -0.056 A 
HETATM   14  C           1     -20.225  -8.426  -3.025  0.00  0.00     0.010 A 
HETATM   15  C           1     -20.147  -8.186  -4.527  0.00  0.00     0.038 A 
HETATM   16  C           1     -21.033  -7.131  -5.176  0.00  0.00     0.081 A 
HETATM   17  C           1     -21.997  -6.316  -4.323  0.00  0.00     0.038 A 
HETATM   18  C           1     -22.074  -6.557  -2.821  0.00  0.00     0.010 A 
BRANCH  16  19
HETATM   19  O           1     -20.965  -6.917  -6.512  0.00  0.00    -0.247 OA
BRANCH  19  20
HETATM   20  P           1     -20.632  -5.422  -7.025  0.00  0.00     0.411 P 
HETATM   21  O           1     -19.999  -5.489  -8.362  0.00  0.00    -0.624 OA
HETATM   22  O           1     -19.706  -4.769  -6.074  0.00  0.00    -0.624 OA
BRANCH  20  23
HETATM   23  O           1     -22.000  -4.570  -7.120  0.00  0.00    -0.300 OA
HETATM   24  H           1     -22.448  -4.911  -7.875  0.00  0.00     0.223 HD
ENDBRANCH  20  23
ENDBRANCH  19  20
ENDBRANCH  16  19
ENDBRANCH  12  13
ENDBRANCH   1  12
BRANCH   1  25
HETATM   25  N           1     -23.377  -8.132   0.550  0.00  0.00    -0.066 N 
HETATM   26  H           1     -23.704  -7.231   0.136  0.00  0.00     0.275 HD
HETATM   27  H           1     -24.196  -8.759   0.711  0.00  0.00     0.275 HD
HETATM   28  H           1     -22.898  -7.944   1.460  0.00  0.00     0.275 HD
ENDBRANCH   1  25
TORSDOF 8
ENDMDL
MODEL 7
REMARK VINA RESULT:      -6.6      4.052      6.323
REMARK  8 active torsions:
REMARK  status: ('A' for Active; 'I' for Inactive)
REMARK    1  A    between atoms: C_2  and  C_4 
REMARK       I    between atoms: N_5  and  C_6 
REMARK    2  A    between atoms: C_6  and  C_7 
REMARK    3  A    between atoms: C_7  and  C_8 
REMARK    4  A    between atoms: C_7  and  N_20 
REMARK    5  A    between atoms: C_8  and  C_9 
REMARK    6  A    between atoms: C_12  and  O_13 
REMARK    7  A    between atoms: O_13  and  P_14 
REMARK    8  A    between atoms: P_14  and  O_16 
ROOT
HETATM    1  C           1     -22.334 -10.805  -0.338  0.00  0.00     0.279 C 
ENDROOT
BRANCH   1   2
HETATM    2  C           1     -21.512 -11.578   0.663  0.00  0.00     0.251 C 
HETATM    3  N           1     -21.768 -12.906   0.879  0.00  0.00    -0.336 N 
HETATM    4  C           1     -21.090 -14.051   0.279  0.00  0.00     0.188 C 
HETATM    5  C           1     -22.779 -13.485   1.759  0.00  0.00     0.127 C 
HETATM    6  C           1     -20.954 -15.034   1.429  0.00  0.00     0.038 C 
HETATM    7  C           1     -22.069 -14.665   2.401  0.00  0.00     0.022 C 
HETATM    8  O           1     -20.629 -11.026   1.274  0.00  0.00    -0.271 OA
BRANCH   4   9
HETATM    9  C           1     -21.917 -14.640  -0.838  0.00  0.00     0.196 C 
HETATM   10  O           1     -22.339 -13.905  -1.757  0.00  0.00    -0.646 OA
HETATM   11  O           1     -22.179 -15.863  -0.844  0.00  0.00    -0.646 OA
ENDBRANCH   4   9
ENDBRANCH   1   2
BRANCH   1  12
HETATM   12  C           1     -22.465  -9.358   0.120  0.00  0.00     0.081 C 
BRANCH  12  13
HETATM   13  C           1     -22.061  -8.443  -0.995  0.00  0.00    -0.056 A 
HETATM   14  C           1     -21.319  -8.997  -2.204  0.00  0.00     0.010 A 
HETATM   15  C           1     -20.908  -8.067  -3.338  0.00  0.00     0.038 A 
HETATM   16  C           1     -21.239  -6.582  -3.262  0.00  0.00     0.081 A 
HETATM   17  C           1     -21.981  -6.028  -2.052  0.00  0.00     0.038 A 
HETATM   18  C           1     -22.391  -6.959  -0.919  0.00  0.00     0.010 A 
BRANCH  16  19
HETATM   19  O           1     -20.874  -5.754  -4.270  0.00  0.00    -0.247 OA
BRANCH  19  20
HETATM   20  P           1     -21.664  -5.871  -5.673  0.00  0.00     0.411 P 
HETATM   21  O           1     -21.464  -4.632  -6.457  0.00  0.00    -0.624 OA
HETATM   22  O           1     -23.108  -6.061  -5.411  0.00  0.00    -0.624 OA
BRANCH  20  23
HETATM   23  O           1     -21.095  -7.133  -6.505  0.00  0.00    -0.300 OA
HETATM   24  H           1     -20.771  -6.767  -7.311  0.00  0.00     0.223 HD
ENDBRANCH  20  23
ENDBRANCH  19  20
ENDBRANCH  16  19
ENDBRANCH  12  13
ENDBRANCH   1  12
BRANCH   1  25
HETATM   25  N           1     -23.699 -11.420  -0.445  0.00  0.00    -0.066 N 
HETATM   26  H           1     -24.150 -11.432   0.497  0.00  0.00     0.275 HD
HETATM   27  H           1     -24.283 -10.857  -1.103  0.00  0.00     0.275 HD
HETATM   28  H           1     -23.613 -12.398  -0.804  0.00  0.00     0.275 HD
ENDBRANCH   1  25
TORSDOF 8
ENDMDL
MODEL 8
REMARK VINA RESULT:      -6.3      3.663      5.599
REMARK  8 active torsions:
REMARK  status: ('A' for Active; 'I' for Inactive)
REMARK    1  A    between atoms: C_2  and  C_4 
REMARK       I    between atoms: N_5  and  C_6 
REMARK    2  A    between atoms: C_6  and  C_7 
REMARK    3  A    between atoms: C_7  and  C_8 
REMARK    4  A    between atoms: C_7  and  N_20 
REMARK    5  A    between atoms: C_8  and  C_9 
REMARK    6  A    between atoms: C_12  and  O_13 
REMARK    7  A    between atoms: O_13  and  P_14 
REMARK    8  A    between atoms: P_14  and  O_16 
ROOT
HETATM    1  C           1     -20.202 -11.043  -1.951  0.00  0.00     0.279 C 
ENDROOT
BRANCH   1   2
HETATM    2  C           1     -18.863 -11.425  -1.369  0.00  0.00     0.251 C 
HETATM    3  N           1     -17.762 -11.501  -2.179  0.00  0.00    -0.336 N 
HETATM    4  C           1     -16.745 -10.476  -2.397  0.00  0.00     0.188 C 
HETATM    5  C           1     -17.348 -12.626  -3.013  0.00  0.00     0.127 C 
HETATM    6  C           1     -15.444 -11.259  -2.428  0.00  0.00     0.038 C 
HETATM    7  C           1     -15.840 -12.672  -2.839  0.00  0.00     0.022 C 
HETATM    8  O           1     -18.763 -11.664  -0.190  0.00  0.00    -0.271 OA
BRANCH   4   9
HETATM    9  C           1     -16.975  -9.762  -3.707  0.00  0.00     0.196 C 
HETATM   10  O           1     -16.091  -9.778  -4.590  0.00  0.00    -0.646 OA
HETATM   11  O           1     -18.050  -9.157  -3.909  0.00  0.00    -0.646 OA
ENDBRANCH   4   9
ENDBRANCH   1   2
BRANCH   1  12
HETATM   12  C           1     -20.716  -9.786  -1.260  0.00  0.00     0.081 C 
BRANCH  12  13
HETATM   13  C           1     -21.126  -8.782  -2.293  0.00  0.00    -0.056 A 
HETATM   14  C           1     -21.291  -7.317  -1.909  0.00  0.00     0.010 A 
HETATM   15  C           1     -21.707  -6.296  -2.959  0.00  0.00     0.038 A 
HETATM   16  C           1     -21.959  -6.740  -4.394  0.00  0.00     0.081 A 
HETATM   17  C           1     -21.795  -8.205  -4.779  0.00  0.00     0.038 A 
HETATM   18  C           1     -21.378  -9.225  -3.728  0.00  0.00     0.010 A 
BRANCH  16  19
HETATM   19  O           1     -22.330  -5.833  -5.330  0.00  0.00    -0.247 OA
BRANCH  19  20
HETATM   20  P           1     -21.194  -5.261  -6.325  0.00  0.00     0.411 P 
HETATM   21  O           1     -21.755  -4.150  -7.127  0.00  0.00    -0.624 OA
HETATM   22  O           1     -20.741  -6.342  -7.228  0.00  0.00    -0.624 OA
BRANCH  20  23
HETATM   23  O           1     -19.943  -4.721  -5.458  0.00  0.00    -0.300 OA
HETATM   24  H           1     -20.244  -4.729  -4.566  0.00  0.00     0.223 HD
ENDBRANCH  20  23
ENDBRANCH  19  20
ENDBRANCH  16  19
ENDBRANCH  12  13
ENDBRANCH   1  12
BRANCH   1  25
HETATM   25  N           1     -21.177 -12.163  -1.738  0.00  0.00    -0.066 N 
HETATM   26  H           1     -20.679 -13.078  -1.816  0.00  0.00     0.275 HD
HETATM   27  H           1     -21.602 -12.078  -0.788  0.00  0.00     0.275 HD
HETATM   28  H           1     -21.929 -12.113  -2.463  0.00  0.00     0.275 HD
ENDBRANCH   1  25
TORSDOF 8
ENDMDL
MODEL 9
REMARK VINA RESULT:      -6.3      5.876      7.436
REMARK  8 active torsions:
REMARK  status: ('A' for Active; 'I' for Inactive)
REMARK    1  A    between atoms: C_2  and  C_4 
REMARK       I    between atoms: N_5  and  C_6 
REMARK    2  A    between atoms: C_6  and  C_7 
REMARK    3  A    between atoms: C_7  and  C_8 
REMARK    4  A    between atoms: C_7  and  N_20 
REMARK    5  A    between atoms: C_8  and  C_9 
REMARK    6  A    between atoms: C_12  and  O_13 
REMARK    7  A    between atoms: O_13  and  P_14 
REMARK    8  A    between atoms: P_14  and  O_16 
ROOT
HETATM    1  C           1     -20.904  -9.179  -3.773  0.00  0.00     0.279 C 
ENDROOT
BRANCH   1   2
HETATM    2  C           1     -21.726 -10.215  -3.047  0.00  0.00     0.251 C 
HETATM    3  N           1     -21.775 -10.214  -1.679  0.00  0.00    -0.336 N 
HETATM    4  C           1     -22.799  -9.617  -0.826  0.00  0.00     0.188 C 
HETATM    5  C           1     -20.814 -10.809  -0.754  0.00  0.00     0.127 C 
HETATM    6  C           1     -22.992 -10.642   0.278  0.00  0.00     0.038 C 
HETATM    7  C           1     -21.684 -11.423   0.329  0.00  0.00     0.022 C 
HETATM    8  O           1     -22.341 -11.045  -3.672  0.00  0.00    -0.271 OA
BRANCH   4   9
HETATM    9  C           1     -22.325  -8.300  -0.260  0.00  0.00     0.196 C 
HETATM   10  O           1     -22.157  -7.320  -1.017  0.00  0.00    -0.646 OA
HETATM   11  O           1     -22.101  -8.190   0.965  0.00  0.00    -0.646 OA
ENDBRANCH   4   9
ENDBRANCH   1   2
BRANCH   1  12
HETATM   12  C           1     -19.696  -8.803  -2.926  0.00  0.00     0.081 C 
BRANCH  12  13
HETATM   13  C           1     -18.447  -9.288  -3.594  0.00  0.00    -0.056 A 
HETATM   14  C           1     -17.193  -9.548  -2.771  0.00  0.00     0.010 A 
HETATM   15  C           1     -15.923 -10.041  -3.451  0.00  0.00     0.038 A 
HETATM   16  C           1     -15.907 -10.275  -4.956  0.00  0.00     0.081 A 
HETATM   17  C           1     -17.162 -10.016  -5.780  0.00  0.00     0.038 A 
HETATM   18  C           1     -18.432  -9.522  -5.099  0.00  0.00     0.010 A 
BRANCH  16  19
HETATM   19  O           1     -14.778 -10.714  -5.562  0.00  0.00    -0.247 OA
BRANCH  19  20
HETATM   20  P           1     -14.340 -12.251  -5.330  0.00  0.00     0.411 P 
HETATM   21  O           1     -15.544 -13.112  -5.321  0.00  0.00    -0.624 OA
HETATM   22  O           1     -13.638 -12.373  -4.033  0.00  0.00    -0.624 OA
BRANCH  20  23
HETATM   23  O           1     -13.356 -12.715  -6.523  0.00  0.00    -0.300 OA
HETATM   24  H           1     -12.509 -12.376  -6.286  0.00  0.00     0.223 HD
ENDBRANCH  20  23
ENDBRANCH  19  20
ENDBRANCH  16  19
ENDBRANCH  12  13
ENDBRANCH   1  12
BRANCH   1  25
HETATM   25  N           1     -21.743  -7.959  -4.017  0.00  0.00    -0.066 N 
HETATM   26  H           1     -21.192  -7.262  -4.569  0.00  0.00     0.275 HD
HETATM   27  H           1     -22.599  -8.226  -4.551  0.00  0.00     0.275 HD
HETATM   28  H           1     -22.019  -7.537  -3.102  0.00  0.00     0.275 HD
ENDBRANCH   1  25
TORSDOF 8
ENDMDL
