MODEL 1
REMARK VINA RESULT:      -7.3      0.000      0.000
REMARK  12 active torsions:
REMARK  status: ('A' for Active; 'I' for Inactive)
REMARK    1  A    between atoms: C_1  and  C_22 
REMARK    2  A    between atoms: C_1  and  C_10 
REMARK    3  A    between atoms: C_2  and  O_25 
REMARK    4  A    between atoms: N_3  and  C_10 
REMARK    5  A    between atoms: C_6  and  C_20 
REMARK    6  A    between atoms: C_6  and  C_24 
REMARK    7  A    between atoms: C_8  and  C_24 
REMARK    8  A    between atoms: C_9  and  C_13 
REMARK    9  A    between atoms: C_9  and  C_23 
REMARK   10  A    between atoms: C_9  and  N_18 
REMARK       I    between atoms: C_13  and  N_15 
REMARK   11  A    between atoms: N_15  and  C_24 
REMARK   12  A    between atoms: C_22  and  C_23 
ROOT
HETATM    1  C           1     -21.328  -6.271  -4.440  0.00  0.00     0.249 C 
HETATM    2  O           1     -21.630  -7.305  -4.987  0.00  0.00    -0.271 OA
HETATM    3  N           1     -21.012  -5.169  -5.187  0.00  0.00    -0.344 N 
HETATM    4  H           1     -20.759  -4.303  -4.728  0.00  0.00     0.163 HD
ENDROOT
BRANCH   1   5
HETATM    5  C           1     -21.297  -6.196  -2.933  0.00  0.00     0.274 C 
BRANCH   5   6
HETATM    6  C           1     -20.844  -7.536  -2.367  0.00  0.00     0.042 C 
BRANCH   6   7
HETATM    7  C           1     -21.427  -7.723  -0.973  0.00  0.00     0.004 C 
BRANCH   7   8
HETATM    8  C           1     -21.722  -9.199  -0.738  0.00  0.00     0.027 C 
BRANCH   8   9
HETATM    9  C           1     -23.080  -9.346  -0.067  0.00  0.00     0.229 C 
BRANCH   9  10
HETATM   10  N           1     -23.466  -8.045   0.573  0.00  0.00    -0.079 N 
HETATM   11  H           1     -22.763  -7.312   0.324  0.00  0.00     0.274 HD
HETATM   12  H           1     -24.408  -7.754   0.230  0.00  0.00     0.274 HD
HETATM   13  H           1     -23.492  -8.162   1.611  0.00  0.00     0.274 HD
ENDBRANCH   9  10
ENDBRANCH   8   9
ENDBRANCH   7   8
ENDBRANCH   6   7
ENDBRANCH   5   6
BRANCH   5  14
HETATM   14  N           1     -22.670  -5.877  -2.421  0.00  0.00    -0.067 N 
HETATM   15  H           1     -23.114  -5.159  -3.038  0.00  0.00     0.275 HD
HETATM   16  H           1     -23.252  -6.746  -2.424  0.00  0.00     0.275 HD
HETATM   17  H           1     -22.602  -5.506  -1.447  0.00  0.00     0.275 HD
ENDBRANCH   5  14
ENDBRANCH   1   5
BRANCH   3  18
HETATM   18  C           1     -21.042  -5.240  -6.634  0.00  0.00     0.189 C 
BRANCH  18  19
HETATM   19  C           1     -21.539  -3.915  -7.198  0.00  0.00     0.074 C 
BRANCH  19  20
HETATM   20  C           1     -22.096  -4.134  -8.570  0.00  0.00    -0.056 A 
HETATM   21  C           1     -23.465  -4.344  -8.741  0.00  0.00     0.010 A 
HETATM   22  C           1     -23.983  -4.548 -10.020  0.00  0.00     0.037 A 
HETATM   23  C           1     -23.134  -4.542 -11.127  0.00  0.00     0.065 A 
HETATM   24  C           1     -21.767  -4.330 -10.955  0.00  0.00     0.037 A 
HETATM   25  C           1     -21.247  -4.127  -9.676  0.00  0.00     0.010 A 
BRANCH  23  26
HETATM   26  O           1     -23.638  -4.739 -12.369  0.00  0.00    -0.361 OA
HETATM   27  H           1     -24.383  -5.359 -12.296  0.00  0.00     0.217 HD
ENDBRANCH  23  26
ENDBRANCH  19  20
ENDBRANCH  18  19
BRANCH  18  28
HETATM   28  C           1     -19.652  -5.518  -7.152  0.00  0.00     0.197 C 
HETATM   29  O           1     -19.312  -6.688  -7.432  0.00  0.00    -0.646 OA
HETATM   30  O           1     -18.841  -4.579  -7.300  0.00  0.00    -0.646 OA
ENDBRANCH  18  28
ENDBRANCH   3  18
TORSDOF 12
ENDMDL
MODEL 2
REMARK VINA RESULT:      -6.9     14.086     17.487
REMARK  12 active torsions:
REMARK  status: ('A' for Active; 'I' for Inactive)
REMARK    1  A    between atoms: C_1  and  C_22 
REMARK    2  A    between atoms: C_1  and  C_10 
REMARK    3  A    between atoms: C_2  and  O_25 
REMARK    4  A    between atoms: N_3  and  C_10 
REMARK    5  A    between atoms: C_6  and  C_20 
REMARK    6  A    between atoms: C_6  and  C_24 
REMARK    7  A    between atoms: C_8  and  C_24 
REMARK    8  A    between atoms: C_9  and  C_13 
REMARK    9  A    between atoms: C_9  and  C_23 
REMARK   10  A    between atoms: C_9  and  N_18 
REMARK       I    between atoms: C_13  and  N_15 
REMARK   11  A    between atoms: N_15  and  C_24 
REMARK   12  A    between atoms: C_22  and  C_23 
ROOT
HETATM    1  C           1     -37.002  -0.283 -14.079  0.00  0.00     0.249 C 
HETATM    2  O           1     -37.948  -0.995 -13.840  0.00  0.00    -0.271 OA
HETATM    3  N           1     -36.006  -0.134 -13.153  0.00  0.00    -0.344 N 
HETATM    4  H           1     -35.213   0.462 -13.353  0.00  0.00     0.163 HD
ENDROOT
BRANCH   1   5
HETATM    5  C           1     -36.918   0.443 -15.400  0.00  0.00     0.274 C 
BRANCH   5   6
HETATM    6  C           1     -36.641  -0.559 -16.513  0.00  0.00     0.042 C 
BRANCH   6   7
HETATM    7  C           1     -35.179  -0.980 -16.466  0.00  0.00     0.004 C 
BRANCH   7   8
HETATM    8  C           1     -35.086  -2.501 -16.486  0.00  0.00     0.027 C 
BRANCH   8   9
HETATM    9  C           1     -33.822  -2.924 -17.222  0.00  0.00     0.229 C 
BRANCH   9  10
HETATM   10  N           1     -33.209  -4.103 -16.526  0.00  0.00    -0.079 N 
HETATM   11  H           1     -33.964  -4.757 -16.218  0.00  0.00     0.274 HD
HETATM   12  H           1     -32.567  -4.599 -17.184  0.00  0.00     0.274 HD
HETATM   13  H           1     -32.671  -3.775 -15.693  0.00  0.00     0.274 HD
ENDBRANCH   9  10
ENDBRANCH   8   9
ENDBRANCH   7   8
ENDBRANCH   6   7
ENDBRANCH   5   6
BRANCH   5  14
HETATM   14  N           1     -35.807   1.449 -15.347  0.00  0.00    -0.067 N 
HETATM   15  H           1     -35.972   2.188 -16.069  0.00  0.00     0.275 HD
HETATM   16  H           1     -35.783   1.889 -14.399  0.00  0.00     0.275 HD
HETATM   17  H           1     -34.897   0.974 -15.536  0.00  0.00     0.275 HD
ENDBRANCH   5  14
ENDBRANCH   1   5
BRANCH   3  18
HETATM   18  C           1     -36.085  -0.831 -11.884  0.00  0.00     0.189 C 
BRANCH  18  19
HETATM   19  C           1     -34.678  -1.102 -11.365  0.00  0.00     0.074 C 
BRANCH  19  20
HETATM   20  C           1     -34.438  -2.579 -11.324  0.00  0.00    -0.056 A 
HETATM   21  C           1     -33.179  -3.090 -11.643  0.00  0.00     0.010 A 
HETATM   22  C           1     -32.956  -4.467 -11.605  0.00  0.00     0.037 A 
HETATM   23  C           1     -33.991  -5.331 -11.247  0.00  0.00     0.065 A 
HETATM   24  C           1     -35.247  -4.820 -10.927  0.00  0.00     0.037 A 
HETATM   25  C           1     -35.472  -3.443 -10.965  0.00  0.00     0.010 A 
BRANCH  23  26
HETATM   26  O           1     -33.773  -6.668 -11.208  0.00  0.00    -0.361 OA
HETATM   27  H           1     -34.172  -7.014 -10.393  0.00  0.00     0.217 HD
ENDBRANCH  23  26
ENDBRANCH  19  20
ENDBRANCH  18  19
BRANCH  18  28
HETATM   28  C           1     -36.833   0.021 -10.889  0.00  0.00     0.197 C 
HETATM   29  O           1     -38.075  -0.082 -10.786  0.00  0.00    -0.646 OA
HETATM   30  O           1     -36.212   0.832 -10.167  0.00  0.00    -0.646 OA
ENDBRANCH  18  28
ENDBRANCH   3  18
TORSDOF 12
ENDMDL
MODEL 3
REMARK VINA RESULT:      -6.8     11.984     14.481
REMARK  12 active torsions:
REMARK  status: ('A' for Active; 'I' for Inactive)
REMARK    1  A    between atoms: C_1  and  C_22 
REMARK    2  A    between atoms: C_1  and  C_10 
REMARK    3  A    between atoms: C_2  and  O_25 
REMARK    4  A    between atoms: N_3  and  C_10 
REMARK    5  A    between atoms: C_6  and  C_20 
REMARK    6  A    between atoms: C_6  and  C_24 
REMARK    7  A    between atoms: C_8  and  C_24 
REMARK    8  A    between atoms: C_9  and  C_13 
REMARK    9  A    between atoms: C_9  and  C_23 
REMARK   10  A    between atoms: C_9  and  N_18 
REMARK       I    between atoms: C_13  and  N_15 
REMARK   11  A    between atoms: N_15  and  C_24 
REMARK   12  A    between atoms: C_22  and  C_23 
ROOT
HETATM    1  C           1     -25.445  -6.434 -16.894  0.00  0.00     0.249 C 
HETATM    2  O           1     -25.387  -5.550 -16.074  0.00  0.00    -0.271 OA
HETATM    3  N           1     -26.661  -6.886 -17.328  0.00  0.00    -0.344 N 
HETATM    4  H           1     -26.710  -7.627 -18.016  0.00  0.00     0.163 HD
ENDROOT
BRANCH   1   5
HETATM    5  C           1     -24.176  -7.042 -17.439  0.00  0.00     0.274 C 
BRANCH   5   6
HETATM    6  C           1     -24.420  -7.541 -18.857  0.00  0.00     0.042 C 
BRANCH   6   7
HETATM    7  C           1     -24.543  -6.353 -19.801  0.00  0.00     0.004 C 
BRANCH   7   8
HETATM    8  C           1     -25.642  -6.624 -20.820  0.00  0.00     0.027 C 
BRANCH   8   9
HETATM    9  C           1     -25.753  -8.122 -21.063  0.00  0.00     0.229 C 
BRANCH   9  10
HETATM   10  N           1     -27.198  -8.527 -21.044  0.00  0.00    -0.079 N 
HETATM   11  H           1     -27.581  -8.407 -20.078  0.00  0.00     0.274 HD
HETATM   12  H           1     -27.736  -7.927 -21.708  0.00  0.00     0.274 HD
HETATM   13  H           1     -27.283  -9.529 -21.330  0.00  0.00     0.274 HD
ENDBRANCH   9  10
ENDBRANCH   8   9
ENDBRANCH   7   8
ENDBRANCH   6   7
ENDBRANCH   5   6
BRANCH   5  14
HETATM   14  N           1     -23.760  -8.192 -16.570  0.00  0.00    -0.067 N 
HETATM   15  H           1     -24.311  -8.175 -15.682  0.00  0.00     0.275 HD
HETATM   16  H           1     -23.940  -9.090 -17.074  0.00  0.00     0.275 HD
HETATM   17  H           1     -22.742  -8.113 -16.351  0.00  0.00     0.275 HD
ENDBRANCH   5  14
ENDBRANCH   1   5
BRANCH   3  18
HETATM   18  C           1     -27.881  -6.302 -16.806  0.00  0.00     0.189 C 
BRANCH  18  19
HETATM   19  C           1     -29.055  -6.705 -17.689  0.00  0.00     0.074 C 
BRANCH  19  20
HETATM   20  C           1     -30.137  -5.675 -17.580  0.00  0.00    -0.056 A 
HETATM   21  C           1     -29.870  -4.345 -17.907  0.00  0.00     0.010 A 
HETATM   22  C           1     -30.878  -3.386 -17.805  0.00  0.00     0.037 A 
HETATM   23  C           1     -32.153  -3.758 -17.376  0.00  0.00     0.065 A 
HETATM   24  C           1     -32.419  -5.087 -17.051  0.00  0.00     0.037 A 
HETATM   25  C           1     -31.411  -6.046 -17.152  0.00  0.00     0.010 A 
BRANCH  23  26
HETATM   26  O           1     -33.132  -2.826 -17.278  0.00  0.00    -0.361 OA
HETATM   27  H           1     -33.065  -2.238 -18.049  0.00  0.00     0.217 HD
ENDBRANCH  23  26
ENDBRANCH  19  20
ENDBRANCH  18  19
BRANCH  18  28
HETATM   28  C           1     -28.114  -6.801 -15.401  0.00  0.00     0.197 C 
HETATM   29  O           1     -27.635  -7.898 -15.039  0.00  0.00    -0.646 OA
HETATM   30  O           1     -28.785  -6.118 -14.597  0.00  0.00    -0.646 OA
ENDBRANCH  18  28
ENDBRANCH   3  18
TORSDOF 12
ENDMDL
MODEL 4
REMARK VINA RESULT:      -6.7      2.943      7.847
REMARK  12 active torsions:
REMARK  status: ('A' for Active; 'I' for Inactive)
REMARK    1  A    between atoms: C_1  and  C_22 
REMARK    2  A    between atoms: C_1  and  C_10 
REMARK    3  A    between atoms: C_2  and  O_25 
REMARK    4  A    between atoms: N_3  and  C_10 
REMARK    5  A    between atoms: C_6  and  C_20 
REMARK    6  A    between atoms: C_6  and  C_24 
REMARK    7  A    between atoms: C_8  and  C_24 
REMARK    8  A    between atoms: C_9  and  C_13 
REMARK    9  A    between atoms: C_9  and  C_23 
REMARK   10  A    between atoms: C_9  and  N_18 
REMARK       I    between atoms: C_13  and  N_15 
REMARK   11  A    between atoms: N_15  and  C_24 
REMARK   12  A    between atoms: C_22  and  C_23 
ROOT
HETATM    1  C           1     -20.352  -5.339  -6.052  0.00  0.00     0.249 C 
HETATM    2  O           1     -20.263  -4.799  -4.975  0.00  0.00    -0.271 OA
HETATM    3  N           1     -20.307  -6.704  -6.140  0.00  0.00    -0.344 N 
HETATM    4  H           1     -20.382  -7.156  -7.042  0.00  0.00     0.163 HD
ENDROOT
BRANCH   1   5
HETATM    5  C           1     -20.512  -4.508  -7.302  0.00  0.00     0.274 C 
BRANCH   5   6
HETATM    6  C           1     -21.994  -4.314  -7.596  0.00  0.00     0.042 C 
BRANCH   6   7
HETATM    7  C           1     -22.278  -4.680  -9.046  0.00  0.00     0.004 C 
BRANCH   7   8
HETATM    8  C           1     -23.080  -3.566  -9.706  0.00  0.00     0.027 C 
BRANCH   8   9
HETATM    9  C           1     -24.342  -4.147 -10.328  0.00  0.00     0.229 C 
BRANCH   9  10
HETATM   10  N           1     -25.548  -3.541  -9.671  0.00  0.00    -0.079 N 
HETATM   11  H           1     -25.250  -2.747  -9.060  0.00  0.00     0.274 HD
HETATM   12  H           1     -26.203  -3.190 -10.404  0.00  0.00     0.274 HD
HETATM   13  H           1     -26.028  -4.266  -9.091  0.00  0.00     0.274 HD
ENDBRANCH   9  10
ENDBRANCH   8   9
ENDBRANCH   7   8
ENDBRANCH   6   7
ENDBRANCH   5   6
BRANCH   5  14
HETATM   14  N           1     -19.863  -5.212  -8.456  0.00  0.00    -0.067 N 
HETATM   15  H           1     -18.932  -5.584  -8.158  0.00  0.00     0.275 HD
HETATM   16  H           1     -20.471  -6.003  -8.767  0.00  0.00     0.275 HD
HETATM   17  H           1     -19.733  -4.540  -9.245  0.00  0.00     0.275 HD
ENDBRANCH   5  14
ENDBRANCH   1   5
BRANCH   3  18
HETATM   18  C           1     -20.155  -7.503  -4.940  0.00  0.00     0.189 C 
BRANCH  18  19
HETATM   19  C           1     -21.488  -8.150  -4.587  0.00  0.00     0.074 C 
BRANCH  19  20
HETATM   20  C           1     -21.720  -8.040  -3.112  0.00  0.00    -0.056 A 
HETATM   21  C           1     -21.701  -9.185  -2.316  0.00  0.00     0.010 A 
HETATM   22  C           1     -21.918  -9.082  -0.941  0.00  0.00     0.037 A 
HETATM   23  C           1     -22.154  -7.834  -0.364  0.00  0.00     0.065 A 
HETATM   24  C           1     -22.172  -6.690  -1.161  0.00  0.00     0.037 A 
HETATM   25  C           1     -21.955  -6.792  -2.535  0.00  0.00     0.010 A 
BRANCH  23  26
HETATM   26  O           1     -22.363  -7.734   0.971  0.00  0.00    -0.361 OA
HETATM   27  H           1     -23.126  -7.150   1.112  0.00  0.00     0.217 HD
ENDBRANCH  23  26
ENDBRANCH  19  20
ENDBRANCH  18  19
BRANCH  18  28
HETATM   28  C           1     -19.123  -8.578  -5.182  0.00  0.00     0.197 C 
HETATM   29  O           1     -18.791  -9.346  -4.252  0.00  0.00    -0.646 OA
HETATM   30  O           1     -18.600  -8.701  -6.311  0.00  0.00    -0.646 OA
ENDBRANCH  18  28
ENDBRANCH   3  18
TORSDOF 12
ENDMDL
MODEL 5
REMARK VINA RESULT:      -6.7     13.433     15.921
REMARK  12 active torsions:
REMARK  status: ('A' for Active; 'I' for Inactive)
REMARK    1  A    between atoms: C_1  and  C_22 
REMARK    2  A    between atoms: C_1  and  C_10 
REMARK    3  A    between atoms: C_2  and  O_25 
REMARK    4  A    between atoms: N_3  and  C_10 
REMARK    5  A    between atoms: C_6  and  C_20 
REMARK    6  A    between atoms: C_6  and  C_24 
REMARK    7  A    between atoms: C_8  and  C_24 
REMARK    8  A    between atoms: C_9  and  C_13 
REMARK    9  A    between atoms: C_9  and  C_23 
REMARK   10  A    between atoms: C_9  and  N_18 
REMARK       I    between atoms: C_13  and  N_15 
REMARK   11  A    between atoms: N_15  and  C_24 
REMARK   12  A    between atoms: C_22  and  C_23 
ROOT
HETATM    1  C           1     -34.068  -4.458 -15.376  0.00  0.00     0.249 C 
HETATM    2  O           1     -35.061  -5.135 -15.261  0.00  0.00    -0.271 OA
HETATM    3  N           1     -33.604  -3.737 -14.310  0.00  0.00    -0.344 N 
HETATM    4  H           1     -32.771  -3.170 -14.406  0.00  0.00     0.163 HD
ENDROOT
BRANCH   1   5
HETATM    5  C           1     -33.339  -4.406 -16.697  0.00  0.00     0.274 C 
BRANCH   5   6
HETATM    6  C           1     -31.874  -4.768 -16.482  0.00  0.00     0.042 C 
BRANCH   6   7
HETATM    7  C           1     -30.999  -3.887 -17.362  0.00  0.00     0.004 C 
BRANCH   7   8
HETATM    8  C           1     -29.570  -4.415 -17.351  0.00  0.00     0.027 C 
BRANCH   8   9
HETATM    9  C           1     -28.599  -3.254 -17.199  0.00  0.00     0.229 C 
BRANCH   9  10
HETATM   10  N           1     -29.330  -1.959 -17.402  0.00  0.00    -0.079 N 
HETATM   11  H           1     -29.110  -1.580 -18.351  0.00  0.00     0.274 HD
HETATM   12  H           1     -30.358  -2.126 -17.324  0.00  0.00     0.274 HD
HETATM   13  H           1     -29.030  -1.272 -16.674  0.00  0.00     0.274 HD
ENDBRANCH   9  10
ENDBRANCH   8   9
ENDBRANCH   7   8
ENDBRANCH   6   7
ENDBRANCH   5   6
BRANCH   5  14
HETATM   14  N           1     -33.432  -3.021 -17.265  0.00  0.00    -0.067 N 
HETATM   15  H           1     -34.418  -2.830 -17.556  0.00  0.00     0.275 HD
HETATM   16  H           1     -33.144  -2.328 -16.538  0.00  0.00     0.275 HD
HETATM   17  H           1     -32.802  -2.941 -18.094  0.00  0.00     0.275 HD
ENDBRANCH   5  14
ENDBRANCH   1   5
BRANCH   3  18
HETATM   18  C           1     -34.303  -3.787 -13.041  0.00  0.00     0.189 C 
BRANCH  18  19
HETATM   19  C           1     -33.301  -4.017 -11.917  0.00  0.00     0.074 C 
BRANCH  19  20
HETATM   20  C           1     -33.622  -5.302 -11.219  0.00  0.00    -0.056 A 
HETATM   21  C           1     -32.704  -6.353 -11.234  0.00  0.00     0.010 A 
HETATM   22  C           1     -33.004  -7.550 -10.582  0.00  0.00     0.037 A 
HETATM   23  C           1     -34.221  -7.695  -9.917  0.00  0.00     0.065 A 
HETATM   24  C           1     -35.137  -6.644  -9.901  0.00  0.00     0.037 A 
HETATM   25  C           1     -34.838  -5.447 -10.552  0.00  0.00     0.010 A 
BRANCH  23  26
HETATM   26  O           1     -34.512  -8.857  -9.283  0.00  0.00    -0.361 OA
HETATM   27  H           1     -34.261  -8.761  -8.350  0.00  0.00     0.217 HD
ENDBRANCH  23  26
ENDBRANCH  19  20
ENDBRANCH  18  19
BRANCH  18  28
HETATM   28  C           1     -35.022  -2.479 -12.813  0.00  0.00     0.197 C 
HETATM   29  O           1     -34.959  -1.574 -13.672  0.00  0.00    -0.646 OA
HETATM   30  O           1     -35.681  -2.302 -11.766  0.00  0.00    -0.646 OA
ENDBRANCH  18  28
ENDBRANCH   3  18
TORSDOF 12
ENDMDL
MODEL 6
REMARK VINA RESULT:      -6.7      3.001      8.241
REMARK  12 active torsions:
REMARK  status: ('A' for Active; 'I' for Inactive)
REMARK    1  A    between atoms: C_1  and  C_22 
REMARK    2  A    between atoms: C_1  and  C_10 
REMARK    3  A    between atoms: C_2  and  O_25 
REMARK    4  A    between atoms: N_3  and  C_10 
REMARK    5  A    between atoms: C_6  and  C_20 
REMARK    6  A    between atoms: C_6  and  C_24 
REMARK    7  A    between atoms: C_8  and  C_24 
REMARK    8  A    between atoms: C_9  and  C_13 
REMARK    9  A    between atoms: C_9  and  C_23 
REMARK   10  A    between atoms: C_9  and  N_18 
REMARK       I    between atoms: C_13  and  N_15 
REMARK   11  A    between atoms: N_15  and  C_24 
REMARK   12  A    between atoms: C_22  and  C_23 
ROOT
HETATM    1  C           1     -20.906  -6.161  -6.131  0.00  0.00     0.249 C 
HETATM    2  O           1     -20.808  -5.449  -5.160  0.00  0.00    -0.271 OA
HETATM    3  N           1     -20.659  -7.503  -6.023  0.00  0.00    -0.344 N 
HETATM    4  H           1     -20.741  -8.099  -6.836  0.00  0.00     0.163 HD
ENDROOT
BRANCH   1   5
HETATM    5  C           1     -21.299  -5.571  -7.463  0.00  0.00     0.274 C 
BRANCH   5   6
HETATM    6  C           1     -20.045  -5.212  -8.249  0.00  0.00     0.042 C 
BRANCH   6   7
HETATM    7  C           1     -20.324  -3.999  -9.126  0.00  0.00     0.004 C 
BRANCH   7   8
HETATM    8  C           1     -20.357  -4.424 -10.589  0.00  0.00     0.027 C 
BRANCH   8   9
HETATM    9  C           1     -21.468  -3.676 -11.312  0.00  0.00     0.229 C 
BRANCH   9  10
HETATM   10  N           1     -22.264  -4.641 -12.140  0.00  0.00    -0.079 N 
HETATM   11  H           1     -22.132  -4.422 -13.154  0.00  0.00     0.274 HD
HETATM   12  H           1     -21.938  -5.614 -11.950  0.00  0.00     0.274 HD
HETATM   13  H           1     -23.277  -4.557 -11.895  0.00  0.00     0.274 HD
ENDBRANCH   9  10
ENDBRANCH   8   9
ENDBRANCH   7   8
ENDBRANCH   6   7
ENDBRANCH   5   6
BRANCH   5  14
HETATM   14  N           1     -22.118  -4.334  -7.238  0.00  0.00    -0.067 N 
HETATM   15  H           1     -22.654  -4.429  -6.345  0.00  0.00     0.275 HD
HETATM   16  H           1     -21.485  -3.505  -7.178  0.00  0.00     0.275 HD
HETATM   17  H           1     -22.785  -4.209  -8.032  0.00  0.00     0.275 HD
ENDBRANCH   5  14
ENDBRANCH   1   5
BRANCH   3  18
HETATM   18  C           1     -20.282  -8.071  -4.744  0.00  0.00     0.189 C 
BRANCH  18  19
HETATM   19  C           1     -21.394  -8.985  -4.246  0.00  0.00     0.074 C 
BRANCH  19  20
HETATM   20  C           1     -21.678  -8.687  -2.807  0.00  0.00    -0.056 A 
HETATM   21  C           1     -21.926  -9.730  -1.914  0.00  0.00     0.010 A 
HETATM   22  C           1     -22.191  -9.451  -0.573  0.00  0.00     0.037 A 
HETATM   23  C           1     -22.207  -8.131  -0.125  0.00  0.00     0.065 A 
HETATM   24  C           1     -21.958  -7.089  -1.017  0.00  0.00     0.037 A 
HETATM   25  C           1     -21.694  -7.366  -2.359  0.00  0.00     0.010 A 
BRANCH  23  26
HETATM   26  O           1     -22.463  -7.861   1.178  0.00  0.00    -0.361 OA
HETATM   27  H           1     -21.937  -8.472   1.720  0.00  0.00     0.217 HD
ENDBRANCH  23  26
ENDBRANCH  19  20
ENDBRANCH  18  19
BRANCH  18  28
HETATM   28  C           1     -19.010  -8.867  -4.904  0.00  0.00     0.197 C 
HETATM   29  O           1     -18.583  -9.141  -6.047  0.00  0.00    -0.646 OA
HETATM   30  O           1     -18.382  -9.253  -3.894  0.00  0.00    -0.646 OA
ENDBRANCH  18  28
ENDBRANCH   3  18
TORSDOF 12
ENDMDL
MODEL 7
REMARK VINA RESULT:      -6.7      1.508      2.070
REMARK  12 active torsions:
REMARK  status: ('A' for Active; 'I' for Inactive)
REMARK    1  A    between atoms: C_1  and  C_22 
REMARK    2  A    between atoms: C_1  and  C_10 
REMARK    3  A    between atoms: C_2  and  O_25 
REMARK    4  A    between atoms: N_3  and  C_10 
REMARK    5  A    between atoms: C_6  and  C_20 
REMARK    6  A    between atoms: C_6  and  C_24 
REMARK    7  A    between atoms: C_8  and  C_24 
REMARK    8  A    between atoms: C_9  and  C_13 
REMARK    9  A    between atoms: C_9  and  C_23 
REMARK   10  A    between atoms: C_9  and  N_18 
REMARK       I    between atoms: C_13  and  N_15 
REMARK   11  A    between atoms: N_15  and  C_24 
REMARK   12  A    between atoms: C_22  and  C_23 
ROOT
HETATM    1  C           1     -21.380  -6.541  -4.498  0.00  0.00     0.249 C 
HETATM    2  O           1     -21.674  -7.543  -5.106  0.00  0.00    -0.271 OA
HETATM    3  N           1     -21.055  -5.398  -5.177  0.00  0.00    -0.344 N 
HETATM    4  H           1     -20.809  -4.559  -4.667  0.00  0.00     0.163 HD
ENDROOT
BRANCH   1   5
HETATM    5  C           1     -21.371  -6.551  -2.989  0.00  0.00     0.274 C 
BRANCH   5   6
HETATM    6  C           1     -21.367  -7.990  -2.490  0.00  0.00     0.042 C 
BRANCH   6   7
HETATM    7  C           1     -20.073  -8.265  -1.736  0.00  0.00     0.004 C 
BRANCH   7   8
HETATM    8  C           1     -19.187  -9.186  -2.565  0.00  0.00     0.027 C 
BRANCH   8   9
HETATM    9  C           1     -20.058 -10.124  -3.389  0.00  0.00     0.229 C 
BRANCH   9  10
HETATM   10  N           1     -19.261 -10.665  -4.540  0.00  0.00    -0.079 N 
HETATM   11  H           1     -18.876  -9.871  -5.101  0.00  0.00     0.274 HD
HETATM   12  H           1     -18.475 -11.247  -4.175  0.00  0.00     0.274 HD
HETATM   13  H           1     -19.879 -11.251  -5.146  0.00  0.00     0.274 HD
ENDBRANCH   9  10
ENDBRANCH   8   9
ENDBRANCH   7   8
ENDBRANCH   6   7
ENDBRANCH   5   6
BRANCH   5  14
HETATM   14  N           1     -22.594  -5.849  -2.477  0.00  0.00    -0.067 N 
HETATM   15  H           1     -22.459  -4.815  -2.552  0.00  0.00     0.275 HD
HETATM   16  H           1     -23.422  -6.134  -3.049  0.00  0.00     0.275 HD
HETATM   17  H           1     -22.753  -6.109  -1.478  0.00  0.00     0.275 HD
ENDBRANCH   5  14
ENDBRANCH   1   5
BRANCH   3  18
HETATM   18  C           1     -21.065  -5.388  -6.626  0.00  0.00     0.189 C 
BRANCH  18  19
HETATM   19  C           1     -21.618  -4.058  -7.121  0.00  0.00     0.074 C 
BRANCH  19  20
HETATM   20  C           1     -22.152  -4.225  -8.509  0.00  0.00    -0.056 A 
HETATM   21  C           1     -23.521  -4.401  -8.714  0.00  0.00     0.010 A 
HETATM   22  C           1     -24.018  -4.557 -10.009  0.00  0.00     0.037 A 
HETATM   23  C           1     -23.146  -4.537 -11.097  0.00  0.00     0.065 A 
HETATM   24  C           1     -21.778  -4.361 -10.892  0.00  0.00     0.037 A 
HETATM   25  C           1     -21.280  -4.205  -9.598  0.00  0.00     0.010 A 
BRANCH  23  26
HETATM   26  O           1     -23.629  -4.688 -12.354  0.00  0.00    -0.361 OA
HETATM   27  H           1     -23.254  -5.505 -12.724  0.00  0.00     0.217 HD
ENDBRANCH  23  26
ENDBRANCH  19  20
ENDBRANCH  18  19
BRANCH  18  28
HETATM   28  C           1     -19.657  -5.569  -7.138  0.00  0.00     0.197 C 
HETATM   29  O           1     -18.907  -4.577  -7.268  0.00  0.00    -0.646 OA
HETATM   30  O           1     -19.240  -6.710  -7.433  0.00  0.00    -0.646 OA
ENDBRANCH  18  28
ENDBRANCH   3  18
TORSDOF 12
ENDMDL
MODEL 8
REMARK VINA RESULT:      -6.5      2.669      7.850
REMARK  12 active torsions:
REMARK  status: ('A' for Active; 'I' for Inactive)
REMARK    1  A    between atoms: C_1  and  C_22 
REMARK    2  A    between atoms: C_1  and  C_10 
REMARK    3  A    between atoms: C_2  and  O_25 
REMARK    4  A    between atoms: N_3  and  C_10 
REMARK    5  A    between atoms: C_6  and  C_20 
REMARK    6  A    between atoms: C_6  and  C_24 
REMARK    7  A    between atoms: C_8  and  C_24 
REMARK    8  A    between atoms: C_9  and  C_13 
REMARK    9  A    between atoms: C_9  and  C_23 
REMARK   10  A    between atoms: C_9  and  N_18 
REMARK       I    between atoms: C_13  and  N_15 
REMARK   11  A    between atoms: N_15  and  C_24 
REMARK   12  A    between atoms: C_22  and  C_23 
ROOT
HETATM    1  C           1     -20.481  -7.320  -5.515  0.00  0.00     0.249 C 
HETATM    2  O           1     -19.526  -7.602  -6.199  0.00  0.00    -0.271 OA
HETATM    3  N           1     -20.745  -8.036  -4.379  0.00  0.00    -0.344 N 
HETATM    4  H           1     -21.544  -7.799  -3.806  0.00  0.00     0.163 HD
ENDROOT
BRANCH   1   5
HETATM    5  C           1     -21.383  -6.178  -5.914  0.00  0.00     0.274 C 
BRANCH   5   6
HETATM    6  C           1     -20.626  -4.862  -5.779  0.00  0.00     0.042 C 
BRANCH   6   7
HETATM    7  C           1     -20.566  -4.169  -7.133  0.00  0.00     0.004 C 
BRANCH   7   8
HETATM    8  C           1     -21.413  -4.940  -8.138  0.00  0.00     0.027 C 
BRANCH   8   9
HETATM    9  C           1     -22.455  -4.010  -8.744  0.00  0.00     0.229 C 
BRANCH   9  10
HETATM   10  N           1     -23.721  -4.087  -7.942  0.00  0.00    -0.079 N 
HETATM   11  H           1     -24.418  -4.679  -8.448  0.00  0.00     0.274 HD
HETATM   12  H           1     -23.516  -4.511  -7.010  0.00  0.00     0.274 HD
HETATM   13  H           1     -24.109  -3.126  -7.812  0.00  0.00     0.274 HD
ENDBRANCH   9  10
ENDBRANCH   8   9
ENDBRANCH   7   8
ENDBRANCH   6   7
ENDBRANCH   5   6
BRANCH   5  14
HETATM   14  N           1     -22.585  -6.155  -5.017  0.00  0.00    -0.067 N 
HETATM   15  H           1     -23.416  -5.822  -5.557  0.00  0.00     0.275 HD
HETATM   16  H           1     -22.768  -7.119  -4.657  0.00  0.00     0.275 HD
HETATM   17  H           1     -22.410  -5.509  -4.215  0.00  0.00     0.275 HD
ENDBRANCH   5  14
ENDBRANCH   1   5
BRANCH   3  18
HETATM   18  C           1     -19.878  -9.133  -3.995  0.00  0.00     0.189 C 
BRANCH  18  19
HETATM   19  C           1     -19.402  -8.926  -2.563  0.00  0.00     0.074 C 
BRANCH  19  20
HETATM   20  C           1     -20.571  -8.584  -1.693  0.00  0.00    -0.056 A 
HETATM   21  C           1     -21.144  -7.314  -1.762  0.00  0.00     0.010 A 
HETATM   22  C           1     -22.234  -6.996  -0.951  0.00  0.00     0.037 A 
HETATM   23  C           1     -22.750  -7.948  -0.071  0.00  0.00     0.065 A 
HETATM   24  C           1     -22.177  -9.217  -0.004  0.00  0.00     0.037 A 
HETATM   25  C           1     -21.087  -9.536  -0.814  0.00  0.00     0.010 A 
BRANCH  23  26
HETATM   26  O           1     -23.809  -7.639   0.716  0.00  0.00    -0.361 OA
HETATM   27  H           1     -24.425  -7.100   0.192  0.00  0.00     0.217 HD
ENDBRANCH  23  26
ENDBRANCH  19  20
ENDBRANCH  18  19
BRANCH  18  28
HETATM   28  C           1     -20.642 -10.431  -4.089  0.00  0.00     0.197 C 
HETATM   29  O           1     -20.066 -11.514  -3.843  0.00  0.00    -0.646 OA
HETATM   30  O           1     -21.849 -10.425  -4.412  0.00  0.00    -0.646 OA
ENDBRANCH  18  28
ENDBRANCH   3  18
TORSDOF 12
ENDMDL
MODEL 9
REMARK VINA RESULT:      -6.3      3.424      8.971
REMARK  12 active torsions:
REMARK  status: ('A' for Active; 'I' for Inactive)
REMARK    1  A    between atoms: C_1  and  C_22 
REMARK    2  A    between atoms: C_1  and  C_10 
REMARK    3  A    between atoms: C_2  and  O_25 
REMARK    4  A    between atoms: N_3  and  C_10 
REMARK    5  A    between atoms: C_6  and  C_20 
REMARK    6  A    between atoms: C_6  and  C_24 
REMARK    7  A    between atoms: C_8  and  C_24 
REMARK    8  A    between atoms: C_9  and  C_13 
REMARK    9  A    between atoms: C_9  and  C_23 
REMARK   10  A    between atoms: C_9  and  N_18 
REMARK       I    between atoms: C_13  and  N_15 
REMARK   11  A    between atoms: N_15  and  C_24 
REMARK   12  A    between atoms: C_22  and  C_23 
ROOT
HETATM    1  C           1     -20.844  -8.369  -3.916  0.00  0.00     0.249 C 
HETATM    2  O           1     -21.858  -8.932  -4.251  0.00  0.00    -0.271 OA
HETATM    3  N           1     -20.667  -7.996  -2.611  0.00  0.00    -0.344 N 
HETATM    4  H           1     -19.817  -7.524  -2.330  0.00  0.00     0.163 HD
ENDROOT
BRANCH   1   5
HETATM    5  C           1     -19.771  -8.076  -4.936  0.00  0.00     0.274 C 
BRANCH   5   6
HETATM    6  C           1     -20.286  -7.043  -5.931  0.00  0.00     0.042 C 
BRANCH   6   7
HETATM    7  C           1     -20.599  -5.745  -5.202  0.00  0.00     0.004 C 
BRANCH   7   8
HETATM    8  C           1     -20.532  -4.581  -6.182  0.00  0.00     0.027 C 
BRANCH   8   9
HETATM    9  C           1     -21.391  -4.891  -7.400  0.00  0.00     0.229 C 
BRANCH   9  10
HETATM   10  N           1     -22.516  -3.902  -7.484  0.00  0.00    -0.079 N 
HETATM   11  H           1     -23.142  -4.153  -8.283  0.00  0.00     0.274 HD
HETATM   12  H           1     -23.062  -3.921  -6.595  0.00  0.00     0.274 HD
HETATM   13  H           1     -22.126  -2.944  -7.636  0.00  0.00     0.274 HD
ENDBRANCH   9  10
ENDBRANCH   8   9
ENDBRANCH   7   8
ENDBRANCH   6   7
ENDBRANCH   5   6
BRANCH   5  14
HETATM   14  N           1     -19.418  -9.338  -5.665  0.00  0.00    -0.067 N 
HETATM   15  H           1     -20.262  -9.699  -6.166  0.00  0.00     0.275 HD
HETATM   16  H           1     -18.661  -9.139  -6.357  0.00  0.00     0.275 HD
HETATM   17  H           1     -19.087 -10.055  -4.981  0.00  0.00     0.275 HD
ENDBRANCH   5  14
ENDBRANCH   1   5
BRANCH   3  18
HETATM   18  C           1     -21.697  -8.277  -1.630  0.00  0.00     0.189 C 
BRANCH  18  19
HETATM   19  C           1     -21.061  -8.886  -0.387  0.00  0.00     0.074 C 
BRANCH  19  20
HETATM   20  C           1     -21.743 -10.178  -0.060  0.00  0.00    -0.056 A 
HETATM   21  C           1     -21.036 -11.200   0.574  0.00  0.00     0.010 A 
HETATM   22  C           1     -21.673 -12.403   0.879  0.00  0.00     0.037 A 
HETATM   23  C           1     -23.016 -12.584   0.550  0.00  0.00     0.065 A 
HETATM   24  C           1     -23.723 -11.562  -0.082  0.00  0.00     0.037 A 
HETATM   25  C           1     -23.087 -10.358  -0.388  0.00  0.00     0.010 A 
BRANCH  23  26
HETATM   26  O           1     -23.635 -13.753   0.847  0.00  0.00    -0.361 OA
HETATM   27  H           1     -22.995 -14.473   0.716  0.00  0.00     0.217 HD
ENDBRANCH  23  26
ENDBRANCH  19  20
ENDBRANCH  18  19
BRANCH  18  28
HETATM   28  C           1     -22.400  -6.995  -1.258  0.00  0.00     0.197 C 
HETATM   29  O           1     -22.428  -6.041  -2.066  0.00  0.00    -0.646 OA
HETATM   30  O           1     -22.954  -6.886  -0.143  0.00  0.00    -0.646 OA
ENDBRANCH  18  28
ENDBRANCH   3  18
TORSDOF 12
ENDMDL
