MODEL 1
REMARK VINA RESULT:      -6.4      0.000      0.000
REMARK  8 active torsions:
REMARK  status: ('A' for Active; 'I' for Inactive)
REMARK    1  A    between atoms: N_9  and  C_19 
REMARK       I    between atoms: N_9  and  C_10 
REMARK    2  A    between atoms: C_10  and  C_11 
REMARK    3  A    between atoms: C_11  and  C_12 
REMARK    4  A    between atoms: C_11  and  N_15 
REMARK    5  A    between atoms: C_12  and  C_13 
REMARK    6  A    between atoms: C_18  and  C_19 
REMARK    7  A    between atoms: C_19  and  C_20 
REMARK    8  A    between atoms: C_20  and  C_22 
REMARK       I    between atoms: N_21  and  C_22 
ROOT
HETATM    1  H           1     -27.707  -6.370 -19.805  0.00  0.00     0.163 HD
HETATM    2  N           1     -27.489  -6.310 -18.819  0.00  0.00    -0.344 N 
HETATM    3  C           1     -26.188  -6.382 -18.398  0.00  0.00     0.249 C 
HETATM    4  O           1     -25.928  -6.310 -17.221  0.00  0.00    -0.271 OA
ENDROOT
BRANCH   2   5
HETATM    5  C           1     -28.556  -6.147 -17.849  0.00  0.00     0.194 C 
BRANCH   5   6
HETATM    6  C           1     -29.433  -7.374 -17.856  0.00  0.00     0.197 C 
HETATM    7  O           1     -29.318  -8.230 -16.953  0.00  0.00    -0.646 OA
HETATM    8  O           1     -30.276  -7.534 -18.766  0.00  0.00    -0.646 OA
ENDBRANCH   5   6
BRANCH   5   9
HETATM    9  C           1     -29.388  -4.924 -18.214  0.00  0.00     0.138 C 
BRANCH   9  10
HETATM   10  C           1     -28.912  -3.735 -17.415  0.00  0.00     0.217 C 
HETATM   11  N           1     -29.559  -2.533 -17.525  0.00  0.00    -0.370 N 
HETATM   12  H           1     -30.356  -2.442 -18.142  0.00  0.00     0.159 HD
HETATM   13  H           1     -29.240  -1.737 -16.989  0.00  0.00     0.159 HD
HETATM   14  O           1     -27.960  -3.844 -16.678  0.00  0.00    -0.274 OA
ENDBRANCH   9  10
ENDBRANCH   5   9
ENDBRANCH   2   5
BRANCH   3  15
HETATM   15  C           1     -25.079  -6.552 -19.407  0.00  0.00     0.284 C 
BRANCH  15  16
HETATM   16  C           1     -25.662  -6.524 -20.813  0.00  0.00     0.155 C 
BRANCH  16  17
HETATM   17  C           1     -25.541  -7.892 -21.436  0.00  0.00     0.175 C 
HETATM   18  O           1     -24.493  -8.218 -22.035  0.00  0.00    -0.648 OA
HETATM   19  O           1     -26.490  -8.703 -21.353  0.00  0.00    -0.648 OA
ENDBRANCH  16  17
ENDBRANCH  15  16
BRANCH  15  20
HETATM   20  N           1     -24.392  -7.865 -19.177  0.00  0.00    -0.066 N 
HETATM   21  H           1     -23.673  -8.017 -19.920  0.00  0.00     0.275 HD
HETATM   22  H           1     -23.927  -7.856 -18.241  0.00  0.00     0.275 HD
HETATM   23  H           1     -25.096  -8.637 -19.211  0.00  0.00     0.275 HD
ENDBRANCH  15  20
ENDBRANCH   3  15
TORSDOF 8
ENDMDL
MODEL 2
REMARK VINA RESULT:      -6.0      2.032      5.033
REMARK  8 active torsions:
REMARK  status: ('A' for Active; 'I' for Inactive)
REMARK    1  A    between atoms: N_9  and  C_19 
REMARK       I    between atoms: N_9  and  C_10 
REMARK    2  A    between atoms: C_10  and  C_11 
REMARK    3  A    between atoms: C_11  and  C_12 
REMARK    4  A    between atoms: C_11  and  N_15 
REMARK    5  A    between atoms: C_12  and  C_13 
REMARK    6  A    between atoms: C_18  and  C_19 
REMARK    7  A    between atoms: C_19  and  C_20 
REMARK    8  A    between atoms: C_20  and  C_22 
REMARK       I    between atoms: N_21  and  C_22 
ROOT
HETATM    1  H           1     -26.506  -7.338 -18.362  0.00  0.00     0.163 HD
HETATM    2  N           1     -27.112  -6.754 -18.924  0.00  0.00    -0.344 N 
HETATM    3  C           1     -28.001  -5.906 -18.319  0.00  0.00     0.249 C 
HETATM    4  O           1     -28.724  -5.208 -18.989  0.00  0.00    -0.271 OA
ENDROOT
BRANCH   2   5
HETATM    5  C           1     -27.040  -6.814 -20.371  0.00  0.00     0.194 C 
BRANCH   5   6
HETATM    6  C           1     -27.404  -8.203 -20.835  0.00  0.00     0.197 C 
HETATM    7  O           1     -26.694  -8.785 -21.683  0.00  0.00    -0.646 OA
HETATM    8  O           1     -28.415  -8.772 -20.370  0.00  0.00    -0.646 OA
ENDBRANCH   5   6
BRANCH   5   9
HETATM    9  C           1     -25.623  -6.482 -20.821  0.00  0.00     0.138 C 
BRANCH   9  10
HETATM   10  C           1     -24.633  -7.209 -19.942  0.00  0.00     0.217 C 
HETATM   11  N           1     -24.077  -8.386 -20.365  0.00  0.00    -0.370 N 
HETATM   12  H           1     -24.330  -8.770 -21.267  0.00  0.00     0.159 HD
HETATM   13  H           1     -23.414  -8.873 -19.776  0.00  0.00     0.159 HD
HETATM   14  O           1     -24.332  -6.751 -18.865  0.00  0.00    -0.274 OA
ENDBRANCH   9  10
ENDBRANCH   5   9
ENDBRANCH   2   5
BRANCH   3  15
HETATM   15  C           1     -28.076  -5.843 -16.813  0.00  0.00     0.284 C 
BRANCH  15  16
HETATM   16  C           1     -27.361  -7.048 -16.217  0.00  0.00     0.155 C 
BRANCH  16  17
HETATM   17  C           1     -25.956  -6.658 -15.828  0.00  0.00     0.175 C 
HETATM   18  O           1     -25.511  -5.531 -16.137  0.00  0.00    -0.648 OA
HETATM   19  O           1     -25.237  -7.462 -15.195  0.00  0.00    -0.648 OA
ENDBRANCH  16  17
ENDBRANCH  15  16
BRANCH  15  20
HETATM   20  N           1     -29.514  -5.854 -16.384  0.00  0.00    -0.066 N 
HETATM   21  H           1     -29.707  -5.015 -15.792  0.00  0.00     0.275 HD
HETATM   22  H           1     -30.129  -5.831 -17.229  0.00  0.00     0.275 HD
HETATM   23  H           1     -29.706  -6.721 -15.834  0.00  0.00     0.275 HD
ENDBRANCH  15  20
ENDBRANCH   3  15
TORSDOF 8
ENDMDL
MODEL 3
REMARK VINA RESULT:      -6.0     11.404     13.042
REMARK  8 active torsions:
REMARK  status: ('A' for Active; 'I' for Inactive)
REMARK    1  A    between atoms: N_9  and  C_19 
REMARK       I    between atoms: N_9  and  C_10 
REMARK    2  A    between atoms: C_10  and  C_11 
REMARK    3  A    between atoms: C_11  and  C_12 
REMARK    4  A    between atoms: C_11  and  N_15 
REMARK    5  A    between atoms: C_12  and  C_13 
REMARK    6  A    between atoms: C_18  and  C_19 
REMARK    7  A    between atoms: C_19  and  C_20 
REMARK    8  A    between atoms: C_20  and  C_22 
REMARK       I    between atoms: N_21  and  C_22 
ROOT
HETATM    1  H           1     -22.361  -5.843  -8.828  0.00  0.00     0.163 HD
HETATM    2  N           1     -22.256  -4.853  -8.648  0.00  0.00    -0.344 N 
HETATM    3  C           1     -21.654  -4.426  -7.495  0.00  0.00     0.249 C 
HETATM    4  O           1     -21.529  -3.244  -7.279  0.00  0.00    -0.271 OA
ENDROOT
BRANCH   2   5
HETATM    5  C           1     -22.744  -3.885  -9.611  0.00  0.00     0.194 C 
BRANCH   5   6
HETATM    6  C           1     -24.253  -3.906  -9.626  0.00  0.00     0.197 C 
HETATM    7  O           1     -24.894  -2.842  -9.491  0.00  0.00    -0.646 OA
HETATM    8  O           1     -24.860  -4.988  -9.774  0.00  0.00    -0.646 OA
ENDBRANCH   5   6
BRANCH   5   9
HETATM    9  C           1     -22.216  -4.240 -10.996  0.00  0.00     0.138 C 
BRANCH   9  10
HETATM   10  C           1     -20.729  -3.987 -11.047  0.00  0.00     0.217 C 
HETATM   11  N           1     -20.253  -2.797 -11.531  0.00  0.00    -0.370 N 
HETATM   12  H           1     -20.899  -2.088 -11.854  0.00  0.00     0.159 HD
HETATM   13  H           1     -19.257  -2.628 -11.566  0.00  0.00     0.159 HD
HETATM   14  O           1     -19.959  -4.834 -10.662  0.00  0.00    -0.274 OA
ENDBRANCH   9  10
ENDBRANCH   5   9
ENDBRANCH   2   5
BRANCH   3  15
HETATM   15  C           1     -21.147  -5.433  -6.492  0.00  0.00     0.284 C 
BRANCH  15  16
HETATM   16  C           1     -22.320  -6.004  -5.707  0.00  0.00     0.155 C 
BRANCH  16  17
HETATM   17  C           1     -21.830  -6.540  -4.385  0.00  0.00     0.175 C 
HETATM   18  O           1     -21.027  -7.499  -4.358  0.00  0.00    -0.648 OA
HETATM   19  O           1     -22.225  -6.026  -3.316  0.00  0.00    -0.648 OA
ENDBRANCH  16  17
ENDBRANCH  15  16
BRANCH  15  20
HETATM   20  N           1     -20.195  -4.761  -5.547  0.00  0.00    -0.066 N 
HETATM   21  H           1     -20.734  -4.211  -4.841  0.00  0.00     0.275 HD
HETATM   22  H           1     -19.620  -5.485  -5.059  0.00  0.00     0.275 HD
HETATM   23  H           1     -19.568  -4.119  -6.083  0.00  0.00     0.275 HD
ENDBRANCH  15  20
ENDBRANCH   3  15
TORSDOF 8
ENDMDL
MODEL 4
REMARK VINA RESULT:      -5.9      2.444      5.986
REMARK  8 active torsions:
REMARK  status: ('A' for Active; 'I' for Inactive)
REMARK    1  A    between atoms: N_9  and  C_19 
REMARK       I    between atoms: N_9  and  C_10 
REMARK    2  A    between atoms: C_10  and  C_11 
REMARK    3  A    between atoms: C_11  and  C_12 
REMARK    4  A    between atoms: C_11  and  N_15 
REMARK    5  A    between atoms: C_12  and  C_13 
REMARK    6  A    between atoms: C_18  and  C_19 
REMARK    7  A    between atoms: C_19  and  C_20 
REMARK    8  A    between atoms: C_20  and  C_22 
REMARK       I    between atoms: N_21  and  C_22 
ROOT
HETATM    1  H           1     -27.310  -4.630 -17.845  0.00  0.00     0.163 HD
HETATM    2  N           1     -27.577  -5.535 -17.479  0.00  0.00    -0.344 N 
HETATM    3  C           1     -28.846  -5.737 -17.009  0.00  0.00     0.249 C 
HETATM    4  O           1     -29.165  -6.817 -16.572  0.00  0.00    -0.271 OA
ENDROOT
BRANCH   2   5
HETATM    5  C           1     -26.614  -6.620 -17.454  0.00  0.00     0.194 C 
BRANCH   5   6
HETATM    6  C           1     -25.849  -6.583 -16.153  0.00  0.00     0.197 C 
HETATM    7  O           1     -25.045  -5.653 -15.928  0.00  0.00    -0.646 OA
HETATM    8  O           1     -26.021  -7.481 -15.302  0.00  0.00    -0.646 OA
ENDBRANCH   5   6
BRANCH   5   9
HETATM    9  C           1     -25.645  -6.464 -18.619  0.00  0.00     0.138 C 
BRANCH   9  10
HETATM   10  C           1     -26.365  -6.751 -19.914  0.00  0.00     0.217 C 
HETATM   11  N           1     -26.065  -7.880 -20.628  0.00  0.00    -0.370 N 
HETATM   12  H           1     -25.361  -8.522 -20.287  0.00  0.00     0.159 HD
HETATM   13  H           1     -26.548  -8.073 -21.496  0.00  0.00     0.159 HD
HETATM   14  O           1     -27.206  -5.984 -20.321  0.00  0.00    -0.274 OA
ENDBRANCH   9  10
ENDBRANCH   5   9
ENDBRANCH   2   5
BRANCH   3  15
HETATM   15  C           1     -29.848  -4.609 -17.035  0.00  0.00     0.284 C 
BRANCH  15  16
HETATM   16  C           1     -31.257  -5.182 -17.113  0.00  0.00     0.155 C 
BRANCH  16  17
HETATM   17  C           1     -32.263  -4.072 -16.935  0.00  0.00     0.175 C 
HETATM   18  O           1     -32.278  -3.108 -17.731  0.00  0.00    -0.648 OA
HETATM   19  O           1     -33.082  -4.116 -15.992  0.00  0.00    -0.648 OA
ENDBRANCH  16  17
ENDBRANCH  15  16
BRANCH  15  20
HETATM   20  N           1     -29.594  -3.743 -18.233  0.00  0.00    -0.066 N 
HETATM   21  H           1     -29.822  -2.750 -18.001  0.00  0.00     0.275 HD
HETATM   22  H           1     -28.587  -3.813 -18.507  0.00  0.00     0.275 HD
HETATM   23  H           1     -30.194  -4.062 -19.027  0.00  0.00     0.275 HD
ENDBRANCH  15  20
ENDBRANCH   3  15
TORSDOF 8
ENDMDL
MODEL 5
REMARK VINA RESULT:      -5.8     10.804     12.458
REMARK  8 active torsions:
REMARK  status: ('A' for Active; 'I' for Inactive)
REMARK    1  A    between atoms: N_9  and  C_19 
REMARK       I    between atoms: N_9  and  C_10 
REMARK    2  A    between atoms: C_10  and  C_11 
REMARK    3  A    between atoms: C_11  and  C_12 
REMARK    4  A    between atoms: C_11  and  N_15 
REMARK    5  A    between atoms: C_12  and  C_13 
REMARK    6  A    between atoms: C_18  and  C_19 
REMARK    7  A    between atoms: C_19  and  C_20 
REMARK    8  A    between atoms: C_20  and  C_22 
REMARK       I    between atoms: N_21  and  C_22 
ROOT
HETATM    1  H           1     -22.965  -3.720  -8.932  0.00  0.00     0.163 HD
HETATM    2  N           1     -22.159  -4.247  -9.243  0.00  0.00    -0.344 N 
HETATM    3  C           1     -21.224  -4.669  -8.337  0.00  0.00     0.249 C 
HETATM    4  O           1     -20.262  -5.298  -8.708  0.00  0.00    -0.271 OA
ENDROOT
BRANCH   2   5
HETATM    5  C           1     -21.994  -4.556 -10.651  0.00  0.00     0.194 C 
BRANCH   5   6
HETATM    6  C           1     -21.226  -3.444 -11.323  0.00  0.00     0.197 C 
HETATM    7  O           1     -19.985  -3.527 -11.445  0.00  0.00    -0.646 OA
HETATM    8  O           1     -21.832  -2.442 -11.759  0.00  0.00    -0.646 OA
ENDBRANCH   5   6
BRANCH   5   9
HETATM    9  C           1     -23.364  -4.694 -11.302  0.00  0.00     0.138 C 
BRANCH   9  10
HETATM   10  C           1     -24.411  -4.073 -10.409  0.00  0.00     0.217 C 
HETATM   11  N           1     -25.090  -4.850  -9.508  0.00  0.00    -0.370 N 
HETATM   12  H           1     -24.891  -5.839  -9.442  0.00  0.00     0.159 HD
HETATM   13  H           1     -25.791  -4.433  -8.910  0.00  0.00     0.159 HD
HETATM   14  O           1     -24.649  -2.891 -10.488  0.00  0.00    -0.274 OA
ENDBRANCH   9  10
ENDBRANCH   5   9
ENDBRANCH   2   5
BRANCH   3  15
HETATM   15  C           1     -21.395  -4.347  -6.872  0.00  0.00     0.284 C 
BRANCH  15  16
HETATM   16  C           1     -20.314  -5.055  -6.067  0.00  0.00     0.155 C 
BRANCH  16  17
HETATM   17  C           1     -20.896  -6.281  -5.410  0.00  0.00     0.175 C 
HETATM   18  O           1     -21.301  -6.226  -4.228  0.00  0.00    -0.648 OA
HETATM   19  O           1     -20.975  -7.355  -6.047  0.00  0.00    -0.648 OA
ENDBRANCH  16  17
ENDBRANCH  15  16
BRANCH  15  20
HETATM   20  N           1     -22.745  -4.813  -6.413  0.00  0.00    -0.066 N 
HETATM   21  H           1     -23.440  -4.043  -6.538  0.00  0.00     0.275 HD
HETATM   22  H           1     -23.038  -5.642  -6.979  0.00  0.00     0.275 HD
HETATM   23  H           1     -22.697  -5.078  -5.404  0.00  0.00     0.275 HD
ENDBRANCH  15  20
ENDBRANCH   3  15
TORSDOF 8
ENDMDL
MODEL 6
REMARK VINA RESULT:      -5.5      1.865      5.991
REMARK  8 active torsions:
REMARK  status: ('A' for Active; 'I' for Inactive)
REMARK    1  A    between atoms: N_9  and  C_19 
REMARK       I    between atoms: N_9  and  C_10 
REMARK    2  A    between atoms: C_10  and  C_11 
REMARK    3  A    between atoms: C_11  and  C_12 
REMARK    4  A    between atoms: C_11  and  N_15 
REMARK    5  A    between atoms: C_12  and  C_13 
REMARK    6  A    between atoms: C_18  and  C_19 
REMARK    7  A    between atoms: C_19  and  C_20 
REMARK    8  A    between atoms: C_20  and  C_22 
REMARK       I    between atoms: N_21  and  C_22 
ROOT
HETATM    1  H           1     -26.100  -5.014 -17.897  0.00  0.00     0.163 HD
HETATM    2  N           1     -26.578  -5.835 -18.246  0.00  0.00    -0.344 N 
HETATM    3  C           1     -27.942  -5.919 -18.165  0.00  0.00     0.249 C 
HETATM    4  O           1     -28.513  -6.899 -18.582  0.00  0.00    -0.271 OA
ENDROOT
BRANCH   2   5
HETATM    5  C           1     -25.819  -6.922 -18.833  0.00  0.00     0.194 C 
BRANCH   5   6
HETATM    6  C           1     -24.493  -7.050 -18.123  0.00  0.00     0.197 C 
HETATM    7  O           1     -24.459  -7.396 -16.922  0.00  0.00    -0.646 OA
HETATM    8  O           1     -23.431  -6.812 -18.736  0.00  0.00    -0.646 OA
ENDBRANCH   5   6
BRANCH   5   9
HETATM    9  C           1     -25.578  -6.632 -20.309  0.00  0.00     0.138 C 
BRANCH   9  10
HETATM   10  C           1     -25.468  -7.933 -21.066  0.00  0.00     0.217 C 
HETATM   11  N           1     -24.236  -8.416 -21.420  0.00  0.00    -0.370 N 
HETATM   12  H           1     -23.400  -7.901 -21.174  0.00  0.00     0.159 HD
HETATM   13  H           1     -24.162  -9.288 -21.927  0.00  0.00     0.159 HD
HETATM   14  O           1     -26.465  -8.548 -21.360  0.00  0.00    -0.274 OA
ENDBRANCH   9  10
ENDBRANCH   5   9
ENDBRANCH   2   5
BRANCH   3  15
HETATM   15  C           1     -28.733  -4.788 -17.555  0.00  0.00     0.284 C 
BRANCH  15  16
HETATM   16  C           1     -29.560  -5.317 -16.390  0.00  0.00     0.155 C 
BRANCH  16  17
HETATM   17  C           1     -31.022  -5.295 -16.759  0.00  0.00     0.175 C 
HETATM   18  O           1     -31.548  -6.295 -17.294  0.00  0.00    -0.648 OA
HETATM   19  O           1     -31.709  -4.275 -16.531  0.00  0.00    -0.648 OA
ENDBRANCH  16  17
ENDBRANCH  15  16
BRANCH  15  20
HETATM   20  N           1     -29.646  -4.202 -18.590  0.00  0.00    -0.066 N 
HETATM   21  H           1     -30.378  -3.621 -18.120  0.00  0.00     0.275 HD
HETATM   22  H           1     -29.093  -3.602 -19.243  0.00  0.00     0.275 HD
HETATM   23  H           1     -30.104  -4.972 -19.127  0.00  0.00     0.275 HD
ENDBRANCH  15  20
ENDBRANCH   3  15
TORSDOF 8
ENDMDL
MODEL 7
REMARK VINA RESULT:      -5.5      2.045      5.869
REMARK  8 active torsions:
REMARK  status: ('A' for Active; 'I' for Inactive)
REMARK    1  A    between atoms: N_9  and  C_19 
REMARK       I    between atoms: N_9  and  C_10 
REMARK    2  A    between atoms: C_10  and  C_11 
REMARK    3  A    between atoms: C_11  and  C_12 
REMARK    4  A    between atoms: C_11  and  N_15 
REMARK    5  A    between atoms: C_12  and  C_13 
REMARK    6  A    between atoms: C_18  and  C_19 
REMARK    7  A    between atoms: C_19  and  C_20 
REMARK    8  A    between atoms: C_20  and  C_22 
REMARK       I    between atoms: N_21  and  C_22 
ROOT
HETATM    1  H           1     -28.492  -5.042 -18.559  0.00  0.00     0.163 HD
HETATM    2  N           1     -28.447  -6.044 -18.421  0.00  0.00    -0.344 N 
HETATM    3  C           1     -29.557  -6.729 -18.006  0.00  0.00     0.249 C 
HETATM    4  O           1     -29.504  -7.925 -17.841  0.00  0.00    -0.271 OA
ENDROOT
BRANCH   2   5
HETATM    5  C           1     -27.207  -6.755 -18.665  0.00  0.00     0.194 C 
BRANCH   5   6
HETATM    6  C           1     -26.151  -6.269 -17.702  0.00  0.00     0.197 C 
HETATM    7  O           1     -26.462  -5.490 -16.776  0.00  0.00    -0.646 OA
HETATM    8  O           1     -24.967  -6.646 -17.832  0.00  0.00    -0.646 OA
ENDBRANCH   5   6
BRANCH   5   9
HETATM    9  C           1     -26.749  -6.497 -20.095  0.00  0.00     0.138 C 
BRANCH   9  10
HETATM   10  C           1     -26.539  -7.815 -20.801  0.00  0.00     0.217 C 
HETATM   11  N           1     -27.586  -8.686 -20.948  0.00  0.00    -0.370 N 
HETATM   12  H           1     -28.499  -8.447 -20.584  0.00  0.00     0.159 HD
HETATM   13  H           1     -27.445  -9.569 -21.421  0.00  0.00     0.159 HD
HETATM   14  O           1     -25.449  -8.100 -21.236  0.00  0.00    -0.274 OA
ENDBRANCH   9  10
ENDBRANCH   5   9
ENDBRANCH   2   5
BRANCH   3  15
HETATM   15  C           1     -30.848  -5.990 -17.752  0.00  0.00     0.284 C 
BRANCH  15  16
HETATM   16  C           1     -30.625  -4.930 -16.681  0.00  0.00     0.155 C 
BRANCH  16  17
HETATM   17  C           1     -30.479  -3.577 -17.333  0.00  0.00     0.175 C 
HETATM   18  O           1     -31.496  -2.928 -17.660  0.00  0.00    -0.648 OA
HETATM   19  O           1     -29.341  -3.105 -17.547  0.00  0.00    -0.648 OA
ENDBRANCH  16  17
ENDBRANCH  15  16
BRANCH  15  20
HETATM   20  N           1     -31.895  -6.957 -17.285  0.00  0.00    -0.066 N 
HETATM   21  H           1     -32.786  -6.445 -17.101  0.00  0.00     0.275 HD
HETATM   22  H           1     -32.056  -7.680 -18.024  0.00  0.00     0.275 HD
HETATM   23  H           1     -31.572  -7.422 -16.407  0.00  0.00     0.275 HD
ENDBRANCH  15  20
ENDBRANCH   3  15
TORSDOF 8
ENDMDL
MODEL 8
REMARK VINA RESULT:      -5.4     12.228     13.709
REMARK  8 active torsions:
REMARK  status: ('A' for Active; 'I' for Inactive)
REMARK    1  A    between atoms: N_9  and  C_19 
REMARK       I    between atoms: N_9  and  C_10 
REMARK    2  A    between atoms: C_10  and  C_11 
REMARK    3  A    between atoms: C_11  and  C_12 
REMARK    4  A    between atoms: C_11  and  N_15 
REMARK    5  A    between atoms: C_12  and  C_13 
REMARK    6  A    between atoms: C_18  and  C_19 
REMARK    7  A    between atoms: C_19  and  C_20 
REMARK    8  A    between atoms: C_20  and  C_22 
REMARK       I    between atoms: N_21  and  C_22 
ROOT
HETATM    1  H           1     -22.669  -5.980  -7.531  0.00  0.00     0.163 HD
HETATM    2  N           1     -22.021  -5.387  -7.028  0.00  0.00    -0.344 N 
HETATM    3  C           1     -21.782  -4.111  -7.461  0.00  0.00     0.249 C 
HETATM    4  O           1     -21.009  -3.402  -6.861  0.00  0.00    -0.271 OA
ENDROOT
BRANCH   2   5
HETATM    5  C           1     -21.346  -5.889  -5.847  0.00  0.00     0.194 C 
BRANCH   5   6
HETATM    6  C           1     -20.168  -6.736  -6.263  0.00  0.00     0.197 C 
HETATM    7  O           1     -19.973  -7.845  -5.720  0.00  0.00    -0.646 OA
HETATM    8  O           1     -19.389  -6.328  -7.151  0.00  0.00    -0.646 OA
ENDBRANCH   5   6
BRANCH   5   9
HETATM    9  C           1     -22.316  -6.733  -5.030  0.00  0.00     0.138 C 
BRANCH   9  10
HETATM   10  C           1     -21.925  -6.680  -3.573  0.00  0.00     0.217 C 
HETATM   11  N           1     -21.094  -7.636  -3.052  0.00  0.00    -0.370 N 
HETATM   12  H           1     -20.743  -8.378  -3.644  0.00  0.00     0.159 HD
HETATM   13  H           1     -20.832  -7.601  -2.075  0.00  0.00     0.159 HD
HETATM   14  O           1     -22.344  -5.794  -2.867  0.00  0.00    -0.274 OA
ENDBRANCH   9  10
ENDBRANCH   5   9
ENDBRANCH   2   5
BRANCH   3  15
HETATM   15  C           1     -22.485  -3.588  -8.690  0.00  0.00     0.284 C 
BRANCH  15  16
HETATM   16  C           1     -23.837  -4.275  -8.833  0.00  0.00     0.155 C 
BRANCH  16  17
HETATM   17  C           1     -24.589  -3.669  -9.992  0.00  0.00     0.175 C 
HETATM   18  O           1     -24.157  -3.803 -11.158  0.00  0.00    -0.648 OA
HETATM   19  O           1     -25.646  -3.033  -9.787  0.00  0.00    -0.648 OA
ENDBRANCH  16  17
ENDBRANCH  15  16
BRANCH  15  20
HETATM   20  N           1     -21.649  -3.873  -9.902  0.00  0.00    -0.066 N 
HETATM   21  H           1     -20.837  -3.216  -9.929  0.00  0.00     0.275 HD
HETATM   22  H           1     -21.299  -4.857  -9.860  0.00  0.00     0.275 HD
HETATM   23  H           1     -22.228  -3.745 -10.763  0.00  0.00     0.275 HD
ENDBRANCH  15  20
ENDBRANCH   3  15
TORSDOF 8
ENDMDL
MODEL 9
REMARK VINA RESULT:      -5.2     13.810     15.285
REMARK  8 active torsions:
REMARK  status: ('A' for Active; 'I' for Inactive)
REMARK    1  A    between atoms: N_9  and  C_19 
REMARK       I    between atoms: N_9  and  C_10 
REMARK    2  A    between atoms: C_10  and  C_11 
REMARK    3  A    between atoms: C_11  and  C_12 
REMARK    4  A    between atoms: C_11  and  N_15 
REMARK    5  A    between atoms: C_12  and  C_13 
REMARK    6  A    between atoms: C_18  and  C_19 
REMARK    7  A    between atoms: C_19  and  C_20 
REMARK    8  A    between atoms: C_20  and  C_22 
REMARK       I    between atoms: N_21  and  C_22 
ROOT
HETATM    1  H           1     -19.887  -6.846  -4.873  0.00  0.00     0.163 HD
HETATM    2  N           1     -20.885  -6.673  -4.883  0.00  0.00    -0.344 N 
HETATM    3  C           1     -21.411  -5.740  -5.735  0.00  0.00     0.249 C 
HETATM    4  O           1     -22.601  -5.534  -5.747  0.00  0.00    -0.271 OA
ENDROOT
BRANCH   2   5
HETATM    5  C           1     -21.758  -7.416  -3.994  0.00  0.00     0.194 C 
BRANCH   5   6
HETATM    6  C           1     -21.631  -6.869  -2.593  0.00  0.00     0.197 C 
HETATM    7  O           1     -22.315  -5.884  -2.242  0.00  0.00    -0.646 OA
HETATM    8  O           1     -20.842  -7.403  -1.784  0.00  0.00    -0.646 OA
ENDBRANCH   5   6
BRANCH   5   9
HETATM    9  C           1     -21.359  -8.886  -4.004  0.00  0.00     0.138 C 
BRANCH   9  10
HETATM   10  C           1     -19.949  -9.021  -4.527  0.00  0.00     0.217 C 
HETATM   11  N           1     -18.896  -9.062  -3.652  0.00  0.00    -0.370 N 
HETATM   12  H           1     -19.063  -9.002  -2.656  0.00  0.00     0.159 HD
HETATM   13  H           1     -17.951  -9.152  -4.002  0.00  0.00     0.159 HD
HETATM   14  O           1     -19.750  -9.092  -5.716  0.00  0.00    -0.274 OA
ENDBRANCH   9  10
ENDBRANCH   5   9
ENDBRANCH   2   5
BRANCH   3  15
HETATM   15  C           1     -20.503  -4.968  -6.661  0.00  0.00     0.284 C 
BRANCH  15  16
HETATM   16  C           1     -21.301  -3.876  -7.361  0.00  0.00     0.155 C 
BRANCH  16  17
HETATM   17  C           1     -21.454  -4.223  -8.821  0.00  0.00     0.175 C 
HETATM   18  O           1     -20.587  -3.859  -9.645  0.00  0.00    -0.648 OA
HETATM   19  O           1     -22.449  -4.874  -9.208  0.00  0.00    -0.648 OA
ENDBRANCH  16  17
ENDBRANCH  15  16
BRANCH  15  20
HETATM   20  N           1     -19.924  -5.899  -7.685  0.00  0.00    -0.066 N 
HETATM   21  H           1     -20.340  -6.850  -7.566  0.00  0.00     0.275 HD
HETATM   22  H           1     -20.143  -5.542  -8.643  0.00  0.00     0.275 HD
HETATM   23  H           1     -18.888  -5.953  -7.560  0.00  0.00     0.275 HD
ENDBRANCH  15  20
ENDBRANCH   3  15
TORSDOF 8
ENDMDL
