MODEL 1
REMARK VINA RESULT:      -6.6      0.000      0.000
REMARK  8 active torsions:
REMARK  status: ('A' for Active; 'I' for Inactive)
REMARK    1  A    between atoms: C_3  and  C_9 
REMARK    2  A    between atoms: C_3  and  C_21 
REMARK    3  A    between atoms: C_3  and  N_25 
REMARK    4  A    between atoms: C_7  and  C_8 
REMARK    5  A    between atoms: C_8  and  C_23 
REMARK    6  A    between atoms: C_10  and  C_21 
REMARK    7  A    between atoms: N_11  and  C_23 
REMARK    8  A    between atoms: C_23  and  C_24 
REMARK       I    between atoms: C_24  and  N_25 
ROOT
HETATM    1  H           1     -34.022  -0.577 -13.210  0.00  0.00     0.163 HD
HETATM    2  O           1     -34.621  -3.290 -13.748  0.00  0.00    -0.271 OA
HETATM    3  C           1     -34.439  -2.562 -12.802  0.00  0.00     0.249 C 
HETATM    4  N           1     -34.730  -1.228 -12.897  0.00  0.00    -0.344 N 
ENDROOT
BRANCH   4   5
HETATM    5  C           1     -36.054  -0.748 -12.549  0.00  0.00     0.191 C 
BRANCH   5   6
HETATM    6  C           1     -36.837  -0.478 -13.810  0.00  0.00     0.197 C 
HETATM    7  O           1     -36.259  -0.021 -14.820  0.00  0.00    -0.646 OA
HETATM    8  O           1     -38.065  -0.712 -13.846  0.00  0.00    -0.646 OA
ENDBRANCH   5   6
BRANCH   5   9
HETATM    9  C           1     -35.931   0.538 -11.742  0.00  0.00     0.094 C 
BRANCH   9  10
HETATM   10  C           1     -36.492   0.321 -10.371  0.00  0.00     0.028 A 
HETATM   11  C           1     -37.044  -0.858  -9.929  0.00  0.00     0.114 A 
HETATM   12  N           1     -37.421  -0.610  -8.638  0.00  0.00    -0.360 N 
HETATM   13  C           1     -37.089   0.684  -8.355  0.00  0.00     0.180 A 
HETATM   14  H           1     -37.881  -1.291  -7.985  0.00  0.00     0.166 HD
HETATM   15  N           1     -36.526   1.273  -9.384  0.00  0.00    -0.354 N 
ATOM     16  HN          1     -36.187   2.233  -9.439  1.00  0.00     0.166 HD
ENDBRANCH   9  10
ENDBRANCH   5   9
ENDBRANCH   4   5
BRANCH   3  17
HETATM   17  C           1     -33.890  -3.125 -11.513  0.00  0.00     0.275 C 
BRANCH  17  18
HETATM   18  C           1     -34.900  -4.092 -10.909  0.00  0.00     0.046 C 
BRANCH  18  19
HETATM   19  C           1     -34.434  -5.523 -11.143  0.00  0.00    -0.020 C 
HETATM   20  C           1     -32.928  -5.538 -11.366  0.00  0.00     0.009 C 
HETATM   21  C           1     -34.774  -6.372  -9.925  0.00  0.00     0.009 C 
ENDBRANCH  18  19
ENDBRANCH  17  18
BRANCH  17  22
HETATM   22  N           1     -33.634  -2.005 -10.549  0.00  0.00    -0.066 N 
HETATM   23  H           1     -33.527  -1.108 -11.077  0.00  0.00     0.275 HD
HETATM   24  H           1     -32.759  -2.199 -10.013  0.00  0.00     0.275 HD
HETATM   25  H           1     -34.438  -1.924  -9.886  0.00  0.00     0.275 HD
ENDBRANCH  17  22
ENDBRANCH   3  17
TORSDOF 8
ENDMDL
MODEL 2
REMARK VINA RESULT:      -6.3      2.172      3.733
REMARK  8 active torsions:
REMARK  status: ('A' for Active; 'I' for Inactive)
REMARK    1  A    between atoms: C_3  and  C_9 
REMARK    2  A    between atoms: C_3  and  C_21 
REMARK    3  A    between atoms: C_3  and  N_25 
REMARK    4  A    between atoms: C_7  and  C_8 
REMARK    5  A    between atoms: C_8  and  C_23 
REMARK    6  A    between atoms: C_10  and  C_21 
REMARK    7  A    between atoms: N_11  and  C_23 
REMARK    8  A    between atoms: C_23  and  C_24 
REMARK       I    between atoms: C_24  and  N_25 
ROOT
HETATM    1  H           1     -34.748  -1.467 -14.000  0.00  0.00     0.163 HD
HETATM    2  O           1     -36.015  -2.720 -11.801  0.00  0.00    -0.271 OA
HETATM    3  C           1     -34.954  -2.217 -12.082  0.00  0.00     0.249 C 
HETATM    4  N           1     -34.892  -1.228 -13.027  0.00  0.00    -0.344 N 
ENDROOT
BRANCH   4   5
HETATM    5  C           1     -35.034   0.160 -12.633  0.00  0.00     0.191 C 
BRANCH   5   6
HETATM    6  C           1     -36.275   0.319 -11.790  0.00  0.00     0.197 C 
HETATM    7  O           1     -37.394   0.028 -12.264  0.00  0.00    -0.646 OA
HETATM    8  O           1     -36.184   0.740 -10.616  0.00  0.00    -0.646 OA
ENDBRANCH   5   6
BRANCH   5   9
HETATM    9  C           1     -35.151   1.030 -13.878  0.00  0.00     0.094 C 
BRANCH   9  10
HETATM   10  C           1     -35.979   0.323 -14.905  0.00  0.00     0.028 A 
HETATM   11  C           1     -35.479  -0.524 -15.865  0.00  0.00     0.114 A 
HETATM   12  N           1     -36.572  -0.937 -16.576  0.00  0.00    -0.360 N 
HETATM   13  C           1     -37.669  -0.335 -16.029  0.00  0.00     0.180 A 
HETATM   14  H           1     -36.567  -1.597 -17.393  0.00  0.00     0.166 HD
HETATM   15  N           1     -37.342   0.434 -15.017  0.00  0.00    -0.354 N 
ATOM     16  HN          1     -37.967   0.994 -14.438  1.00  0.00     0.166 HD
ENDBRANCH   9  10
ENDBRANCH   5   9
ENDBRANCH   4   5
BRANCH   3  17
HETATM   17  C           1     -33.695  -2.679 -11.390  0.00  0.00     0.275 C 
BRANCH  17  18
HETATM   18  C           1     -33.967  -3.987 -10.658  0.00  0.00     0.046 C 
BRANCH  18  19
HETATM   19  C           1     -33.579  -5.159 -11.549  0.00  0.00    -0.020 C 
HETATM   20  C           1     -32.146  -4.977 -12.031  0.00  0.00     0.009 C 
HETATM   21  C           1     -33.686  -6.455 -10.757  0.00  0.00     0.009 C 
ENDBRANCH  18  19
ENDBRANCH  17  18
BRANCH  17  22
HETATM   22  N           1     -33.256  -1.637 -10.404  0.00  0.00    -0.066 N 
HETATM   23  H           1     -33.436  -1.980  -9.432  0.00  0.00     0.275 HD
HETATM   24  H           1     -33.792  -0.756 -10.566  0.00  0.00     0.275 HD
HETATM   25  H           1     -32.235  -1.451 -10.524  0.00  0.00     0.275 HD
ENDBRANCH  17  22
ENDBRANCH   3  17
TORSDOF 8
ENDMDL
MODEL 3
REMARK VINA RESULT:      -6.0     13.651     15.902
REMARK  8 active torsions:
REMARK  status: ('A' for Active; 'I' for Inactive)
REMARK    1  A    between atoms: C_3  and  C_9 
REMARK    2  A    between atoms: C_3  and  C_21 
REMARK    3  A    between atoms: C_3  and  N_25 
REMARK    4  A    between atoms: C_7  and  C_8 
REMARK    5  A    between atoms: C_8  and  C_23 
REMARK    6  A    between atoms: C_10  and  C_21 
REMARK    7  A    between atoms: N_11  and  C_23 
REMARK    8  A    between atoms: C_23  and  C_24 
REMARK       I    between atoms: C_24  and  N_25 
ROOT
HETATM    1  H           1     -22.949  -4.459  -6.033  0.00  0.00     0.163 HD
HETATM    2  O           1     -20.433  -4.987  -4.849  0.00  0.00    -0.271 OA
HETATM    3  C           1     -21.353  -5.587  -5.352  0.00  0.00     0.249 C 
HETATM    4  N           1     -22.127  -4.981  -6.305  0.00  0.00    -0.344 N 
ENDROOT
BRANCH   4   5
HETATM    5  C           1     -21.766  -5.088  -7.706  0.00  0.00     0.191 C 
BRANCH   5   6
HETATM    6  C           1     -20.263  -5.085  -7.839  0.00  0.00     0.197 C 
HETATM    7  O           1     -19.645  -4.003  -7.928  0.00  0.00    -0.646 OA
HETATM    8  O           1     -19.635  -6.167  -7.859  0.00  0.00    -0.646 OA
ENDBRANCH   5   6
BRANCH   5   9
HETATM    9  C           1     -22.346  -3.905  -8.470  0.00  0.00     0.094 C 
BRANCH   9  10
HETATM   10  C           1     -22.588  -4.301  -9.893  0.00  0.00     0.028 A 
HETATM   11  C           1     -21.693  -4.112 -10.920  0.00  0.00     0.114 A 
HETATM   12  N           1     -22.317  -4.613 -12.029  0.00  0.00    -0.360 N 
HETATM   13  C           1     -23.541  -5.075 -11.638  0.00  0.00     0.180 A 
HETATM   14  H           1     -21.926  -4.637 -13.003  0.00  0.00     0.166 HD
HETATM   15  N           1     -23.733  -4.899 -10.352  0.00  0.00    -0.354 N 
ATOM     16  HN          1     -24.559  -5.153  -9.809  1.00  0.00     0.166 HD
ENDBRANCH   9  10
ENDBRANCH   5   9
ENDBRANCH   4   5
BRANCH   3  17
HETATM   17  C           1     -21.649  -7.005  -4.929  0.00  0.00     0.275 C 
BRANCH  17  18
HETATM   18  C           1     -20.868  -7.332  -3.663  0.00  0.00     0.046 C 
BRANCH  18  19
HETATM   19  C           1     -21.836  -7.522  -2.503  0.00  0.00    -0.020 C 
HETATM   20  C           1     -21.209  -8.440  -1.462  0.00  0.00     0.009 C 
HETATM   21  C           1     -22.139  -6.170  -1.869  0.00  0.00     0.009 C 
ENDBRANCH  18  19
ENDBRANCH  17  18
BRANCH  17  22
HETATM   22  N           1     -21.242  -7.947  -6.023  0.00  0.00    -0.066 N 
HETATM   23  H           1     -21.608  -8.904  -5.812  0.00  0.00     0.275 HD
HETATM   24  H           1     -20.200  -7.980  -6.086  0.00  0.00     0.275 HD
HETATM   25  H           1     -21.637  -7.616  -6.932  0.00  0.00     0.275 HD
ENDBRANCH  17  22
ENDBRANCH   3  17
TORSDOF 8
ENDMDL
MODEL 4
REMARK VINA RESULT:      -5.9     13.494     15.996
REMARK  8 active torsions:
REMARK  status: ('A' for Active; 'I' for Inactive)
REMARK    1  A    between atoms: C_3  and  C_9 
REMARK    2  A    between atoms: C_3  and  C_21 
REMARK    3  A    between atoms: C_3  and  N_25 
REMARK    4  A    between atoms: C_7  and  C_8 
REMARK    5  A    between atoms: C_8  and  C_23 
REMARK    6  A    between atoms: C_10  and  C_21 
REMARK    7  A    between atoms: N_11  and  C_23 
REMARK    8  A    between atoms: C_23  and  C_24 
REMARK       I    between atoms: C_24  and  N_25 
ROOT
HETATM    1  H           1     -21.839  -7.867  -6.399  0.00  0.00     0.163 HD
HETATM    2  O           1     -23.486  -6.080  -4.947  0.00  0.00    -0.271 OA
HETATM    3  C           1     -22.323  -6.397  -5.025  0.00  0.00     0.249 C 
HETATM    4  N           1     -21.819  -6.874  -6.205  0.00  0.00    -0.344 N 
ENDROOT
BRANCH   4   5
HETATM    5  C           1     -21.259  -5.956  -7.178  0.00  0.00     0.191 C 
BRANCH   5   6
HETATM    6  C           1     -19.760  -5.902  -7.011  0.00  0.00     0.197 C 
HETATM    7  O           1     -19.159  -4.810  -7.105  0.00  0.00    -0.646 OA
HETATM    8  O           1     -19.119  -6.950  -6.778  0.00  0.00    -0.646 OA
ENDBRANCH   5   6
BRANCH   5   9
HETATM    9  C           1     -21.844  -4.567  -6.960  0.00  0.00     0.094 C 
BRANCH   9  10
HETATM   10  C           1     -22.600  -4.147  -8.182  0.00  0.00     0.028 A 
HETATM   11  C           1     -22.030  -3.910  -9.410  0.00  0.00     0.114 A 
HETATM   12  N           1     -23.073  -3.556 -10.221  0.00  0.00    -0.360 N 
HETATM   13  C           1     -24.210  -3.591  -9.466  0.00  0.00     0.180 A 
HETATM   14  H           1     -23.009  -3.302 -11.238  0.00  0.00     0.166 HD
HETATM   15  N           1     -23.956  -3.945  -8.229  0.00  0.00    -0.354 N 
ATOM     16  HN          1     -24.623  -4.048  -7.465  1.00  0.00     0.166 HD
ENDBRANCH   9  10
ENDBRANCH   5   9
ENDBRANCH   4   5
BRANCH   3  17
HETATM   17  C           1     -21.424  -6.266  -3.820  0.00  0.00     0.275 C 
BRANCH  17  18
HETATM   18  C           1     -20.625  -7.550  -3.637  0.00  0.00     0.046 C 
BRANCH  18  19
HETATM   19  C           1     -21.403  -8.510  -2.748  0.00  0.00    -0.020 C 
HETATM   20  C           1     -21.799  -9.742  -3.552  0.00  0.00     0.009 C 
HETATM   21  C           1     -20.531  -8.932  -1.572  0.00  0.00     0.009 C 
ENDBRANCH  18  19
ENDBRANCH  17  18
BRANCH  17  22
HETATM   22  N           1     -22.260  -6.021  -2.598  0.00  0.00    -0.066 N 
HETATM   23  H           1     -22.247  -5.002  -2.366  0.00  0.00     0.275 HD
HETATM   24  H           1     -21.873  -6.565  -1.795  0.00  0.00     0.275 HD
HETATM   25  H           1     -23.243  -6.324  -2.782  0.00  0.00     0.275 HD
ENDBRANCH  17  22
ENDBRANCH   3  17
TORSDOF 8
ENDMDL
MODEL 5
REMARK VINA RESULT:      -5.9      9.742     11.999
REMARK  8 active torsions:
REMARK  status: ('A' for Active; 'I' for Inactive)
REMARK    1  A    between atoms: C_3  and  C_9 
REMARK    2  A    between atoms: C_3  and  C_21 
REMARK    3  A    between atoms: C_3  and  N_25 
REMARK    4  A    between atoms: C_7  and  C_8 
REMARK    5  A    between atoms: C_8  and  C_23 
REMARK    6  A    between atoms: C_10  and  C_21 
REMARK    7  A    between atoms: N_11  and  C_23 
REMARK    8  A    between atoms: C_23  and  C_24 
REMARK       I    between atoms: C_24  and  N_25 
ROOT
HETATM    1  H           1     -27.035  -7.826 -17.730  0.00  0.00     0.163 HD
HETATM    2  O           1     -24.638  -6.810 -16.618  0.00  0.00    -0.271 OA
HETATM    3  C           1     -25.266  -6.756 -17.649  0.00  0.00     0.249 C 
HETATM    4  N           1     -26.626  -6.905 -17.632  0.00  0.00    -0.344 N 
ENDROOT
BRANCH   4   5
HETATM    5  C           1     -27.482  -5.745 -17.474  0.00  0.00     0.191 C 
BRANCH   5   6
HETATM    6  C           1     -27.961  -5.666 -16.045  0.00  0.00     0.197 C 
HETATM    7  O           1     -27.972  -4.568 -15.449  0.00  0.00    -0.646 OA
HETATM    8  O           1     -28.350  -6.700 -15.459  0.00  0.00    -0.646 OA
ENDBRANCH   5   6
BRANCH   5   9
HETATM    9  C           1     -28.680  -5.868 -18.406  0.00  0.00     0.094 C 
BRANCH   9  10
HETATM   10  C           1     -29.783  -4.981 -17.919  0.00  0.00     0.028 A 
HETATM   11  C           1     -29.893  -3.641 -18.205  0.00  0.00     0.114 A 
HETATM   12  N           1     -31.031  -3.234 -17.566  0.00  0.00    -0.360 N 
HETATM   13  C           1     -31.555  -4.323 -16.929  0.00  0.00     0.180 A 
HETATM   14  H           1     -31.429  -2.263 -17.565  0.00  0.00     0.166 HD
HETATM   15  N           1     -30.822  -5.394 -17.125  0.00  0.00    -0.354 N 
ATOM     16  HN          1     -30.989  -6.332 -16.762  1.00  0.00     0.166 HD
ENDBRANCH   9  10
ENDBRANCH   5   9
ENDBRANCH   4   5
BRANCH   3  17
HETATM   17  C           1     -24.548  -6.521 -18.955  0.00  0.00     0.275 C 
BRANCH  17  18
HETATM   18  C           1     -25.547  -6.587 -20.104  0.00  0.00     0.046 C 
BRANCH  18  19
HETATM   19  C           1     -25.338  -7.877 -20.885  0.00  0.00    -0.020 C 
HETATM   20  C           1     -26.689  -8.461 -21.273  0.00  0.00     0.009 C 
HETATM   21  C           1     -24.533  -7.583 -22.144  0.00  0.00     0.009 C 
ENDBRANCH  18  19
ENDBRANCH  17  18
BRANCH  17  22
HETATM   22  N           1     -23.499  -7.577 -19.145  0.00  0.00    -0.066 N 
HETATM   23  H           1     -22.557  -7.172 -18.940  0.00  0.00     0.275 HD
HETATM   24  H           1     -23.523  -7.919 -20.131  0.00  0.00     0.275 HD
HETATM   25  H           1     -23.685  -8.373 -18.495  0.00  0.00     0.275 HD
ENDBRANCH  17  22
ENDBRANCH   3  17
TORSDOF 8
ENDMDL
MODEL 6
REMARK VINA RESULT:      -5.8     15.570     18.395
REMARK  8 active torsions:
REMARK  status: ('A' for Active; 'I' for Inactive)
REMARK    1  A    between atoms: C_3  and  C_9 
REMARK    2  A    between atoms: C_3  and  C_21 
REMARK    3  A    between atoms: C_3  and  N_25 
REMARK    4  A    between atoms: C_7  and  C_8 
REMARK    5  A    between atoms: C_8  and  C_23 
REMARK    6  A    between atoms: C_10  and  C_21 
REMARK    7  A    between atoms: N_11  and  C_23 
REMARK    8  A    between atoms: C_23  and  C_24 
REMARK       I    between atoms: C_24  and  N_25 
ROOT
HETATM    1  H           1     -21.272  -5.719  -2.352  0.00  0.00     0.163 HD
HETATM    2  O           1     -22.801  -6.167  -4.692  0.00  0.00    -0.271 OA
HETATM    3  C           1     -21.674  -6.329  -4.288  0.00  0.00     0.249 C 
HETATM    4  N           1     -21.444  -6.515  -2.952  0.00  0.00    -0.344 N 
ENDROOT
BRANCH   4   5
HETATM    5  C           1     -21.446  -7.855  -2.396  0.00  0.00     0.191 C 
BRANCH   5   6
HETATM    6  C           1     -22.197  -7.853  -1.087  0.00  0.00     0.197 C 
HETATM    7  O           1     -22.262  -8.897  -0.402  0.00  0.00    -0.646 OA
HETATM    8  O           1     -22.753  -6.807  -0.686  0.00  0.00    -0.646 OA
ENDBRANCH   5   6
BRANCH   5   9
HETATM    9  C           1     -20.012  -8.308  -2.159  0.00  0.00     0.094 C 
BRANCH   9  10
HETATM   10  C           1     -19.562  -9.161  -3.304  0.00  0.00     0.028 A 
HETATM   11  C           1     -18.251  -9.356  -3.666  0.00  0.00     0.114 A 
HETATM   12  N           1     -18.302 -10.191  -4.748  0.00  0.00    -0.360 N 
HETATM   13  C           1     -19.618 -10.462  -4.994  0.00  0.00     0.180 A 
HETATM   14  H           1     -17.481 -10.556  -5.290  0.00  0.00     0.166 HD
HETATM   15  N           1     -20.404  -9.853  -4.137  0.00  0.00    -0.354 N 
ATOM     16  HN          1     -21.422  -9.886  -4.100  1.00  0.00     0.166 HD
ENDBRANCH   9  10
ENDBRANCH   5   9
ENDBRANCH   4   5
BRANCH   3  17
HETATM   17  C           1     -20.519  -6.325  -5.260  0.00  0.00     0.275 C 
BRANCH  17  18
HETATM   18  C           1     -20.222  -4.895  -5.692  0.00  0.00     0.046 C 
BRANCH  18  19
HETATM   19  C           1     -20.538  -4.736  -7.173  0.00  0.00    -0.020 C 
HETATM   20  C           1     -21.648  -3.708  -7.348  0.00  0.00     0.009 C 
HETATM   21  C           1     -19.290  -4.265  -7.910  0.00  0.00     0.009 C 
ENDBRANCH  18  19
ENDBRANCH  17  18
BRANCH  17  22
HETATM   22  N           1     -20.877  -7.146  -6.463  0.00  0.00    -0.066 N 
HETATM   23  H           1     -21.483  -7.946  -6.171  0.00  0.00     0.275 HD
HETATM   24  H           1     -20.005  -7.514  -6.906  0.00  0.00     0.275 HD
HETATM   25  H           1     -21.392  -6.551  -7.150  0.00  0.00     0.275 HD
ENDBRANCH  17  22
ENDBRANCH   3  17
TORSDOF 8
ENDMDL
MODEL 7
REMARK VINA RESULT:      -5.8     14.083     16.779
REMARK  8 active torsions:
REMARK  status: ('A' for Active; 'I' for Inactive)
REMARK    1  A    between atoms: C_3  and  C_9 
REMARK    2  A    between atoms: C_3  and  C_21 
REMARK    3  A    between atoms: C_3  and  N_25 
REMARK    4  A    between atoms: C_7  and  C_8 
REMARK    5  A    between atoms: C_8  and  C_23 
REMARK    6  A    between atoms: C_10  and  C_21 
REMARK    7  A    between atoms: N_11  and  C_23 
REMARK    8  A    between atoms: C_23  and  C_24 
REMARK       I    between atoms: C_24  and  N_25 
ROOT
HETATM    1  H           1     -20.319  -7.441  -7.500  0.00  0.00     0.163 HD
HETATM    2  O           1     -19.311  -4.827  -7.095  0.00  0.00    -0.271 OA
HETATM    3  C           1     -20.354  -5.431  -7.010  0.00  0.00     0.249 C 
HETATM    4  N           1     -20.350  -6.772  -6.740  0.00  0.00    -0.344 N 
ENDROOT
BRANCH   4   5
HETATM    5  C           1     -20.390  -7.236  -5.367  0.00  0.00     0.191 C 
BRANCH   5   6
HETATM    6  C           1     -19.809  -8.627  -5.289  0.00  0.00     0.197 C 
HETATM    7  O           1     -18.712  -8.816  -4.722  0.00  0.00    -0.646 OA
HETATM    8  O           1     -20.427  -9.591  -5.793  0.00  0.00    -0.646 OA
ENDBRANCH   5   6
BRANCH   5   9
HETATM    9  C           1     -21.834  -7.261  -4.882  0.00  0.00     0.094 C 
BRANCH   9  10
HETATM   10  C           1     -21.861  -7.123  -3.392  0.00  0.00     0.028 A 
HETATM   11  C           1     -21.426  -8.083  -2.509  0.00  0.00     0.114 A 
HETATM   12  N           1     -21.633  -7.545  -1.270  0.00  0.00    -0.360 N 
HETATM   13  C           1     -22.177  -6.304  -1.447  0.00  0.00     0.180 A 
HETATM   14  H           1     -21.415  -8.002  -0.350  0.00  0.00     0.166 HD
HETATM   15  N           1     -22.327  -6.022  -2.720  0.00  0.00    -0.354 N 
ATOM     16  HN          1     -22.708  -5.166  -3.123  1.00  0.00     0.166 HD
ENDBRANCH   9  10
ENDBRANCH   5   9
ENDBRANCH   4   5
BRANCH   3  17
HETATM   17  C           1     -21.663  -4.703  -7.202  0.00  0.00     0.275 C 
BRANCH  17  18
HETATM   18  C           1     -22.203  -4.987  -8.597  0.00  0.00     0.046 C 
BRANCH  18  19
HETATM   19  C           1     -22.574  -3.675  -9.275  0.00  0.00    -0.020 C 
HETATM   20  C           1     -21.868  -3.581 -10.621  0.00  0.00     0.009 C 
HETATM   21  C           1     -24.081  -3.622  -9.488  0.00  0.00     0.009 C 
ENDBRANCH  18  19
ENDBRANCH  17  18
BRANCH  17  22
HETATM   22  N           1     -21.441  -3.228  -7.043  0.00  0.00    -0.066 N 
HETATM   23  H           1     -22.342  -2.768  -6.776  0.00  0.00     0.275 HD
HETATM   24  H           1     -21.101  -2.827  -7.946  0.00  0.00     0.275 HD
HETATM   25  H           1     -20.729  -3.061  -6.297  0.00  0.00     0.275 HD
ENDBRANCH  17  22
ENDBRANCH   3  17
TORSDOF 8
ENDMDL
MODEL 8
REMARK VINA RESULT:      -5.7     14.684     17.111
REMARK  8 active torsions:
REMARK  status: ('A' for Active; 'I' for Inactive)
REMARK    1  A    between atoms: C_3  and  C_9 
REMARK    2  A    between atoms: C_3  and  C_21 
REMARK    3  A    between atoms: C_3  and  N_25 
REMARK    4  A    between atoms: C_7  and  C_8 
REMARK    5  A    between atoms: C_8  and  C_23 
REMARK    6  A    between atoms: C_10  and  C_21 
REMARK    7  A    between atoms: N_11  and  C_23 
REMARK    8  A    between atoms: C_23  and  C_24 
REMARK       I    between atoms: C_24  and  N_25 
ROOT
HETATM    1  H           1     -23.458  -6.152  -4.280  0.00  0.00     0.163 HD
HETATM    2  O           1     -21.275  -5.363  -2.661  0.00  0.00    -0.271 OA
HETATM    3  C           1     -21.761  -6.371  -3.116  0.00  0.00     0.249 C 
HETATM    4  N           1     -22.461  -6.325  -4.291  0.00  0.00    -0.344 N 
ENDROOT
BRANCH   4   5
HETATM    5  C           1     -21.773  -6.522  -5.552  0.00  0.00     0.191 C 
BRANCH   5   6
HETATM    6  C           1     -20.908  -7.756  -5.464  0.00  0.00     0.197 C 
HETATM    7  O           1     -21.415  -8.887  -5.617  0.00  0.00    -0.646 OA
HETATM    8  O           1     -19.682  -7.644  -5.239  0.00  0.00    -0.646 OA
ENDBRANCH   5   6
BRANCH   5   9
HETATM    9  C           1     -20.900  -5.310  -5.849  0.00  0.00     0.094 C 
BRANCH   9  10
HETATM   10  C           1     -21.296  -4.721  -7.167  0.00  0.00     0.028 A 
HETATM   11  C           1     -20.519  -4.749  -8.300  0.00  0.00     0.114 A 
HETATM   12  N           1     -21.259  -4.105  -9.253  0.00  0.00    -0.360 N 
HETATM   13  C           1     -22.432  -3.719  -8.669  0.00  0.00     0.180 A 
HETATM   14  H           1     -20.977  -3.938 -10.250  0.00  0.00     0.166 HD
HETATM   15  N           1     -22.482  -4.077  -7.408  0.00  0.00    -0.354 N 
ATOM     16  HN          1     -23.242  -3.911  -6.748  1.00  0.00     0.166 HD
ENDBRANCH   9  10
ENDBRANCH   5   9
ENDBRANCH   4   5
BRANCH   3  17
HETATM   17  C           1     -21.597  -7.681  -2.386  0.00  0.00     0.275 C 
BRANCH  17  18
HETATM   18  C           1     -22.219  -7.574  -1.000  0.00  0.00     0.046 C 
BRANCH  18  19
HETATM   19  C           1     -21.899  -8.830  -0.201  0.00  0.00    -0.020 C 
HETATM   20  C           1     -21.457  -8.440   1.204  0.00  0.00     0.009 C 
HETATM   21  C           1     -23.140  -9.708  -0.115  0.00  0.00     0.009 C 
ENDBRANCH  18  19
ENDBRANCH  17  18
BRANCH  17  22
HETATM   22  N           1     -20.137  -7.999  -2.254  0.00  0.00    -0.066 N 
HETATM   23  H           1     -19.576  -7.130  -2.414  0.00  0.00     0.275 HD
HETATM   24  H           1     -19.870  -8.719  -2.961  0.00  0.00     0.275 HD
HETATM   25  H           1     -19.945  -8.365  -1.294  0.00  0.00     0.275 HD
ENDBRANCH  17  22
ENDBRANCH   3  17
TORSDOF 8
ENDMDL
MODEL 9
REMARK VINA RESULT:      -5.7     13.824     16.637
REMARK  8 active torsions:
REMARK  status: ('A' for Active; 'I' for Inactive)
REMARK    1  A    between atoms: C_3  and  C_9 
REMARK    2  A    between atoms: C_3  and  C_21 
REMARK    3  A    between atoms: C_3  and  N_25 
REMARK    4  A    between atoms: C_7  and  C_8 
REMARK    5  A    between atoms: C_8  and  C_23 
REMARK    6  A    between atoms: C_10  and  C_21 
REMARK    7  A    between atoms: N_11  and  C_23 
REMARK    8  A    between atoms: C_23  and  C_24 
REMARK       I    between atoms: C_24  and  N_25 
ROOT
HETATM    1  H           1     -19.787  -6.949  -7.124  0.00  0.00     0.163 HD
HETATM    2  O           1     -20.508  -4.330  -6.328  0.00  0.00    -0.271 OA
HETATM    3  C           1     -20.944  -5.238  -6.995  0.00  0.00     0.249 C 
HETATM    4  N           1     -20.605  -6.531  -6.699  0.00  0.00    -0.344 N 
ENDROOT
BRANCH   4   5
HETATM    5  C           1     -21.417  -7.300  -5.777  0.00  0.00     0.191 C 
BRANCH   5   6
HETATM    6  C           1     -22.175  -6.360  -4.871  0.00  0.00     0.197 C 
HETATM    7  O           1     -23.323  -5.979  -5.185  0.00  0.00    -0.646 OA
HETATM    8  O           1     -21.654  -5.963  -3.806  0.00  0.00    -0.646 OA
ENDBRANCH   5   6
BRANCH   5   9
HETATM    9  C           1     -20.518  -8.199  -4.938  0.00  0.00     0.094 C 
BRANCH   9  10
HETATM   10  C           1     -21.014  -9.609  -5.012  0.00  0.00     0.028 A 
HETATM   11  C           1     -21.703 -10.250  -4.009  0.00  0.00     0.114 A 
HETATM   12  N           1     -21.955 -11.502  -4.496  0.00  0.00    -0.360 N 
HETATM   13  C           1     -21.418 -11.570  -5.750  0.00  0.00     0.180 A 
HETATM   14  H           1     -22.467 -12.271  -3.997  0.00  0.00     0.166 HD
HETATM   15  N           1     -20.842 -10.441  -6.089  0.00  0.00    -0.354 N 
ATOM     16  HN          1     -20.367 -10.227  -6.966  1.00  0.00     0.166 HD
ENDBRANCH   9  10
ENDBRANCH   5   9
ENDBRANCH   4   5
BRANCH   3  17
HETATM   17  C           1     -21.864  -4.946  -8.155  0.00  0.00     0.275 C 
BRANCH  17  18
HETATM   18  C           1     -21.047  -4.444  -9.339  0.00  0.00     0.046 C 
BRANCH  18  19
HETATM   19  C           1     -21.960  -3.713 -10.313  0.00  0.00    -0.020 C 
HETATM   20  C           1     -21.119  -3.014 -11.373  0.00  0.00     0.009 C 
HETATM   21  C           1     -22.891  -4.714 -10.984  0.00  0.00     0.009 C 
ENDBRANCH  18  19
ENDBRANCH  17  18
BRANCH  17  22
HETATM   22  N           1     -22.856  -3.896  -7.753  0.00  0.00    -0.066 N 
HETATM   23  H           1     -23.675  -4.351  -7.288  0.00  0.00     0.275 HD
HETATM   24  H           1     -23.180  -3.379  -8.600  0.00  0.00     0.275 HD
HETATM   25  H           1     -22.406  -3.227  -7.088  0.00  0.00     0.275 HD
ENDBRANCH  17  22
ENDBRANCH   3  17
TORSDOF 8
ENDMDL
