MODEL 1
REMARK VINA RESULT:      -6.6      0.000      0.000
REMARK  7 active torsions:
REMARK  status: ('A' for Active; 'I' for Inactive)
REMARK    1  A    between atoms: C_2  and  C_11 
REMARK    2  A    between atoms: C_3  and  C_10 
REMARK       I    between atoms: C_5  and  N_7 
REMARK    3  A    between atoms: C_5  and  C_6 
REMARK    4  A    between atoms: C_6  and  C_10 
REMARK    5  A    between atoms: C_6  and  N_9 
REMARK    6  A    between atoms: N_7  and  C_11 
REMARK    7  A    between atoms: C_11  and  C_15 
ROOT
HETATM    1  C           1     -21.692  -4.624  -7.719  0.00  0.00     0.249 C 
HETATM    2  N           1     -22.198  -4.781  -8.980  0.00  0.00    -0.344 N 
HETATM    3  O           1     -21.648  -3.527  -7.217  0.00  0.00    -0.271 OA
HETATM    4  H           1     -22.235  -5.701  -9.400  0.00  0.00     0.163 HD
ENDROOT
BRANCH   1   5
HETATM    5  C           1     -21.188  -5.824  -6.953  0.00  0.00     0.275 C 
BRANCH   5   6
HETATM    6  C           1     -21.013  -5.455  -5.487  0.00  0.00     0.046 C 
BRANCH   6   7
HETATM    7  C           1     -21.843  -6.396  -4.622  0.00  0.00    -0.020 C 
HETATM    8  C           1     -21.585  -7.835  -5.044  0.00  0.00     0.009 C 
HETATM    9  C           1     -21.452  -6.218  -3.161  0.00  0.00     0.009 C 
ENDBRANCH   6   7
ENDBRANCH   5   6
BRANCH   5  10
HETATM   10  N           1     -19.870  -6.260  -7.519  0.00  0.00    -0.066 N 
HETATM   11  H           1     -19.727  -7.278  -7.327  0.00  0.00     0.275 HD
HETATM   12  H           1     -19.100  -5.711  -7.074  0.00  0.00     0.275 HD
HETATM   13  H           1     -19.862  -6.096  -8.551  0.00  0.00     0.275 HD
ENDBRANCH   5  10
ENDBRANCH   1   5
BRANCH   2  14
HETATM   14  C           1     -22.683  -3.629  -9.716  0.00  0.00     0.189 C 
BRANCH  14  15
HETATM   15  C           1     -24.145  -3.814 -10.033  0.00  0.00     0.197 C 
HETATM   16  O           1     -24.716  -4.889  -9.749  0.00  0.00    -0.646 OA
HETATM   17  O           1     -24.788  -2.892 -10.581  0.00  0.00    -0.646 OA
ENDBRANCH  14  15
BRANCH  14  18
HETATM   18  C           1     -21.894  -3.486 -11.011  0.00  0.00     0.010 C 
HETATM   19  C           1     -22.191  -4.671 -11.919  0.00  0.00     0.012 C 
HETATM   20  C           1     -20.404  -3.448 -10.696  0.00  0.00     0.012 C 
ENDBRANCH  14  18
ENDBRANCH   2  14
TORSDOF 7
ENDMDL
MODEL 2
REMARK VINA RESULT:      -6.1     10.672     12.380
REMARK  7 active torsions:
REMARK  status: ('A' for Active; 'I' for Inactive)
REMARK    1  A    between atoms: C_2  and  C_11 
REMARK    2  A    between atoms: C_3  and  C_10 
REMARK       I    between atoms: C_5  and  N_7 
REMARK    3  A    between atoms: C_5  and  C_6 
REMARK    4  A    between atoms: C_6  and  C_10 
REMARK    5  A    between atoms: C_6  and  N_9 
REMARK    6  A    between atoms: N_7  and  C_11 
REMARK    7  A    between atoms: C_11  and  C_15 
ROOT
HETATM    1  C           1     -25.963  -6.275 -17.736  0.00  0.00     0.249 C 
HETATM    2  N           1     -27.299  -6.389 -18.008  0.00  0.00    -0.344 N 
HETATM    3  O           1     -25.594  -5.994 -16.621  0.00  0.00    -0.271 OA
HETATM    4  H           1     -27.607  -6.624 -18.943  0.00  0.00     0.163 HD
ENDROOT
BRANCH   1   5
HETATM    5  C           1     -24.948  -6.501 -18.832  0.00  0.00     0.275 C 
BRANCH   5   6
HETATM    6  C           1     -25.656  -6.539 -20.180  0.00  0.00     0.046 C 
BRANCH   6   7
HETATM    7  C           1     -25.407  -7.886 -20.846  0.00  0.00    -0.020 C 
HETATM    8  C           1     -26.728  -8.465 -21.333  0.00  0.00     0.009 C 
HETATM    9  C           1     -24.468  -7.699 -22.031  0.00  0.00     0.009 C 
ENDBRANCH   6   7
ENDBRANCH   5   6
BRANCH   5  10
HETATM   10  N           1     -24.244  -7.804 -18.600  0.00  0.00    -0.066 N 
HETATM   11  H           1     -24.379  -8.425 -19.430  0.00  0.00     0.275 HD
HETATM   12  H           1     -24.639  -8.267 -17.751  0.00  0.00     0.275 HD
HETATM   13  H           1     -23.224  -7.628 -18.458  0.00  0.00     0.275 HD
ENDBRANCH   5  10
ENDBRANCH   1   5
BRANCH   2  14
HETATM   14  C           1     -28.274  -6.172 -16.956  0.00  0.00     0.189 C 
BRANCH  14  15
HETATM   15  C           1     -28.500  -7.462 -16.208  0.00  0.00     0.197 C 
HETATM   16  O           1     -29.208  -8.361 -16.709  0.00  0.00    -0.646 OA
HETATM   17  O           1     -27.978  -7.632 -15.084  0.00  0.00    -0.646 OA
ENDBRANCH  14  15
BRANCH  14  18
HETATM   18  C           1     -29.586  -5.703 -17.570  0.00  0.00     0.010 C 
HETATM   19  C           1     -29.305  -4.618 -18.601  0.00  0.00     0.012 C 
HETATM   20  C           1     -30.486  -5.142 -16.476  0.00  0.00     0.012 C 
ENDBRANCH  14  18
ENDBRANCH   2  14
TORSDOF 7
ENDMDL
MODEL 3
REMARK VINA RESULT:      -6.0     11.306     12.905
REMARK  7 active torsions:
REMARK  status: ('A' for Active; 'I' for Inactive)
REMARK    1  A    between atoms: C_2  and  C_11 
REMARK    2  A    between atoms: C_3  and  C_10 
REMARK       I    between atoms: C_5  and  N_7 
REMARK    3  A    between atoms: C_5  and  C_6 
REMARK    4  A    between atoms: C_6  and  C_10 
REMARK    5  A    between atoms: C_6  and  N_9 
REMARK    6  A    between atoms: N_7  and  C_11 
REMARK    7  A    between atoms: C_11  and  C_15 
ROOT
HETATM    1  C           1     -26.207  -6.497 -19.505  0.00  0.00     0.249 C 
HETATM    2  N           1     -26.835  -6.314 -18.304  0.00  0.00    -0.344 N 
HETATM    3  O           1     -26.806  -6.305 -20.536  0.00  0.00    -0.271 OA
HETATM    4  H           1     -26.332  -6.475 -17.440  0.00  0.00     0.163 HD
ENDROOT
BRANCH   1   5
HETATM    5  C           1     -24.763  -6.938 -19.543  0.00  0.00     0.275 C 
BRANCH   5   6
HETATM    6  C           1     -24.599  -8.053 -20.568  0.00  0.00     0.046 C 
BRANCH   6   7
HETATM    7  C           1     -23.378  -7.772 -21.434  0.00  0.00    -0.020 C 
HETATM    8  C           1     -22.345  -8.871 -21.229  0.00  0.00     0.009 C 
HETATM    9  C           1     -23.794  -7.734 -22.898  0.00  0.00     0.009 C 
ENDBRANCH   6   7
ENDBRANCH   5   6
BRANCH   5  10
HETATM   10  N           1     -24.359  -7.441 -18.190  0.00  0.00    -0.066 N 
HETATM   11  H           1     -24.864  -6.899 -17.452  0.00  0.00     0.275 HD
HETATM   12  H           1     -23.328  -7.319 -18.066  0.00  0.00     0.275 HD
HETATM   13  H           1     -24.603  -8.454 -18.107  0.00  0.00     0.275 HD
ENDBRANCH   5  10
ENDBRANCH   1   5
BRANCH   2  14
HETATM   14  C           1     -28.221  -5.890 -18.267  0.00  0.00     0.189 C 
BRANCH  14  15
HETATM   15  C           1     -28.345  -4.650 -17.417  0.00  0.00     0.197 C 
HETATM   16  O           1     -29.107  -3.724 -17.767  0.00  0.00    -0.646 OA
HETATM   17  O           1     -27.683  -4.548 -16.360  0.00  0.00    -0.646 OA
ENDBRANCH  14  15
BRANCH  14  18
HETATM   18  C           1     -29.076  -7.002 -17.673  0.00  0.00     0.010 C 
HETATM   19  C           1     -29.597  -7.894 -18.791  0.00  0.00     0.012 C 
HETATM   20  C           1     -30.251  -6.392 -16.920  0.00  0.00     0.012 C 
ENDBRANCH  14  18
ENDBRANCH   2  14
TORSDOF 7
ENDMDL
MODEL 4
REMARK VINA RESULT:      -5.9      1.466      1.978
REMARK  7 active torsions:
REMARK  status: ('A' for Active; 'I' for Inactive)
REMARK    1  A    between atoms: C_2  and  C_11 
REMARK    2  A    between atoms: C_3  and  C_10 
REMARK       I    between atoms: C_5  and  N_7 
REMARK    3  A    between atoms: C_5  and  C_6 
REMARK    4  A    between atoms: C_6  and  C_10 
REMARK    5  A    between atoms: C_6  and  N_9 
REMARK    6  A    between atoms: N_7  and  C_11 
REMARK    7  A    between atoms: C_11  and  C_15 
ROOT
HETATM    1  C           1     -22.229  -4.120  -7.688  0.00  0.00     0.249 C 
HETATM    2  N           1     -22.564  -4.619  -8.918  0.00  0.00    -0.344 N 
HETATM    3  O           1     -21.901  -2.964  -7.574  0.00  0.00    -0.271 OA
HETATM    4  H           1     -22.839  -5.588  -9.013  0.00  0.00     0.163 HD
ENDROOT
BRANCH   1   5
HETATM    5  C           1     -22.268  -5.017  -6.474  0.00  0.00     0.275 C 
BRANCH   5   6
HETATM    6  C           1     -21.498  -6.298  -6.763  0.00  0.00     0.046 C 
BRANCH   6   7
HETATM    7  C           1     -20.262  -6.359  -5.875  0.00  0.00    -0.020 C 
HETATM    8  C           1     -20.161  -5.081  -5.053  0.00  0.00     0.009 C 
HETATM    9  C           1     -20.369  -7.556  -4.939  0.00  0.00     0.009 C 
ENDBRANCH   6   7
ENDBRANCH   5   6
BRANCH   5  10
HETATM   10  N           1     -23.692  -5.353  -6.148  0.00  0.00    -0.066 N 
HETATM   11  H           1     -23.738  -5.791  -5.200  0.00  0.00     0.275 HD
HETATM   12  H           1     -24.064  -6.023  -6.858  0.00  0.00     0.275 HD
HETATM   13  H           1     -24.268  -4.480  -6.157  0.00  0.00     0.275 HD
ENDBRANCH   5  10
ENDBRANCH   1   5
BRANCH   2  14
HETATM   14  C           1     -22.526  -3.758 -10.085  0.00  0.00     0.189 C 
BRANCH  14  15
HETATM   15  C           1     -23.780  -3.961 -10.899  0.00  0.00     0.197 C 
HETATM   16  O           1     -24.810  -3.305 -10.636  0.00  0.00    -0.646 OA
HETATM   17  O           1     -23.787  -4.787 -11.838  0.00  0.00    -0.646 OA
ENDBRANCH  14  15
BRANCH  14  18
HETATM   18  C           1     -21.307  -4.103 -10.930  0.00  0.00     0.010 C 
HETATM   19  C           1     -20.261  -4.784 -10.058  0.00  0.00     0.012 C 
HETATM   20  C           1     -20.723  -2.828 -11.523  0.00  0.00     0.012 C 
ENDBRANCH  14  18
ENDBRANCH   2  14
TORSDOF 7
ENDMDL
MODEL 5
REMARK VINA RESULT:      -5.7      2.805      6.625
REMARK  7 active torsions:
REMARK  status: ('A' for Active; 'I' for Inactive)
REMARK    1  A    between atoms: C_2  and  C_11 
REMARK    2  A    between atoms: C_3  and  C_10 
REMARK       I    between atoms: C_5  and  N_7 
REMARK    3  A    between atoms: C_5  and  C_6 
REMARK    4  A    between atoms: C_6  and  C_10 
REMARK    5  A    between atoms: C_6  and  N_9 
REMARK    6  A    between atoms: N_7  and  C_11 
REMARK    7  A    between atoms: C_11  and  C_15 
ROOT
HETATM    1  C           1     -21.710  -5.798  -5.531  0.00  0.00     0.249 C 
HETATM    2  N           1     -20.943  -6.540  -4.675  0.00  0.00    -0.344 N 
HETATM    3  O           1     -22.911  -5.922  -5.530  0.00  0.00    -0.271 OA
HETATM    4  H           1     -19.936  -6.435  -4.677  0.00  0.00     0.163 HD
ENDROOT
BRANCH   1   5
HETATM    5  C           1     -21.054  -4.821  -6.478  0.00  0.00     0.275 C 
BRANCH   5   6
HETATM    6  C           1     -21.223  -5.311  -7.910  0.00  0.00     0.046 C 
BRANCH   6   7
HETATM    7  C           1     -21.319  -4.114  -8.848  0.00  0.00    -0.020 C 
HETATM    8  C           1     -20.417  -4.339 -10.054  0.00  0.00     0.009 C 
HETATM    9  C           1     -22.760  -3.952  -9.316  0.00  0.00     0.009 C 
ENDBRANCH   6   7
ENDBRANCH   5   6
BRANCH   5  10
HETATM   10  N           1     -19.594  -4.716  -6.155  0.00  0.00    -0.066 N 
HETATM   11  H           1     -19.135  -5.641  -6.314  0.00  0.00     0.275 HD
HETATM   12  H           1     -19.477  -4.437  -5.155  0.00  0.00     0.275 HD
HETATM   13  H           1     -19.152  -3.997  -6.771  0.00  0.00     0.275 HD
ENDBRANCH   5  10
ENDBRANCH   1   5
BRANCH   2  14
HETATM   14  C           1     -21.572  -7.479  -3.765  0.00  0.00     0.189 C 
BRANCH  14  15
HETATM   15  C           1     -21.601  -6.889  -2.377  0.00  0.00     0.197 C 
HETATM   16  O           1     -20.936  -7.416  -1.459  0.00  0.00    -0.646 OA
HETATM   17  O           1     -22.291  -5.873  -2.144  0.00  0.00    -0.646 OA
ENDBRANCH  14  15
BRANCH  14  18
HETATM   18  C           1     -20.779  -8.779  -3.750  0.00  0.00     0.010 C 
HETATM   19  C           1     -19.602  -8.667  -4.709  0.00  0.00     0.012 C 
HETATM   20  C           1     -21.681  -9.927  -4.184  0.00  0.00     0.012 C 
ENDBRANCH  14  18
ENDBRANCH   2  14
TORSDOF 7
ENDMDL
MODEL 6
REMARK VINA RESULT:      -5.6      5.227      8.307
REMARK  7 active torsions:
REMARK  status: ('A' for Active; 'I' for Inactive)
REMARK    1  A    between atoms: C_2  and  C_11 
REMARK    2  A    between atoms: C_3  and  C_10 
REMARK       I    between atoms: C_5  and  N_7 
REMARK    3  A    between atoms: C_5  and  C_6 
REMARK    4  A    between atoms: C_6  and  C_10 
REMARK    5  A    between atoms: C_6  and  N_9 
REMARK    6  A    between atoms: N_7  and  C_11 
REMARK    7  A    between atoms: C_11  and  C_15 
ROOT
HETATM    1  C           1     -20.157  -8.615  -3.362  0.00  0.00     0.249 C 
HETATM    2  N           1     -21.367  -8.591  -2.723  0.00  0.00    -0.344 N 
HETATM    3  O           1     -19.168  -8.975  -2.771  0.00  0.00    -0.271 OA
HETATM    4  H           1     -22.196  -8.289  -3.219  0.00  0.00     0.163 HD
ENDROOT
BRANCH   1   5
HETATM    5  C           1     -20.060  -8.191  -4.808  0.00  0.00     0.275 C 
BRANCH   5   6
HETATM    6  C           1     -20.931  -6.964  -5.037  0.00  0.00     0.046 C 
BRANCH   6   7
HETATM    7  C           1     -20.248  -6.033  -6.031  0.00  0.00    -0.020 C 
HETATM    8  C           1     -21.077  -5.952  -7.306  0.00  0.00     0.009 C 
HETATM    9  C           1     -20.121  -4.644  -5.420  0.00  0.00     0.009 C 
ENDBRANCH   6   7
ENDBRANCH   5   6
BRANCH   5  10
HETATM   10  N           1     -20.530  -9.309  -5.689  0.00  0.00    -0.066 N 
HETATM   11  H           1     -21.507  -9.115  -6.006  0.00  0.00     0.275 HD
HETATM   12  H           1     -20.509 -10.207  -5.155  0.00  0.00     0.275 HD
HETATM   13  H           1     -19.902  -9.384  -6.522  0.00  0.00     0.275 HD
ENDBRANCH   5  10
ENDBRANCH   1   5
BRANCH   2  14
HETATM   14  C           1     -21.461  -8.999  -1.334  0.00  0.00     0.189 C 
BRANCH  14  15
HETATM   15  C           1     -22.018 -10.398  -1.258  0.00  0.00     0.197 C 
HETATM   16  O           1     -21.247 -11.381  -1.282  0.00  0.00    -0.646 OA
HETATM   17  O           1     -23.253 -10.575  -1.170  0.00  0.00    -0.646 OA
ENDBRANCH  14  15
BRANCH  14  18
HETATM   18  C           1     -22.381  -8.042  -0.586  0.00  0.00     0.010 C 
HETATM   19  C           1     -22.270  -6.652  -1.195  0.00  0.00     0.012 C 
HETATM   20  C           1     -21.974  -7.990   0.881  0.00  0.00     0.012 C 
ENDBRANCH  14  18
ENDBRANCH   2  14
TORSDOF 7
ENDMDL
MODEL 7
REMARK VINA RESULT:      -5.5      2.663      6.583
REMARK  7 active torsions:
REMARK  status: ('A' for Active; 'I' for Inactive)
REMARK    1  A    between atoms: C_2  and  C_11 
REMARK    2  A    between atoms: C_3  and  C_10 
REMARK       I    between atoms: C_5  and  N_7 
REMARK    3  A    between atoms: C_5  and  C_6 
REMARK    4  A    between atoms: C_6  and  C_10 
REMARK    5  A    between atoms: C_6  and  N_9 
REMARK    6  A    between atoms: N_7  and  C_11 
REMARK    7  A    between atoms: C_11  and  C_15 
ROOT
HETATM    1  C           1     -20.969  -5.848  -6.746  0.00  0.00     0.249 C 
HETATM    2  N           1     -21.462  -6.632  -5.738  0.00  0.00    -0.344 N 
HETATM    3  O           1     -19.777  -5.724  -6.888  0.00  0.00    -0.271 OA
HETATM    4  H           1     -22.462  -6.735  -5.620  0.00  0.00     0.163 HD
ENDROOT
BRANCH   1   5
HETATM    5  C           1     -21.918  -5.136  -7.681  0.00  0.00     0.275 C 
BRANCH   5   6
HETATM    6  C           1     -21.136  -4.168  -8.558  0.00  0.00     0.046 C 
BRANCH   6   7
HETATM    7  C           1     -21.511  -4.387 -10.018  0.00  0.00    -0.020 C 
HETATM    8  C           1     -22.784  -3.615 -10.339  0.00  0.00     0.009 C 
HETATM    9  C           1     -20.380  -3.893 -10.911  0.00  0.00     0.009 C 
ENDBRANCH   6   7
ENDBRANCH   5   6
BRANCH   5  10
HETATM   10  N           1     -22.933  -4.378  -6.881  0.00  0.00    -0.066 N 
HETATM   11  H           1     -22.937  -3.377  -7.183  0.00  0.00     0.275 HD
HETATM   12  H           1     -22.690  -4.433  -5.866  0.00  0.00     0.275 HD
HETATM   13  H           1     -23.880  -4.792  -7.036  0.00  0.00     0.275 HD
ENDBRANCH   5  10
ENDBRANCH   1   5
BRANCH   2  14
HETATM   14  C           1     -20.552  -7.315  -4.840  0.00  0.00     0.189 C 
BRANCH  14  15
HETATM   15  C           1     -20.163  -8.646  -5.435  0.00  0.00     0.197 C 
HETATM   16  O           1     -21.040  -9.501  -5.682  0.00  0.00    -0.646 OA
HETATM   17  O           1     -18.962  -8.893  -5.681  0.00  0.00    -0.646 OA
ENDBRANCH  14  15
BRANCH  14  18
HETATM   18  C           1     -21.236  -7.537  -3.497  0.00  0.00     0.010 C 
HETATM   19  C           1     -21.624  -6.194  -2.897  0.00  0.00     0.012 C 
HETATM   20  C           1     -20.281  -8.258  -2.555  0.00  0.00     0.012 C 
ENDBRANCH  14  18
ENDBRANCH   2  14
TORSDOF 7
ENDMDL
MODEL 8
REMARK VINA RESULT:      -5.5      5.836      8.765
REMARK  7 active torsions:
REMARK  status: ('A' for Active; 'I' for Inactive)
REMARK    1  A    between atoms: C_2  and  C_11 
REMARK    2  A    between atoms: C_3  and  C_10 
REMARK       I    between atoms: C_5  and  N_7 
REMARK    3  A    between atoms: C_5  and  C_6 
REMARK    4  A    between atoms: C_6  and  C_10 
REMARK    5  A    between atoms: C_6  and  N_9 
REMARK    6  A    between atoms: N_7  and  C_11 
REMARK    7  A    between atoms: C_11  and  C_15 
ROOT
HETATM    1  C           1     -20.494  -9.127  -2.545  0.00  0.00     0.249 C 
HETATM    2  N           1     -21.757  -9.040  -2.026  0.00  0.00    -0.344 N 
HETATM    3  O           1     -19.641  -9.749  -1.959  0.00  0.00    -0.271 OA
HETATM    4  H           1     -22.472  -8.518  -2.517  0.00  0.00     0.163 HD
ENDROOT
BRANCH   1   5
HETATM    5  C           1     -20.167  -8.445  -3.852  0.00  0.00     0.275 C 
BRANCH   5   6
HETATM    6  C           1     -21.419  -8.372  -4.715  0.00  0.00     0.046 C 
BRANCH   6   7
HETATM    7  C           1     -21.709  -6.919  -5.068  0.00  0.00    -0.020 C 
HETATM    8  C           1     -21.301  -6.021  -3.909  0.00  0.00     0.009 C 
HETATM    9  C           1     -20.918  -6.533  -6.311  0.00  0.00     0.009 C 
ENDBRANCH   6   7
ENDBRANCH   5   6
BRANCH   5  10
HETATM   10  N           1     -19.109  -9.226  -4.572  0.00  0.00    -0.066 N 
HETATM   11  H           1     -18.712  -9.949  -3.929  0.00  0.00     0.275 HD
HETATM   12  H           1     -18.347  -8.580  -4.880  0.00  0.00     0.275 HD
HETATM   13  H           1     -19.528  -9.693  -5.407  0.00  0.00     0.275 HD
ENDBRANCH   5  10
ENDBRANCH   1   5
BRANCH   2  14
HETATM   14  C           1     -22.072  -9.695  -0.770  0.00  0.00     0.189 C 
BRANCH  14  15
HETATM   15  C           1     -23.279 -10.581  -0.956  0.00  0.00     0.197 C 
HETATM   16  O           1     -24.110 -10.708  -0.032  0.00  0.00    -0.646 OA
HETATM   17  O           1     -23.447 -11.190  -2.035  0.00  0.00    -0.646 OA
ENDBRANCH  14  15
BRANCH  14  18
HETATM   18  C           1     -22.370  -8.643   0.290  0.00  0.00     0.010 C 
HETATM   19  C           1     -22.558  -7.288  -0.379  0.00  0.00     0.012 C 
HETATM   20  C           1     -21.208  -8.569   1.271  0.00  0.00     0.012 C 
ENDBRANCH  14  18
ENDBRANCH   2  14
TORSDOF 7
ENDMDL
MODEL 9
REMARK VINA RESULT:      -5.3     18.095     20.004
REMARK  7 active torsions:
REMARK  status: ('A' for Active; 'I' for Inactive)
REMARK    1  A    between atoms: C_2  and  C_11 
REMARK    2  A    between atoms: C_3  and  C_10 
REMARK       I    between atoms: C_5  and  N_7 
REMARK    3  A    between atoms: C_5  and  C_6 
REMARK    4  A    between atoms: C_6  and  C_10 
REMARK    5  A    between atoms: C_6  and  N_9 
REMARK    6  A    between atoms: N_7  and  C_11 
REMARK    7  A    between atoms: C_11  and  C_15 
ROOT
HETATM    1  C           1     -11.619   5.950 -19.937  0.00  0.00     0.249 C 
HETATM    2  N           1     -11.660   4.953 -20.873  0.00  0.00    -0.344 N 
HETATM    3  O           1     -12.631   6.295 -19.376  0.00  0.00    -0.271 OA
HETATM    4  H           1     -10.811   4.665 -21.343  0.00  0.00     0.163 HD
ENDROOT
BRANCH   1   5
HETATM    5  C           1     -10.307   6.621 -19.606  0.00  0.00     0.275 C 
BRANCH   5   6
HETATM    6  C           1      -9.566   6.952 -20.894  0.00  0.00     0.046 C 
BRANCH   6   7
HETATM    7  C           1      -9.506   8.463 -21.073  0.00  0.00    -0.020 C 
HETATM    8  C           1     -10.319   8.865 -22.296  0.00  0.00     0.009 C 
HETATM    9  C           1     -10.082   9.142 -19.837  0.00  0.00     0.009 C 
ENDBRANCH   6   7
ENDBRANCH   5   6
BRANCH   5  10
HETATM   10  N           1      -9.471   5.697 -18.772  0.00  0.00    -0.066 N 
HETATM   11  H           1      -9.051   4.961 -19.383  0.00  0.00     0.275 HD
HETATM   12  H           1     -10.070   5.245 -18.045  0.00  0.00     0.275 HD
HETATM   13  H           1      -8.709   6.241 -18.308  0.00  0.00     0.275 HD
ENDBRANCH   5  10
ENDBRANCH   1   5
BRANCH   2  14
HETATM   14  C           1     -12.920   4.309 -21.192  0.00  0.00     0.189 C 
BRANCH  14  15
HETATM   15  C           1     -12.733   2.812 -21.190  0.00  0.00     0.197 C 
HETATM   16  O           1     -13.724   2.057 -21.293  0.00  0.00    -0.646 OA
HETATM   17  O           1     -11.586   2.326 -21.085  0.00  0.00    -0.646 OA
ENDBRANCH  14  15
BRANCH  14  18
HETATM   18  C           1     -13.388   4.762 -22.569  0.00  0.00     0.010 C 
HETATM   19  C           1     -12.763   6.111 -22.898  0.00  0.00     0.012 C 
HETATM   20  C           1     -14.905   4.891 -22.572  0.00  0.00     0.012 C 
ENDBRANCH  14  18
ENDBRANCH   2  14
TORSDOF 7
ENDMDL
