MODEL 1
REMARK VINA RESULT:      -6.7      0.000      0.000
REMARK  7 active torsions:
REMARK  status: ('A' for Active; 'I' for Inactive)
REMARK    1  A    between atoms: C_1  and  C_2 
REMARK    2  A    between atoms: C_1  and  C_6 
REMARK    3  A    between atoms: C_2  and  C_3 
REMARK    4  A    between atoms: C_2  and  N_12 
REMARK       I    between atoms: C_3  and  N_4 
REMARK    5  A    between atoms: C_5  and  C_24 
REMARK    6  A    between atoms: C_6  and  C_7 
REMARK    7  A    between atoms: C_7  and  N_8 
REMARK       I    between atoms: N_8  and  C_9 
REMARK       I    between atoms: C_9  and  N_10 
ROOT
HETATM    1  C           1     -36.442  -0.382 -11.158  0.00  0.00     0.275 C 
ENDROOT
BRANCH   1   2
HETATM    2  C           1     -35.992  -1.804 -10.845  0.00  0.00     0.044 C 
BRANCH   2   3
HETATM    3  C           1     -34.498  -1.810 -10.549  0.00  0.00     0.023 C 
BRANCH   3   4
HETATM    4  C           1     -33.894  -3.130 -11.010  0.00  0.00     0.138 C 
BRANCH   4   5
HETATM    5  N           1     -33.746  -3.118 -12.473  0.00  0.00    -0.227 N 
HETATM    6  C           1     -34.067  -4.137 -13.150  0.00  0.00     0.665 C 
HETATM    7  N           1     -33.940  -4.126 -14.410  0.00  0.00    -0.235 N 
HETATM    8  N           1     -34.529  -5.195 -12.553  0.00  0.00    -0.235 N 
HETATM    9  H           1     -34.206  -4.972 -14.972  0.00  0.00     0.174 HD
HETATM   10  H           1     -33.566  -3.272 -14.892  0.00  0.00     0.174 HD
HETATM   11  H           1     -34.795  -6.037 -13.112  0.00  0.00     0.174 HD
HETATM   12  H           1     -34.636  -5.204 -11.513  0.00  0.00     0.174 HD
HETATM   13  H           1     -33.373  -2.262 -12.955  0.00  0.00     0.177 HD
ENDBRANCH   4   5
ENDBRANCH   3   4
ENDBRANCH   2   3
ENDBRANCH   1   2
BRANCH   1  14
HETATM   14  C           1     -36.949  -0.316 -12.577  0.00  0.00     0.251 C 
HETATM   15  N           1     -36.135   0.149 -13.575  0.00  0.00    -0.336 N 
HETATM   16  C           1     -36.453   0.283 -14.993  0.00  0.00     0.188 C 
HETATM   17  C           1     -34.758   0.619 -13.451  0.00  0.00     0.127 C 
HETATM   18  C           1     -35.822   1.609 -15.383  0.00  0.00     0.038 C 
HETATM   19  C           1     -34.704   1.827 -14.371  0.00  0.00     0.022 C 
HETATM   20  O           1     -38.075  -0.673 -12.834  0.00  0.00    -0.271 OA
BRANCH  16  21
HETATM   21  C           1     -35.854  -0.852 -15.787  0.00  0.00     0.196 C 
HETATM   22  O           1     -35.187  -1.737 -15.208  0.00  0.00    -0.646 OA
HETATM   23  O           1     -36.024  -0.907 -17.024  0.00  0.00    -0.646 OA
ENDBRANCH  16  21
ENDBRANCH   1  14
BRANCH   1  24
HETATM   24  N           1     -37.540   0.013 -10.216  0.00  0.00    -0.067 N 
HETATM   25  H           1     -38.335   0.421 -10.759  0.00  0.00     0.275 HD
HETATM   26  H           1     -37.872  -0.828  -9.695  0.00  0.00     0.275 HD
HETATM   27  H           1     -37.180   0.724  -9.540  0.00  0.00     0.275 HD
ENDBRANCH   1  24
TORSDOF 7
ENDMDL
MODEL 2
REMARK VINA RESULT:      -6.7      2.029      4.809
REMARK  7 active torsions:
REMARK  status: ('A' for Active; 'I' for Inactive)
REMARK    1  A    between atoms: C_1  and  C_2 
REMARK    2  A    between atoms: C_1  and  C_6 
REMARK    3  A    between atoms: C_2  and  C_3 
REMARK    4  A    between atoms: C_2  and  N_12 
REMARK       I    between atoms: C_3  and  N_4 
REMARK    5  A    between atoms: C_5  and  C_24 
REMARK    6  A    between atoms: C_6  and  C_7 
REMARK    7  A    between atoms: C_7  and  N_8 
REMARK       I    between atoms: N_8  and  C_9 
REMARK       I    between atoms: C_9  and  N_10 
ROOT
HETATM    1  C           1     -36.207  -1.093 -10.481  0.00  0.00     0.275 C 
ENDROOT
BRANCH   1   2
HETATM    2  C           1     -36.928   0.083 -11.128  0.00  0.00     0.044 C 
BRANCH   2   3
HETATM    3  C           1     -38.075  -0.433 -11.986  0.00  0.00     0.023 C 
BRANCH   3   4
HETATM    4  C           1     -37.906   0.067 -13.414  0.00  0.00     0.138 C 
BRANCH   4   5
HETATM    5  N           1     -36.603  -0.370 -13.937  0.00  0.00    -0.227 N 
HETATM    6  C           1     -36.197   0.053 -15.058  0.00  0.00     0.665 C 
HETATM    7  N           1     -35.075  -0.324 -15.507  0.00  0.00    -0.235 N 
HETATM    8  N           1     -36.931   0.874 -15.748  0.00  0.00    -0.235 N 
HETATM    9  H           1     -34.737   0.027 -16.438  0.00  0.00     0.174 HD
HETATM   10  H           1     -34.482  -0.987 -14.951  0.00  0.00     0.174 HD
HETATM   11  H           1     -36.595   1.224 -16.674  0.00  0.00     0.174 HD
HETATM   12  H           1     -37.857   1.186 -15.377  0.00  0.00     0.174 HD
HETATM   13  H           1     -36.010  -1.034 -13.379  0.00  0.00     0.177 HD
ENDBRANCH   4   5
ENDBRANCH   3   4
ENDBRANCH   2   3
ENDBRANCH   1   2
BRANCH   1  14
HETATM   14  C           1     -35.068  -1.535 -11.367  0.00  0.00     0.251 C 
HETATM   15  N           1     -34.792  -2.868 -11.513  0.00  0.00    -0.336 N 
HETATM   16  C           1     -33.738  -3.475 -12.322  0.00  0.00     0.188 C 
HETATM   17  C           1     -35.487  -3.993 -10.894  0.00  0.00     0.127 C 
HETATM   18  C           1     -33.214  -4.601 -11.447  0.00  0.00     0.038 C 
HETATM   19  C           1     -34.366  -4.945 -10.511  0.00  0.00     0.022 C 
HETATM   20  O           1     -34.400  -0.713 -11.949  0.00  0.00    -0.271 OA
BRANCH  16  21
HETATM   21  C           1     -34.297  -4.014 -13.615  0.00  0.00     0.196 C 
HETATM   22  O           1     -34.324  -3.291 -14.634  0.00  0.00    -0.646 OA
HETATM   23  O           1     -34.734  -5.184 -13.667  0.00  0.00    -0.646 OA
ENDBRANCH  16  21
ENDBRANCH   1  14
BRANCH   1  24
HETATM   24  N           1     -35.667  -0.676  -9.146  0.00  0.00    -0.067 N 
HETATM   25  H           1     -34.641  -0.495  -9.225  0.00  0.00     0.275 HD
HETATM   26  H           1     -36.150   0.194  -8.832  0.00  0.00     0.275 HD
HETATM   27  H           1     -35.833  -1.439  -8.450  0.00  0.00     0.275 HD
ENDBRANCH   1  24
TORSDOF 7
ENDMDL
MODEL 3
REMARK VINA RESULT:      -6.5     14.004     15.933
REMARK  7 active torsions:
REMARK  status: ('A' for Active; 'I' for Inactive)
REMARK    1  A    between atoms: C_1  and  C_2 
REMARK    2  A    between atoms: C_1  and  C_6 
REMARK    3  A    between atoms: C_2  and  C_3 
REMARK    4  A    between atoms: C_2  and  N_12 
REMARK       I    between atoms: C_3  and  N_4 
REMARK    5  A    between atoms: C_5  and  C_24 
REMARK    6  A    between atoms: C_6  and  C_7 
REMARK    7  A    between atoms: C_7  and  N_8 
REMARK       I    between atoms: N_8  and  C_9 
REMARK       I    between atoms: C_9  and  N_10 
ROOT
HETATM    1  C           1     -20.337  -5.260  -7.404  0.00  0.00     0.275 C 
ENDROOT
BRANCH   1   2
HETATM    2  C           1     -20.754  -5.617  -5.983  0.00  0.00     0.044 C 
BRANCH   2   3
HETATM    3  C           1     -21.066  -7.105  -5.903  0.00  0.00     0.023 C 
BRANCH   3   4
HETATM    4  C           1     -21.114  -7.536  -4.444  0.00  0.00     0.138 C 
BRANCH   4   5
HETATM    5  N           1     -21.624  -6.430  -3.621  0.00  0.00    -0.227 N 
HETATM    6  C           1     -21.831  -6.603  -2.385  0.00  0.00     0.665 C 
HETATM    7  N           1     -22.270  -5.649  -1.677  0.00  0.00    -0.235 N 
HETATM    8  N           1     -21.591  -7.758  -1.842  0.00  0.00    -0.235 N 
HETATM    9  H           1     -22.441  -5.793  -0.651  0.00  0.00     0.174 HD
HETATM   10  H           1     -22.464  -4.715  -2.116  0.00  0.00     0.174 HD
HETATM   11  H           1     -21.760  -7.901  -0.820  0.00  0.00     0.174 HD
HETATM   12  H           1     -21.227  -8.545  -2.425  0.00  0.00     0.174 HD
HETATM   13  H           1     -21.818  -5.495  -4.061  0.00  0.00     0.177 HD
ENDBRANCH   4   5
ENDBRANCH   3   4
ENDBRANCH   2   3
ENDBRANCH   1   2
BRANCH   1  14
HETATM   14  C           1     -21.436  -4.468  -8.069  0.00  0.00     0.251 C 
HETATM   15  N           1     -21.443  -4.316  -9.429  0.00  0.00    -0.336 N 
HETATM   16  C           1     -22.418  -3.589 -10.238  0.00  0.00     0.188 C 
HETATM   17  C           1     -20.478  -4.845 -10.388  0.00  0.00     0.127 C 
HETATM   18  C           1     -21.569  -2.880 -11.279  0.00  0.00     0.038 C 
HETATM   19  C           1     -20.295  -3.709 -11.382  0.00  0.00     0.022 C 
HETATM   20  O           1     -22.310  -3.968  -7.400  0.00  0.00    -0.271 OA
BRANCH  16  21
HETATM   21  C           1     -23.389  -4.541 -10.892  0.00  0.00     0.196 C 
HETATM   22  O           1     -24.151  -5.238 -10.188  0.00  0.00    -0.646 OA
HETATM   23  O           1     -23.431  -4.632 -12.138  0.00  0.00    -0.646 OA
ENDBRANCH  16  21
ENDBRANCH   1  14
BRANCH   1  24
HETATM   24  N           1     -19.083  -4.439  -7.366  0.00  0.00    -0.067 N 
HETATM   25  H           1     -18.291  -4.990  -7.769  0.00  0.00     0.275 HD
HETATM   26  H           1     -19.219  -3.568  -7.926  0.00  0.00     0.275 HD
HETATM   27  H           1     -18.863  -4.187  -6.376  0.00  0.00     0.275 HD
ENDBRANCH   1  24
TORSDOF 7
ENDMDL
MODEL 4
REMARK VINA RESULT:      -6.4     10.088     12.349
REMARK  7 active torsions:
REMARK  status: ('A' for Active; 'I' for Inactive)
REMARK    1  A    between atoms: C_1  and  C_2 
REMARK    2  A    between atoms: C_1  and  C_6 
REMARK    3  A    between atoms: C_2  and  C_3 
REMARK    4  A    between atoms: C_2  and  N_12 
REMARK       I    between atoms: C_3  and  N_4 
REMARK    5  A    between atoms: C_5  and  C_24 
REMARK    6  A    between atoms: C_6  and  C_7 
REMARK    7  A    between atoms: C_7  and  N_8 
REMARK       I    between atoms: N_8  and  C_9 
REMARK       I    between atoms: C_9  and  N_10 
ROOT
HETATM    1  C           1     -25.761  -6.357 -17.123  0.00  0.00     0.275 C 
ENDROOT
BRANCH   1   2
HETATM    2  C           1     -25.857  -6.668 -18.611  0.00  0.00     0.044 C 
BRANCH   2   3
HETATM    3  C           1     -24.490  -7.089 -19.132  0.00  0.00     0.023 C 
BRANCH   3   4
HETATM    4  C           1     -24.638  -7.686 -20.525  0.00  0.00     0.138 C 
BRANCH   4   5
HETATM    5  N           1     -23.499  -8.573 -20.802  0.00  0.00    -0.227 N 
HETATM    6  C           1     -22.982  -8.596 -21.957  0.00  0.00     0.665 C 
HETATM    7  N           1     -22.000  -9.360 -22.195  0.00  0.00    -0.235 N 
HETATM    8  N           1     -23.457  -7.835 -22.897  0.00  0.00    -0.235 N 
HETATM    9  H           1     -21.571  -9.379 -23.154  0.00  0.00     0.174 HD
HETATM   10  H           1     -21.617  -9.975 -21.436  0.00  0.00     0.174 HD
HETATM   11  H           1     -23.028  -7.854 -23.851  0.00  0.00     0.174 HD
HETATM   12  H           1     -24.266  -7.204 -22.701  0.00  0.00     0.174 HD
HETATM   13  H           1     -23.115  -9.188 -20.042  0.00  0.00     0.177 HD
ENDBRANCH   4   5
ENDBRANCH   3   4
ENDBRANCH   2   3
ENDBRANCH   1   2
BRANCH   1  14
HETATM   14  C           1     -27.095  -6.614 -16.467  0.00  0.00     0.251 C 
HETATM   15  N           1     -28.231  -6.051 -16.983  0.00  0.00    -0.336 N 
HETATM   16  C           1     -29.597  -6.188 -16.485  0.00  0.00     0.188 C 
HETATM   17  C           1     -28.341  -5.182 -18.151  0.00  0.00     0.127 C 
HETATM   18  C           1     -30.177  -4.791 -16.627  0.00  0.00     0.038 C 
HETATM   19  C           1     -29.354  -4.131 -17.727  0.00  0.00     0.022 C 
HETATM   20  O           1     -27.161  -7.318 -15.487  0.00  0.00    -0.271 OA
BRANCH  16  21
HETATM   21  C           1     -30.374  -7.180 -17.315  0.00  0.00     0.196 C 
HETATM   22  O           1     -29.823  -8.229 -17.714  0.00  0.00    -0.646 OA
HETATM   23  O           1     -31.569  -6.952 -17.604  0.00  0.00    -0.646 OA
ENDBRANCH  16  21
ENDBRANCH   1  14
BRANCH   1  24
HETATM   24  N           1     -24.719  -7.234 -16.495  0.00  0.00    -0.067 N 
HETATM   25  H           1     -23.769  -6.848 -16.697  0.00  0.00     0.275 HD
HETATM   26  H           1     -24.868  -7.268 -15.462  0.00  0.00     0.275 HD
HETATM   27  H           1     -24.793  -8.199 -16.891  0.00  0.00     0.275 HD
ENDBRANCH   1  24
TORSDOF 7
ENDMDL
MODEL 5
REMARK VINA RESULT:      -6.1     13.934     15.866
REMARK  7 active torsions:
REMARK  status: ('A' for Active; 'I' for Inactive)
REMARK    1  A    between atoms: C_1  and  C_2 
REMARK    2  A    between atoms: C_1  and  C_6 
REMARK    3  A    between atoms: C_2  and  C_3 
REMARK    4  A    between atoms: C_2  and  N_12 
REMARK       I    between atoms: C_3  and  N_4 
REMARK    5  A    between atoms: C_5  and  C_24 
REMARK    6  A    between atoms: C_6  and  C_7 
REMARK    7  A    between atoms: C_7  and  N_8 
REMARK       I    between atoms: N_8  and  C_9 
REMARK       I    between atoms: C_9  and  N_10 
ROOT
HETATM    1  C           1     -21.935  -4.787  -6.540  0.00  0.00     0.275 C 
ENDROOT
BRANCH   1   2
HETATM    2  C           1     -20.936  -5.478  -5.620  0.00  0.00     0.044 C 
BRANCH   2   3
HETATM    3  C           1     -21.686  -6.260  -4.551  0.00  0.00     0.023 C 
BRANCH   3   4
HETATM    4  C           1     -21.156  -5.878  -3.175  0.00  0.00     0.138 C 
BRANCH   4   5
HETATM    5  N           1     -22.174  -6.174  -2.157  0.00  0.00    -0.227 N 
HETATM    6  C           1     -21.973  -7.091  -1.309  0.00  0.00     0.665 C 
HETATM    7  N           1     -22.850  -7.345  -0.432  0.00  0.00    -0.235 N 
HETATM    8  N           1     -20.866  -7.771  -1.337  0.00  0.00    -0.235 N 
HETATM    9  H           1     -22.683  -8.107   0.272  0.00  0.00     0.174 HD
HETATM   10  H           1     -23.745  -6.796  -0.409  0.00  0.00     0.174 HD
HETATM   11  H           1     -20.700  -8.528  -0.636  0.00  0.00     0.174 HD
HETATM   12  H           1     -20.142  -7.561  -2.060  0.00  0.00     0.174 HD
HETATM   13  H           1     -23.069  -5.623  -2.134  0.00  0.00     0.177 HD
ENDBRANCH   4   5
ENDBRANCH   3   4
ENDBRANCH   2   3
ENDBRANCH   1   2
BRANCH   1  14
HETATM   14  C           1     -21.603  -5.108  -7.976  0.00  0.00     0.251 C 
HETATM   15  N           1     -22.294  -4.501  -8.990  0.00  0.00    -0.336 N 
HETATM   16  C           1     -22.111  -4.687 -10.427  0.00  0.00     0.188 C 
HETATM   17  C           1     -23.375  -3.527  -8.871  0.00  0.00     0.127 C 
HETATM   18  C           1     -23.529  -4.712 -10.973  0.00  0.00     0.038 C 
HETATM   19  C           1     -24.359  -3.944  -9.951  0.00  0.00     0.022 C 
HETATM   20  O           1     -20.726  -5.899  -8.232  0.00  0.00    -0.271 OA
BRANCH  16  21
HETATM   21  C           1     -21.326  -3.543 -11.021  0.00  0.00     0.196 C 
HETATM   22  O           1     -20.143  -3.348 -10.668  0.00  0.00    -0.646 OA
HETATM   23  O           1     -21.859  -2.791 -11.865  0.00  0.00    -0.646 OA
ENDBRANCH  16  21
ENDBRANCH   1  14
BRANCH   1  24
HETATM   24  N           1     -23.320  -5.272  -6.228  0.00  0.00    -0.067 N 
HETATM   25  H           1     -23.704  -4.734  -5.419  0.00  0.00     0.275 HD
HETATM   26  H           1     -23.933  -5.133  -7.061  0.00  0.00     0.275 HD
HETATM   27  H           1     -23.285  -6.288  -5.985  0.00  0.00     0.275 HD
ENDBRANCH   1  24
TORSDOF 7
ENDMDL
MODEL 6
REMARK VINA RESULT:      -6.0      9.777     12.133
REMARK  7 active torsions:
REMARK  status: ('A' for Active; 'I' for Inactive)
REMARK    1  A    between atoms: C_1  and  C_2 
REMARK    2  A    between atoms: C_1  and  C_6 
REMARK    3  A    between atoms: C_2  and  C_3 
REMARK    4  A    between atoms: C_2  and  N_12 
REMARK       I    between atoms: C_3  and  N_4 
REMARK    5  A    between atoms: C_5  and  C_24 
REMARK    6  A    between atoms: C_6  and  C_7 
REMARK    7  A    between atoms: C_7  and  N_8 
REMARK       I    between atoms: N_8  and  C_9 
REMARK       I    between atoms: C_9  and  N_10 
ROOT
HETATM    1  C           1     -26.944  -6.115 -18.978  0.00  0.00     0.275 C 
ENDROOT
BRANCH   1   2
HETATM    2  C           1     -26.814  -6.742 -20.360  0.00  0.00     0.044 C 
BRANCH   2   3
HETATM    3  C           1     -25.359  -6.691 -20.806  0.00  0.00     0.023 C 
BRANCH   3   4
HETATM    4  C           1     -24.958  -8.040 -21.386  0.00  0.00     0.138 C 
BRANCH   4   5
HETATM    5  N           1     -23.663  -8.451 -20.824  0.00  0.00    -0.227 N 
HETATM    6  C           1     -22.664  -8.607 -21.584  0.00  0.00     0.665 C 
HETATM    7  N           1     -21.549  -8.960 -21.100  0.00  0.00    -0.235 N 
HETATM    8  N           1     -22.782  -8.403 -22.863  0.00  0.00    -0.235 N 
HETATM    9  H           1     -20.720  -9.090 -21.731  0.00  0.00     0.174 HD
HETATM   10  H           1     -21.454  -9.125 -20.068  0.00  0.00     0.174 HD
HETATM   11  H           1     -21.956  -8.532 -23.490  0.00  0.00     0.174 HD
HETATM   12  H           1     -23.702  -8.111 -23.263  0.00  0.00     0.174 HD
HETATM   13  H           1     -23.569  -8.615 -19.791  0.00  0.00     0.177 HD
ENDBRANCH   4   5
ENDBRANCH   3   4
ENDBRANCH   2   3
ENDBRANCH   1   2
BRANCH   1  14
HETATM   14  C           1     -28.340  -6.342 -18.450  0.00  0.00     0.251 C 
HETATM   15  N           1     -28.771  -5.667 -17.340  0.00  0.00    -0.336 N 
HETATM   16  C           1     -30.077  -5.759 -16.694  0.00  0.00     0.188 C 
HETATM   17  C           1     -28.024  -4.696 -16.545  0.00  0.00     0.127 C 
HETATM   18  C           1     -29.749  -5.739 -15.211  0.00  0.00     0.038 C 
HETATM   19  C           1     -28.401  -5.035 -15.112  0.00  0.00     0.022 C 
HETATM   20  O           1     -29.077  -7.121 -19.008  0.00  0.00    -0.271 OA
BRANCH  16  21
HETATM   21  C           1     -30.946  -4.584 -17.069  0.00  0.00     0.196 C 
HETATM   22  O           1     -30.648  -3.876 -18.055  0.00  0.00    -0.646 OA
HETATM   23  O           1     -31.963  -4.319 -16.393  0.00  0.00    -0.646 OA
ENDBRANCH  16  21
ENDBRANCH   1  14
BRANCH   1  24
HETATM   24  N           1     -25.951  -6.745 -18.047  0.00  0.00    -0.067 N 
HETATM   25  H           1     -25.527  -6.008 -17.438  0.00  0.00     0.275 HD
HETATM   26  H           1     -26.432  -7.454 -17.452  0.00  0.00     0.275 HD
HETATM   27  H           1     -25.198  -7.209 -18.605  0.00  0.00     0.275 HD
ENDBRANCH   1  24
TORSDOF 7
ENDMDL
MODEL 7
REMARK VINA RESULT:      -6.0     24.620     26.042
REMARK  7 active torsions:
REMARK  status: ('A' for Active; 'I' for Inactive)
REMARK    1  A    between atoms: C_1  and  C_2 
REMARK    2  A    between atoms: C_1  and  C_6 
REMARK    3  A    between atoms: C_2  and  C_3 
REMARK    4  A    between atoms: C_2  and  N_12 
REMARK       I    between atoms: C_3  and  N_4 
REMARK    5  A    between atoms: C_5  and  C_24 
REMARK    6  A    between atoms: C_6  and  C_7 
REMARK    7  A    between atoms: C_7  and  N_8 
REMARK       I    between atoms: N_8  and  C_9 
REMARK       I    between atoms: C_9  and  N_10 
ROOT
HETATM    1  C           1     -10.277   5.053 -19.922  0.00  0.00     0.275 C 
ENDROOT
BRANCH   1   2
HETATM    2  C           1     -10.949   3.686 -19.901  0.00  0.00     0.044 C 
BRANCH   2   3
HETATM    3  C           1     -11.406   3.323 -21.308  0.00  0.00     0.023 C 
BRANCH   3   4
HETATM    4  C           1     -12.867   2.895 -21.273  0.00  0.00     0.138 C 
BRANCH   4   5
HETATM    5  N           1     -13.629   3.670 -22.263  0.00  0.00    -0.227 N 
HETATM    6  C           1     -14.455   4.549 -21.880  0.00  0.00     0.665 C 
HETATM    7  N           1     -15.110   5.217 -22.733  0.00  0.00    -0.235 N 
HETATM    8  N           1     -14.629   4.767 -20.611  0.00  0.00    -0.235 N 
HETATM    9  H           1     -15.796   5.946 -22.415  0.00  0.00     0.174 HD
HETATM   10  H           1     -14.970   5.040 -23.758  0.00  0.00     0.174 HD
HETATM   11  H           1     -15.310   5.494 -20.294  0.00  0.00     0.174 HD
HETATM   12  H           1     -14.087   4.217 -19.906  0.00  0.00     0.174 HD
HETATM   13  H           1     -13.488   3.493 -23.289  0.00  0.00     0.177 HD
ENDBRANCH   4   5
ENDBRANCH   3   4
ENDBRANCH   2   3
ENDBRANCH   1   2
BRANCH   1  14
HETATM   14  C           1     -11.329   6.132 -19.863  0.00  0.00     0.251 C 
HETATM   15  N           1     -11.085   7.358 -20.423  0.00  0.00    -0.336 N 
HETATM   16  C           1     -11.978   8.512 -20.461  0.00  0.00     0.188 C 
HETATM   17  C           1      -9.874   7.794 -21.113  0.00  0.00     0.127 C 
HETATM   18  C           1     -11.058   9.691 -20.193  0.00  0.00     0.038 C 
HETATM   19  C           1      -9.675   9.220 -20.626  0.00  0.00     0.022 C 
HETATM   20  O           1     -12.388   5.916 -19.322  0.00  0.00    -0.271 OA
BRANCH  16  21
HETATM   21  C           1     -12.634   8.639 -21.814  0.00  0.00     0.196 C 
HETATM   22  O           1     -13.373   7.725 -22.238  0.00  0.00    -0.646 OA
HETATM   23  O           1     -12.439   9.659 -22.510  0.00  0.00    -0.646 OA
ENDBRANCH  16  21
ENDBRANCH   1  14
BRANCH   1  24
HETATM   24  N           1      -9.365   5.179 -18.739  0.00  0.00    -0.067 N 
HETATM   25  H           1      -8.392   4.919 -19.018  0.00  0.00     0.275 HD
HETATM   26  H           1      -9.375   6.165 -18.395  0.00  0.00     0.275 HD
HETATM   27  H           1      -9.691   4.540 -17.978  0.00  0.00     0.275 HD
ENDBRANCH   1  24
TORSDOF 7
ENDMDL
MODEL 8
REMARK VINA RESULT:      -6.0     15.071     17.753
REMARK  7 active torsions:
REMARK  status: ('A' for Active; 'I' for Inactive)
REMARK    1  A    between atoms: C_1  and  C_2 
REMARK    2  A    between atoms: C_1  and  C_6 
REMARK    3  A    between atoms: C_2  and  C_3 
REMARK    4  A    between atoms: C_2  and  N_12 
REMARK       I    between atoms: C_3  and  N_4 
REMARK    5  A    between atoms: C_5  and  C_24 
REMARK    6  A    between atoms: C_6  and  C_7 
REMARK    7  A    between atoms: C_7  and  N_8 
REMARK       I    between atoms: N_8  and  C_9 
REMARK       I    between atoms: C_9  and  N_10 
ROOT
HETATM    1  C           1     -20.549  -6.111  -5.418  0.00  0.00     0.275 C 
ENDROOT
BRANCH   1   2
HETATM    2  C           1     -21.057  -4.804  -6.014  0.00  0.00     0.044 C 
BRANCH   2   3
HETATM    3  C           1     -21.485  -5.037  -7.456  0.00  0.00     0.023 C 
BRANCH   3   4
HETATM    4  C           1     -22.125  -3.769  -8.007  0.00  0.00     0.138 C 
BRANCH   4   5
HETATM    5  N           1     -23.564  -3.994  -8.209  0.00  0.00    -0.227 N 
HETATM    6  C           1     -24.078  -3.820  -9.351  0.00  0.00     0.665 C 
HETATM    7  N           1     -25.317  -4.013  -9.525  0.00  0.00    -0.235 N 
HETATM    8  N           1     -23.333  -3.443 -10.348  0.00  0.00    -0.235 N 
HETATM    9  H           1     -25.743  -3.869 -10.474  0.00  0.00     0.174 HD
HETATM   10  H           1     -25.919  -4.317  -8.720  0.00  0.00     0.174 HD
HETATM   11  H           1     -23.758  -3.300 -11.293  0.00  0.00     0.174 HD
HETATM   12  H           1     -22.310  -3.284 -10.206  0.00  0.00     0.174 HD
HETATM   13  H           1     -24.165  -4.298  -7.403  0.00  0.00     0.177 HD
ENDBRANCH   4   5
ENDBRANCH   3   4
ENDBRANCH   2   3
ENDBRANCH   1   2
BRANCH   1  14
HETATM   14  C           1     -21.585  -6.671  -4.475  0.00  0.00     0.251 C 
HETATM   15  N           1     -21.210  -7.534  -3.480  0.00  0.00    -0.336 N 
HETATM   16  C           1     -22.068  -8.170  -2.484  0.00  0.00     0.188 C 
HETATM   17  C           1     -19.865  -8.020  -3.185  0.00  0.00     0.127 C 
HETATM   18  C           1     -21.526  -9.586  -2.390  0.00  0.00     0.038 C 
HETATM   19  C           1     -20.076  -9.487  -2.847  0.00  0.00     0.022 C 
HETATM   20  O           1     -22.746  -6.357  -4.596  0.00  0.00    -0.271 OA
BRANCH  16  21
HETATM   21  C           1     -21.961  -7.465  -1.155  0.00  0.00     0.196 C 
HETATM   22  O           1     -21.442  -8.047  -0.178  0.00  0.00    -0.646 OA
HETATM   23  O           1     -22.391  -6.297  -1.031  0.00  0.00    -0.646 OA
ENDBRANCH  16  21
ENDBRANCH   1  14
BRANCH   1  24
HETATM   24  N           1     -20.292  -7.096  -6.519  0.00  0.00    -0.067 N 
HETATM   25  H           1     -19.286  -7.052  -6.799  0.00  0.00     0.275 HD
HETATM   26  H           1     -20.517  -8.059  -6.184  0.00  0.00     0.275 HD
HETATM   27  H           1     -20.893  -6.862  -7.341  0.00  0.00     0.275 HD
ENDBRANCH   1  24
TORSDOF 7
ENDMDL
MODEL 9
REMARK VINA RESULT:      -5.8     16.515     19.155
REMARK  7 active torsions:
REMARK  status: ('A' for Active; 'I' for Inactive)
REMARK    1  A    between atoms: C_1  and  C_2 
REMARK    2  A    between atoms: C_1  and  C_6 
REMARK    3  A    between atoms: C_2  and  C_3 
REMARK    4  A    between atoms: C_2  and  N_12 
REMARK       I    between atoms: C_3  and  N_4 
REMARK    5  A    between atoms: C_5  and  C_24 
REMARK    6  A    between atoms: C_6  and  C_7 
REMARK    7  A    between atoms: C_7  and  N_8 
REMARK       I    between atoms: N_8  and  C_9 
REMARK       I    between atoms: C_9  and  N_10 
ROOT
HETATM    1  C           1     -21.937  -6.896  -3.041  0.00  0.00     0.275 C 
ENDROOT
BRANCH   1   2
HETATM    2  C           1     -21.584  -6.879  -4.524  0.00  0.00     0.044 C 
BRANCH   2   3
HETATM    3  C           1     -20.857  -5.584  -4.857  0.00  0.00     0.023 C 
BRANCH   3   4
HETATM    4  C           1     -21.024  -5.274  -6.339  0.00  0.00     0.138 C 
BRANCH   4   5
HETATM    5  N           1     -22.395  -4.810  -6.592  0.00  0.00    -0.227 N 
HETATM    6  C           1     -22.729  -4.423  -7.749  0.00  0.00     0.665 C 
HETATM    7  N           1     -23.911  -4.023  -7.966  0.00  0.00    -0.235 N 
HETATM    8  N           1     -21.860  -4.436  -8.715  0.00  0.00    -0.235 N 
HETATM    9  H           1     -24.188  -3.702  -8.927  0.00  0.00     0.174 HD
HETATM   10  H           1     -24.614  -4.012  -7.187  0.00  0.00     0.174 HD
HETATM   11  H           1     -22.136  -4.116  -9.671  0.00  0.00     0.174 HD
HETATM   12  H           1     -20.885  -4.766  -8.536  0.00  0.00     0.174 HD
HETATM   13  H           1     -23.098  -4.800  -5.811  0.00  0.00     0.177 HD
ENDBRANCH   4   5
ENDBRANCH   3   4
ENDBRANCH   2   3
ENDBRANCH   1   2
BRANCH   1  14
HETATM   14  C           1     -21.152  -7.984  -2.350  0.00  0.00     0.251 C 
HETATM   15  N           1     -21.559  -8.450  -1.128  0.00  0.00    -0.336 N 
HETATM   16  C           1     -20.929  -9.488  -0.318  0.00  0.00     0.188 C 
HETATM   17  C           1     -22.717  -8.016  -0.352  0.00  0.00     0.127 C 
HETATM   18  C           1     -21.024  -8.949   1.100  0.00  0.00     0.038 C 
HETATM   19  C           1     -22.203  -7.985   1.078  0.00  0.00     0.022 C 
HETATM   20  O           1     -20.165  -8.444  -2.874  0.00  0.00    -0.271 OA
BRANCH  16  21
HETATM   21  C           1     -21.673 -10.795  -0.447  0.00  0.00     0.196 C 
HETATM   22  O           1     -21.999 -11.433   0.577  0.00  0.00    -0.646 OA
HETATM   23  O           1     -21.963 -11.239  -1.579  0.00  0.00    -0.646 OA
ENDBRANCH  16  21
ENDBRANCH   1  14
BRANCH   1  24
HETATM   24  N           1     -21.596  -5.569  -2.431  0.00  0.00    -0.067 N 
HETATM   25  H           1     -20.592  -5.346  -2.619  0.00  0.00     0.275 HD
HETATM   26  H           1     -22.201  -4.828  -2.849  0.00  0.00     0.275 HD
HETATM   27  H           1     -21.755  -5.611  -1.399  0.00  0.00     0.275 HD
ENDBRANCH   1  24
TORSDOF 7
ENDMDL
