MODEL 1
REMARK VINA RESULT:      -6.3      0.000      0.000
REMARK  10 active torsions:
REMARK  status: ('A' for Active; 'I' for Inactive)
REMARK    1  A    between atoms: C_1  and  C_3 
REMARK    2  A    between atoms: C_1  and  C_2 
REMARK    3  A    between atoms: C_1  and  N_6 
REMARK    4  A    between atoms: C_2  and  C_19 
REMARK       I    between atoms: C_3  and  N_18 
REMARK    5  A    between atoms: N_7  and  C_22 
REMARK    6  A    between atoms: C_8  and  C_20 
REMARK    7  A    between atoms: C_8  and  C_12 
REMARK    8  A    between atoms: C_8  and  N_18 
REMARK    9  A    between atoms: C_12  and  C_23 
REMARK   10  A    between atoms: C_19  and  C_22 
ROOT
HETATM    1  C           1     -27.938  -5.365 -17.161  0.00  0.00     0.249 C 
HETATM    2  H           1     -26.758  -5.226 -18.856  0.00  0.00     0.163 HD
HETATM    3  N           1     -26.896  -5.711 -17.978  0.00  0.00    -0.344 N 
HETATM    4  O           1     -27.790  -4.513 -16.319  0.00  0.00    -0.271 OA
ENDROOT
BRANCH   1   5
HETATM    5  C           1     -29.275  -6.051 -17.314  0.00  0.00     0.274 C 
BRANCH   5   6
HETATM    6  C           1     -30.289  -5.399 -16.383  0.00  0.00     0.044 C 
BRANCH   6   7
HETATM    7  C           1     -31.070  -4.338 -17.145  0.00  0.00     0.033 C 
BRANCH   7   8
HETATM    8  C           1     -32.547  -4.437 -16.786  0.00  0.00     0.620 C 
BRANCH   8   9
HETATM    9  N           1     -33.001  -5.861 -16.912  0.00  0.00    -0.077 N 
HETATM   10  H           1     -34.029  -5.916 -16.742  0.00  0.00     0.274 HD
HETATM   11  H           1     -32.499  -6.449 -16.210  0.00  0.00     0.274 HD
HETATM   12  H           1     -32.787  -6.210 -17.875  0.00  0.00     0.274 HD
ENDBRANCH   8   9
ENDBRANCH   7   8
ENDBRANCH   6   7
ENDBRANCH   5   6
BRANCH   5  13
HETATM   13  N           1     -29.135  -7.502 -16.963  0.00  0.00    -0.067 N 
HETATM   14  H           1     -28.229  -7.655 -16.466  0.00  0.00     0.275 HD
HETATM   15  H           1     -29.926  -7.788 -16.341  0.00  0.00     0.275 HD
HETATM   16  H           1     -29.155  -8.075 -17.836  0.00  0.00     0.275 HD
ENDBRANCH   5  13
ENDBRANCH   1   5
BRANCH   3  17
HETATM   17  C           1     -25.987  -6.771 -17.585  0.00  0.00     0.191 C 
BRANCH  17  18
HETATM   18  C           1     -25.682  -6.652 -16.112  0.00  0.00     0.197 C 
HETATM   19  O           1     -26.217  -7.434 -15.298  0.00  0.00    -0.646 OA
HETATM   20  O           1     -24.894  -5.770 -15.706  0.00  0.00    -0.646 OA
ENDBRANCH  17  18
BRANCH  17  21
HETATM   21  C           1     -24.695  -6.651 -18.382  0.00  0.00     0.094 C 
BRANCH  21  22
HETATM   22  C           1     -24.853  -7.350 -19.697  0.00  0.00     0.034 A 
HETATM   23  C           1     -23.815  -7.838 -20.453  0.00  0.00     0.212 A 
HETATM   24  N           1     -24.407  -8.388 -21.556  0.00  0.00    -0.072 N 
HETATM   25  C           1     -25.756  -8.214 -21.428  0.00  0.00     0.277 A 
HETATM   26  H           1     -23.916  -8.858 -22.356  0.00  0.00     0.272 HD
HETATM   27  N           1     -26.055  -7.588 -20.312  0.00  0.00    -0.349 N 
ATOM     28  HN          1     -26.984  -7.334 -19.977  1.00  0.00     0.166 HD
ENDBRANCH  21  22
ENDBRANCH  17  21
ENDBRANCH   3  17
TORSDOF 10
ENDMDL
MODEL 2
REMARK VINA RESULT:      -6.3     11.013     13.204
REMARK  10 active torsions:
REMARK  status: ('A' for Active; 'I' for Inactive)
REMARK    1  A    between atoms: C_1  and  C_3 
REMARK    2  A    between atoms: C_1  and  C_2 
REMARK    3  A    between atoms: C_1  and  N_6 
REMARK    4  A    between atoms: C_2  and  C_19 
REMARK       I    between atoms: C_3  and  N_18 
REMARK    5  A    between atoms: N_7  and  C_22 
REMARK    6  A    between atoms: C_8  and  C_20 
REMARK    7  A    between atoms: C_8  and  C_12 
REMARK    8  A    between atoms: C_8  and  N_18 
REMARK    9  A    between atoms: C_12  and  C_23 
REMARK   10  A    between atoms: C_19  and  C_22 
ROOT
HETATM    1  C           1     -20.431  -6.596  -6.281  0.00  0.00     0.249 C 
HETATM    2  H           1     -20.111  -4.553  -6.198  0.00  0.00     0.163 HD
HETATM    3  N           1     -20.503  -5.310  -6.744  0.00  0.00    -0.344 N 
HETATM    4  O           1     -19.483  -7.288  -6.563  0.00  0.00    -0.271 OA
ENDROOT
BRANCH   1   5
HETATM    5  C           1     -21.538  -7.149  -5.415  0.00  0.00     0.274 C 
BRANCH   5   6
HETATM    6  C           1     -21.481  -6.497  -4.040  0.00  0.00     0.044 C 
BRANCH   6   7
HETATM    7  C           1     -21.106  -7.542  -2.998  0.00  0.00     0.033 C 
BRANCH   7   8
HETATM    8  C           1     -21.774  -7.202  -1.672  0.00  0.00     0.620 C 
BRANCH   8   9
HETATM    9  N           1     -22.353  -5.819  -1.742  0.00  0.00    -0.077 N 
HETATM   10  H           1     -21.879  -5.206  -1.043  0.00  0.00     0.274 HD
HETATM   11  H           1     -23.376  -5.860  -1.533  0.00  0.00     0.274 HD
HETATM   12  H           1     -22.209  -5.430  -2.702  0.00  0.00     0.274 HD
ENDBRANCH   8   9
ENDBRANCH   7   8
ENDBRANCH   6   7
ENDBRANCH   5   6
BRANCH   5  13
HETATM   13  N           1     -21.367  -8.632  -5.273  0.00  0.00    -0.067 N 
HETATM   14  H           1     -22.293  -9.103  -5.380  0.00  0.00     0.275 HD
HETATM   15  H           1     -20.713  -8.980  -6.011  0.00  0.00     0.275 HD
HETATM   16  H           1     -20.973  -8.848  -4.329  0.00  0.00     0.275 HD
ENDBRANCH   5  13
ENDBRANCH   1   5
BRANCH   3  17
HETATM   17  C           1     -21.142  -5.032  -8.016  0.00  0.00     0.191 C 
BRANCH  17  18
HETATM   18  C           1     -20.163  -4.331  -8.927  0.00  0.00     0.197 C 
HETATM   19  O           1     -19.412  -3.442  -8.473  0.00  0.00    -0.646 OA
HETATM   20  O           1     -20.104  -4.642 -10.137  0.00  0.00    -0.646 OA
ENDBRANCH  17  18
BRANCH  17  21
HETATM   21  C           1     -22.354  -4.137  -7.789  0.00  0.00     0.094 C 
BRANCH  21  22
HETATM   22  C           1     -23.220  -4.154  -9.010  0.00  0.00     0.034 A 
HETATM   23  C           1     -24.304  -3.332  -9.211  0.00  0.00     0.212 A 
HETATM   24  N           1     -24.793  -3.685 -10.438  0.00  0.00    -0.072 N 
HETATM   25  C           1     -24.003  -4.688 -10.922  0.00  0.00     0.277 A 
HETATM   26  H           1     -25.625  -3.263 -10.920  0.00  0.00     0.272 HD
HETATM   27  N           1     -23.043  -4.994 -10.080  0.00  0.00    -0.349 N 
ATOM     28  HN          1     -22.321  -5.704 -10.196  1.00  0.00     0.166 HD
ENDBRANCH  21  22
ENDBRANCH  17  21
ENDBRANCH   3  17
TORSDOF 10
ENDMDL
MODEL 3
REMARK VINA RESULT:      -6.1     13.650     15.534
REMARK  10 active torsions:
REMARK  status: ('A' for Active; 'I' for Inactive)
REMARK    1  A    between atoms: C_1  and  C_3 
REMARK    2  A    between atoms: C_1  and  C_2 
REMARK    3  A    between atoms: C_1  and  N_6 
REMARK    4  A    between atoms: C_2  and  C_19 
REMARK       I    between atoms: C_3  and  N_18 
REMARK    5  A    between atoms: N_7  and  C_22 
REMARK    6  A    between atoms: C_8  and  C_20 
REMARK    7  A    between atoms: C_8  and  C_12 
REMARK    8  A    between atoms: C_8  and  N_18 
REMARK    9  A    between atoms: C_12  and  C_23 
REMARK   10  A    between atoms: C_19  and  C_22 
ROOT
HETATM    1  C           1     -21.674  -6.292  -4.312  0.00  0.00     0.249 C 
HETATM    2  H           1     -21.080  -5.654  -2.434  0.00  0.00     0.163 HD
HETATM    3  N           1     -21.339  -6.456  -2.995  0.00  0.00    -0.344 N 
HETATM    4  O           1     -22.822  -6.087  -4.622  0.00  0.00    -0.271 OA
ENDROOT
BRANCH   1   5
HETATM    5  C           1     -20.606  -6.367  -5.377  0.00  0.00     0.274 C 
BRANCH   5   6
HETATM    6  C           1     -20.489  -5.018  -6.074  0.00  0.00     0.044 C 
BRANCH   6   7
HETATM    7  C           1     -21.047  -5.126  -7.486  0.00  0.00     0.033 C 
BRANCH   7   8
HETATM    8  C           1     -22.046  -4.001  -7.726  0.00  0.00     0.620 C 
BRANCH   8   9
HETATM    9  N           1     -23.391  -4.404  -7.197  0.00  0.00    -0.077 N 
HETATM   10  H           1     -24.081  -3.642  -7.381  0.00  0.00     0.274 HD
HETATM   11  H           1     -23.324  -4.573  -6.168  0.00  0.00     0.274 HD
HETATM   12  H           1     -23.704  -5.280  -7.674  0.00  0.00     0.274 HD
ENDBRANCH   8   9
ENDBRANCH   7   8
ENDBRANCH   6   7
ENDBRANCH   5   6
BRANCH   5  13
HETATM   13  N           1     -20.975  -7.418  -6.381  0.00  0.00    -0.067 N 
HETATM   14  H           1     -21.683  -7.032  -7.045  0.00  0.00     0.275 HD
HETATM   15  H           1     -20.122  -7.707  -6.913  0.00  0.00     0.275 HD
HETATM   16  H           1     -21.375  -8.247  -5.887  0.00  0.00     0.275 HD
ENDBRANCH   5  13
ENDBRANCH   1   5
BRANCH   3  17
HETATM   17  C           1     -21.353  -7.780  -2.402  0.00  0.00     0.191 C 
BRANCH  17  18
HETATM   18  C           1     -21.958  -7.706  -1.021  0.00  0.00     0.197 C 
HETATM   19  O           1     -21.619  -8.529  -0.145  0.00  0.00    -0.646 OA
HETATM   20  O           1     -22.798  -6.818  -0.754  0.00  0.00    -0.646 OA
ENDBRANCH  17  18
BRANCH  17  21
HETATM   21  C           1     -19.927  -8.307  -2.304  0.00  0.00     0.094 C 
BRANCH  21  22
HETATM   22  C           1     -19.651  -9.215  -3.461  0.00  0.00     0.034 A 
HETATM   23  C           1     -20.524 -10.165  -3.936  0.00  0.00     0.212 A 
HETATM   24  N           1     -19.872 -10.753  -4.984  0.00  0.00    -0.072 N 
HETATM   25  C           1     -18.653 -10.150  -5.101  0.00  0.00     0.277 A 
HETATM   26  H           1     -20.241 -11.528  -5.589  0.00  0.00     0.272 HD
HETATM   27  N           1     -18.491  -9.215  -4.192  0.00  0.00    -0.349 N 
ATOM     28  HN          1     -17.675  -8.617  -4.059  1.00  0.00     0.166 HD
ENDBRANCH  21  22
ENDBRANCH  17  21
ENDBRANCH   3  17
TORSDOF 10
ENDMDL
MODEL 4
REMARK VINA RESULT:      -6.1     12.175     14.389
REMARK  10 active torsions:
REMARK  status: ('A' for Active; 'I' for Inactive)
REMARK    1  A    between atoms: C_1  and  C_3 
REMARK    2  A    between atoms: C_1  and  C_2 
REMARK    3  A    between atoms: C_1  and  N_6 
REMARK    4  A    between atoms: C_2  and  C_19 
REMARK       I    between atoms: C_3  and  N_18 
REMARK    5  A    between atoms: N_7  and  C_22 
REMARK    6  A    between atoms: C_8  and  C_20 
REMARK    7  A    between atoms: C_8  and  C_12 
REMARK    8  A    between atoms: C_8  and  N_18 
REMARK    9  A    between atoms: C_12  and  C_23 
REMARK   10  A    between atoms: C_19  and  C_22 
ROOT
HETATM    1  C           1     -20.359  -5.490  -6.999  0.00  0.00     0.249 C 
HETATM    2  H           1     -20.313  -7.508  -7.456  0.00  0.00     0.163 HD
HETATM    3  N           1     -20.347  -6.827  -6.708  0.00  0.00    -0.344 N 
HETATM    4  O           1     -19.320  -4.882  -7.094  0.00  0.00    -0.271 OA
ENDROOT
BRANCH   1   5
HETATM    5  C           1     -21.673  -4.774  -7.201  0.00  0.00     0.274 C 
BRANCH   5   6
HETATM    6  C           1     -22.139  -4.964  -8.639  0.00  0.00     0.044 C 
BRANCH   6   7
HETATM    7  C           1     -22.731  -3.661  -9.158  0.00  0.00     0.033 C 
BRANCH   7   8
HETATM    8  C           1     -23.785  -3.967 -10.215  0.00  0.00     0.620 C 
BRANCH   8   9
HETATM    9  N           1     -25.077  -4.329  -9.546  0.00  0.00    -0.077 N 
HETATM   10  H           1     -25.760  -3.547  -9.657  0.00  0.00     0.274 HD
HETATM   11  H           1     -24.906  -4.499  -8.529  0.00  0.00     0.274 HD
HETATM   12  H           1     -25.465  -5.195  -9.984  0.00  0.00     0.274 HD
ENDBRANCH   8   9
ENDBRANCH   7   8
ENDBRANCH   6   7
ENDBRANCH   5   6
BRANCH   5  13
HETATM   13  N           1     -21.493  -3.311  -6.924  0.00  0.00    -0.067 N 
HETATM   14  H           1     -20.476  -3.074  -6.949  0.00  0.00     0.275 HD
HETATM   15  H           1     -21.997  -2.754  -7.652  0.00  0.00     0.275 HD
HETATM   16  H           1     -21.881  -3.085  -5.981  0.00  0.00     0.275 HD
ENDBRANCH   5  13
ENDBRANCH   1   5
BRANCH   3  17
HETATM   17  C           1     -20.384  -7.269  -5.327  0.00  0.00     0.191 C 
BRANCH  17  18
HETATM   18  C           1     -19.769  -8.644  -5.223  0.00  0.00     0.197 C 
HETATM   19  O           1     -18.698  -8.804  -4.598  0.00  0.00    -0.646 OA
HETATM   20  O           1     -20.331  -9.623  -5.761  0.00  0.00    -0.646 OA
ENDBRANCH  17  18
BRANCH  17  21
HETATM   21  C           1     -21.830  -7.323  -4.850  0.00  0.00     0.094 C 
BRANCH  21  22
HETATM   22  C           1     -21.871  -7.142  -3.365  0.00  0.00     0.034 A 
HETATM   23  C           1     -21.464  -8.084  -2.451  0.00  0.00     0.212 A 
HETATM   24  N           1     -21.675  -7.507  -1.229  0.00  0.00    -0.072 N 
HETATM   25  C           1     -22.194  -6.263  -1.447  0.00  0.00     0.277 A 
HETATM   26  H           1     -21.477  -7.941  -0.294  0.00  0.00     0.272 HD
HETATM   27  N           1     -22.324  -6.014  -2.730  0.00  0.00    -0.349 N 
ATOM     28  HN          1     -22.685  -5.164  -3.161  1.00  0.00     0.166 HD
ENDBRANCH  21  22
ENDBRANCH  17  21
ENDBRANCH   3  17
TORSDOF 10
ENDMDL
MODEL 5
REMARK VINA RESULT:      -6.0     12.668     14.900
REMARK  10 active torsions:
REMARK  status: ('A' for Active; 'I' for Inactive)
REMARK    1  A    between atoms: C_1  and  C_3 
REMARK    2  A    between atoms: C_1  and  C_2 
REMARK    3  A    between atoms: C_1  and  N_6 
REMARK    4  A    between atoms: C_2  and  C_19 
REMARK       I    between atoms: C_3  and  N_18 
REMARK    5  A    between atoms: N_7  and  C_22 
REMARK    6  A    between atoms: C_8  and  C_20 
REMARK    7  A    between atoms: C_8  and  C_12 
REMARK    8  A    between atoms: C_8  and  N_18 
REMARK    9  A    between atoms: C_12  and  C_23 
REMARK   10  A    between atoms: C_19  and  C_22 
ROOT
HETATM    1  C           1     -20.419  -6.395  -6.636  0.00  0.00     0.249 C 
HETATM    2  H           1     -21.611  -8.075  -6.428  0.00  0.00     0.163 HD
HETATM    3  N           1     -20.874  -7.523  -6.007  0.00  0.00    -0.344 N 
HETATM    4  O           1     -19.502  -6.468  -7.418  0.00  0.00    -0.271 OA
ENDROOT
BRANCH   1   5
HETATM    5  C           1     -21.066  -5.061  -6.353  0.00  0.00     0.274 C 
BRANCH   5   6
HETATM    6  C           1     -22.458  -5.030  -6.970  0.00  0.00     0.044 C 
BRANCH   6   7
HETATM    7  C           1     -22.509  -3.966  -8.058  0.00  0.00     0.033 C 
BRANCH   7   8
HETATM    8  C           1     -23.595  -4.320  -9.065  0.00  0.00     0.620 C 
BRANCH   8   9
HETATM    9  N           1     -24.632  -3.236  -9.088  0.00  0.00    -0.077 N 
HETATM   10  H           1     -24.682  -2.782  -8.149  0.00  0.00     0.274 HD
HETATM   11  H           1     -25.561  -3.648  -9.326  0.00  0.00     0.274 HD
HETATM   12  H           1     -24.372  -2.522  -9.807  0.00  0.00     0.274 HD
ENDBRANCH   8   9
ENDBRANCH   7   8
ENDBRANCH   6   7
ENDBRANCH   5   6
BRANCH   5  13
HETATM   13  N           1     -20.232  -3.965  -6.949  0.00  0.00    -0.067 N 
HETATM   14  H           1     -20.811  -3.103  -7.054  0.00  0.00     0.275 HD
HETATM   15  H           1     -19.420  -3.764  -6.320  0.00  0.00     0.275 HD
HETATM   16  H           1     -19.880  -4.266  -7.886  0.00  0.00     0.275 HD
ENDBRANCH   5  13
ENDBRANCH   1   5
BRANCH   3  17
HETATM   17  C           1     -20.302  -7.925  -4.737  0.00  0.00     0.191 C 
BRANCH  17  18
HETATM   18  C           1     -19.200  -8.927  -4.977  0.00  0.00     0.197 C 
HETATM   19  O           1     -18.342  -9.138  -4.093  0.00  0.00    -0.646 OA
HETATM   20  O           1     -19.145  -9.548  -6.061  0.00  0.00    -0.646 OA
ENDBRANCH  17  18
BRANCH  17  21
HETATM   21  C           1     -21.384  -8.558  -3.871  0.00  0.00     0.094 C 
BRANCH  21  22
HETATM   22  C           1     -21.760  -7.614  -2.772  0.00  0.00     0.034 A 
HETATM   23  C           1     -21.910  -6.256  -2.925  0.00  0.00     0.212 A 
HETATM   24  N           1     -22.251  -5.795  -1.684  0.00  0.00    -0.072 N 
HETATM   25  C           1     -22.293  -6.871  -0.844  0.00  0.00     0.277 A 
HETATM   26  H           1     -22.445  -4.797  -1.424  0.00  0.00     0.272 HD
HETATM   27  N           1     -22.000  -7.985  -1.474  0.00  0.00    -0.349 N 
ATOM     28  HN          1     -21.959  -8.925  -1.082  1.00  0.00     0.166 HD
ENDBRANCH  21  22
ENDBRANCH  17  21
ENDBRANCH   3  17
TORSDOF 10
ENDMDL
MODEL 6
REMARK VINA RESULT:      -6.0     11.394     13.809
REMARK  10 active torsions:
REMARK  status: ('A' for Active; 'I' for Inactive)
REMARK    1  A    between atoms: C_1  and  C_3 
REMARK    2  A    between atoms: C_1  and  C_2 
REMARK    3  A    between atoms: C_1  and  N_6 
REMARK    4  A    between atoms: C_2  and  C_19 
REMARK       I    between atoms: C_3  and  N_18 
REMARK    5  A    between atoms: N_7  and  C_22 
REMARK    6  A    between atoms: C_8  and  C_20 
REMARK    7  A    between atoms: C_8  and  C_12 
REMARK    8  A    between atoms: C_8  and  N_18 
REMARK    9  A    between atoms: C_12  and  C_23 
REMARK   10  A    between atoms: C_19  and  C_22 
ROOT
HETATM    1  C           1     -22.613  -4.487  -7.210  0.00  0.00     0.249 C 
HETATM    2  H           1     -21.314  -3.162  -6.292  0.00  0.00     0.163 HD
HETATM    3  N           1     -21.549  -4.139  -6.423  0.00  0.00    -0.344 N 
HETATM    4  O           1     -23.713  -4.602  -6.724  0.00  0.00    -0.271 OA
ENDROOT
BRANCH   1   5
HETATM    5  C           1     -22.413  -4.729  -8.687  0.00  0.00     0.274 C 
BRANCH   5   6
HETATM    6  C           1     -21.353  -3.772  -9.218  0.00  0.00     0.044 C 
BRANCH   6   7
HETATM    7  C           1     -20.388  -4.532 -10.118  0.00  0.00     0.033 C 
BRANCH   7   8
HETATM    8  C           1     -20.702  -4.222 -11.576  0.00  0.00     0.620 C 
BRANCH   8   9
HETATM    9  N           1     -21.159  -2.799 -11.700  0.00  0.00    -0.077 N 
HETATM   10  H           1     -21.464  -2.448 -10.765  0.00  0.00     0.274 HD
HETATM   11  H           1     -21.960  -2.749 -12.369  0.00  0.00     0.274 HD
HETATM   12  H           1     -20.372  -2.210 -12.054  0.00  0.00     0.274 HD
ENDBRANCH   8   9
ENDBRANCH   7   8
ENDBRANCH   6   7
ENDBRANCH   5   6
BRANCH   5  13
HETATM   13  N           1     -23.705  -4.494  -9.411  0.00  0.00    -0.067 N 
HETATM   14  H           1     -23.702  -3.537  -9.830  0.00  0.00     0.275 HD
HETATM   15  H           1     -23.812  -5.206 -10.170  0.00  0.00     0.275 HD
HETATM   16  H           1     -24.501  -4.578  -8.739  0.00  0.00     0.275 HD
ENDBRANCH   5  13
ENDBRANCH   1   5
BRANCH   3  17
HETATM   17  C           1     -20.757  -5.167  -5.777  0.00  0.00     0.191 C 
BRANCH  17  18
HETATM   18  C           1     -19.620  -5.571  -6.684  0.00  0.00     0.197 C 
HETATM   19  O           1     -18.767  -4.727  -7.031  0.00  0.00    -0.646 OA
HETATM   20  O           1     -19.533  -6.752  -7.087  0.00  0.00    -0.646 OA
ENDBRANCH  17  18
BRANCH  17  21
HETATM   21  C           1     -21.635  -6.379  -5.492  0.00  0.00     0.094 C 
BRANCH  21  22
HETATM   22  C           1     -21.596  -6.689  -4.028  0.00  0.00     0.034 A 
HETATM   23  C           1     -20.848  -7.693  -3.461  0.00  0.00     0.212 A 
HETATM   24  N           1     -21.112  -7.618  -2.121  0.00  0.00    -0.072 N 
HETATM   25  C           1     -21.994  -6.593  -1.933  0.00  0.00     0.277 A 
HETATM   26  H           1     -20.711  -8.236  -1.374  0.00  0.00     0.272 HD
HETATM   27  N           1     -22.306  -6.012  -3.069  0.00  0.00    -0.349 N 
ATOM     28  HN          1     -22.940  -5.226  -3.208  1.00  0.00     0.166 HD
ENDBRANCH  21  22
ENDBRANCH  17  21
ENDBRANCH   3  17
TORSDOF 10
ENDMDL
MODEL 7
REMARK VINA RESULT:      -5.8     11.524     13.709
REMARK  10 active torsions:
REMARK  status: ('A' for Active; 'I' for Inactive)
REMARK    1  A    between atoms: C_1  and  C_3 
REMARK    2  A    between atoms: C_1  and  C_2 
REMARK    3  A    between atoms: C_1  and  N_6 
REMARK    4  A    between atoms: C_2  and  C_19 
REMARK       I    between atoms: C_3  and  N_18 
REMARK    5  A    between atoms: N_7  and  C_22 
REMARK    6  A    between atoms: C_8  and  C_20 
REMARK    7  A    between atoms: C_8  and  C_12 
REMARK    8  A    between atoms: C_8  and  N_18 
REMARK    9  A    between atoms: C_12  and  C_23 
REMARK   10  A    between atoms: C_19  and  C_22 
ROOT
HETATM    1  C           1     -20.568  -5.308  -6.566  0.00  0.00     0.249 C 
HETATM    2  H           1     -19.404  -7.012  -6.736  0.00  0.00     0.163 HD
HETATM    3  N           1     -20.265  -6.628  -6.365  0.00  0.00    -0.344 N 
HETATM    4  O           1     -20.209  -4.477  -5.767  0.00  0.00    -0.271 OA
ENDROOT
BRANCH   1   5
HETATM    5  C           1     -21.352  -4.892  -7.787  0.00  0.00     0.274 C 
BRANCH   5   6
HETATM    6  C           1     -20.504  -3.957  -8.641  0.00  0.00     0.044 C 
BRANCH   6   7
HETATM    7  C           1     -20.453  -4.480 -10.070  0.00  0.00     0.033 C 
BRANCH   7   8
HETATM    8  C           1     -21.634  -3.925 -10.856  0.00  0.00     0.620 C 
BRANCH   8   9
HETATM    9  N           1     -21.208  -3.643 -12.267  0.00  0.00    -0.077 N 
HETATM   10  H           1     -22.049  -3.432 -12.849  0.00  0.00     0.274 HD
HETATM   11  H           1     -20.716  -4.478 -12.655  0.00  0.00     0.274 HD
HETATM   12  H           1     -20.562  -2.821 -12.277  0.00  0.00     0.274 HD
ENDBRANCH   8   9
ENDBRANCH   7   8
ENDBRANCH   6   7
ENDBRANCH   5   6
BRANCH   5  13
HETATM   13  N           1     -22.602  -4.181  -7.360  0.00  0.00    -0.067 N 
HETATM   14  H           1     -22.412  -3.156  -7.284  0.00  0.00     0.275 HD
HETATM   15  H           1     -23.354  -4.343  -8.068  0.00  0.00     0.275 HD
HETATM   16  H           1     -22.911  -4.549  -6.432  0.00  0.00     0.275 HD
ENDBRANCH   5  13
ENDBRANCH   1   5
BRANCH   3  17
HETATM   17  C           1     -21.175  -7.476  -5.622  0.00  0.00     0.191 C 
BRANCH  17  18
HETATM   18  C           1     -21.968  -6.635  -4.652  0.00  0.00     0.197 C 
HETATM   19  O           1     -23.068  -6.153  -4.996  0.00  0.00    -0.646 OA
HETATM   20  O           1     -21.524  -6.421  -3.502  0.00  0.00    -0.646 OA
ENDBRANCH  17  18
BRANCH  17  21
HETATM   21  C           1     -20.379  -8.523  -4.854  0.00  0.00     0.094 C 
BRANCH  21  22
HETATM   22  C           1     -21.004  -9.869  -5.052  0.00  0.00     0.034 A 
HETATM   23  C           1     -21.820 -10.495  -4.141  0.00  0.00     0.212 A 
HETATM   24  N           1     -22.157 -11.684  -4.725  0.00  0.00    -0.072 N 
HETATM   25  C           1     -21.542 -11.733  -5.943  0.00  0.00     0.277 A 
HETATM   26  H           1     -22.775 -12.426  -4.312  0.00  0.00     0.272 HD
HETATM   27  N           1     -20.837 -10.648  -6.169  0.00  0.00    -0.349 N 
ATOM     28  HN          1     -20.283 -10.432  -6.997  1.00  0.00     0.166 HD
ENDBRANCH  21  22
ENDBRANCH  17  21
ENDBRANCH   3  17
TORSDOF 10
ENDMDL
MODEL 8
REMARK VINA RESULT:      -5.8     19.033     20.811
REMARK  10 active torsions:
REMARK  status: ('A' for Active; 'I' for Inactive)
REMARK    1  A    between atoms: C_1  and  C_3 
REMARK    2  A    between atoms: C_1  and  C_2 
REMARK    3  A    between atoms: C_1  and  N_6 
REMARK    4  A    between atoms: C_2  and  C_19 
REMARK       I    between atoms: C_3  and  N_18 
REMARK    5  A    between atoms: N_7  and  C_22 
REMARK    6  A    between atoms: C_8  and  C_20 
REMARK    7  A    between atoms: C_8  and  C_12 
REMARK    8  A    between atoms: C_8  and  N_18 
REMARK    9  A    between atoms: C_12  and  C_23 
REMARK   10  A    between atoms: C_19  and  C_22 
ROOT
HETATM    1  C           1     -10.364   8.169 -20.168  0.00  0.00     0.249 C 
HETATM    2  H           1      -9.290   6.698 -21.152  0.00  0.00     0.163 HD
HETATM    3  N           1     -10.210   6.988 -20.843  0.00  0.00    -0.344 N 
HETATM    4  O           1     -10.285   8.192 -18.964  0.00  0.00    -0.271 OA
ENDROOT
BRANCH   1   5
HETATM    5  C           1     -10.634   9.444 -20.931  0.00  0.00     0.274 C 
BRANCH   5   6
HETATM    6  C           1     -12.135   9.604 -21.138  0.00  0.00     0.044 C 
BRANCH   6   7
HETATM    7  C           1     -12.581  10.955 -20.597  0.00  0.00     0.033 C 
BRANCH   7   8
HETATM    8  C           1     -13.562  10.746 -19.450  0.00  0.00     0.620 C 
BRANCH   8   9
HETATM    9  N           1     -13.129   9.567 -18.629  0.00  0.00    -0.077 N 
HETATM   10  H           1     -13.022   8.732 -19.247  0.00  0.00     0.274 HD
HETATM   11  H           1     -13.850   9.370 -17.899  0.00  0.00     0.274 HD
HETATM   12  H           1     -12.216   9.781 -18.168  0.00  0.00     0.274 HD
ENDBRANCH   8   9
ENDBRANCH   7   8
ENDBRANCH   6   7
ENDBRANCH   5   6
BRANCH   5  13
HETATM   13  N           1      -9.950   9.382 -22.265  0.00  0.00    -0.067 N 
HETATM   14  H           1      -9.282   8.579 -22.277  0.00  0.00     0.275 HD
HETATM   15  H           1     -10.665   9.250 -23.017  0.00  0.00     0.275 HD
HETATM   16  H           1      -9.430  10.272 -22.431  0.00  0.00     0.275 HD
ENDBRANCH   5  13
ENDBRANCH   1   5
BRANCH   3  17
HETATM   17  C           1     -11.362   6.152 -21.116  0.00  0.00     0.191 C 
BRANCH  17  18
HETATM   18  C           1     -12.161   5.967 -19.848  0.00  0.00     0.197 C 
HETATM   19  O           1     -13.253   6.558 -19.705  0.00  0.00    -0.646 OA
HETATM   20  O           1     -11.729   5.222 -18.941  0.00  0.00    -0.646 OA
ENDBRANCH  17  18
BRANCH  17  21
HETATM   21  C           1     -10.895   4.794 -21.623  0.00  0.00     0.094 C 
BRANCH  21  22
HETATM   22  C           1     -12.077   3.892 -21.796  0.00  0.00     0.034 A 
HETATM   23  C           1     -12.972   3.967 -22.837  0.00  0.00     0.212 A 
HETATM   24  N           1     -13.877   2.970 -22.599  0.00  0.00    -0.072 N 
HETATM   25  C           1     -13.503   2.343 -21.444  0.00  0.00     0.277 A 
HETATM   26  H           1     -14.708   2.730 -23.193  0.00  0.00     0.272 HD
HETATM   27  N           1     -12.417   2.879 -20.936  0.00  0.00    -0.349 N 
ATOM     28  HN          1     -11.931   2.602 -20.083  1.00  0.00     0.166 HD
ENDBRANCH  21  22
ENDBRANCH  17  21
ENDBRANCH   3  17
TORSDOF 10
ENDMDL
MODEL 9
REMARK VINA RESULT:      -5.5     13.993     16.026
REMARK  10 active torsions:
REMARK  status: ('A' for Active; 'I' for Inactive)
REMARK    1  A    between atoms: C_1  and  C_3 
REMARK    2  A    between atoms: C_1  and  C_2 
REMARK    3  A    between atoms: C_1  and  N_6 
REMARK    4  A    between atoms: C_2  and  C_19 
REMARK       I    between atoms: C_3  and  N_18 
REMARK    5  A    between atoms: N_7  and  C_22 
REMARK    6  A    between atoms: C_8  and  C_20 
REMARK    7  A    between atoms: C_8  and  C_12 
REMARK    8  A    between atoms: C_8  and  N_18 
REMARK    9  A    between atoms: C_12  and  C_23 
REMARK   10  A    between atoms: C_19  and  C_22 
ROOT
HETATM    1  C           1     -21.127  -7.850  -5.146  0.00  0.00     0.249 C 
HETATM    2  H           1     -23.037  -7.851  -4.347  0.00  0.00     0.163 HD
HETATM    3  N           1     -22.048  -7.886  -4.134  0.00  0.00    -0.344 N 
HETATM    4  O           1     -20.745  -8.877  -5.652  0.00  0.00    -0.271 OA
ENDROOT
BRANCH   1   5
HETATM    5  C           1     -20.589  -6.525  -5.629  0.00  0.00     0.274 C 
BRANCH   5   6
HETATM    6  C           1     -21.751  -5.607  -5.988  0.00  0.00     0.044 C 
BRANCH   6   7
HETATM    7  C           1     -21.242  -4.456  -6.845  0.00  0.00     0.033 C 
BRANCH   7   8
HETATM    8  C           1     -22.160  -4.270  -8.046  0.00  0.00     0.620 C 
BRANCH   8   9
HETATM    9  N           1     -23.584  -4.193  -7.581  0.00  0.00    -0.077 N 
HETATM   10  H           1     -23.841  -3.196  -7.407  0.00  0.00     0.274 HD
HETATM   11  H           1     -23.692  -4.740  -6.698  0.00  0.00     0.274 HD
HETATM   12  H           1     -24.212  -4.591  -8.317  0.00  0.00     0.274 HD
ENDBRANCH   8   9
ENDBRANCH   7   8
ENDBRANCH   6   7
ENDBRANCH   5   6
BRANCH   5  13
HETATM   13  N           1     -19.733  -6.745  -6.840  0.00  0.00    -0.067 N 
HETATM   14  H           1     -19.676  -5.860  -7.393  0.00  0.00     0.275 HD
HETATM   15  H           1     -18.772  -7.030  -6.540  0.00  0.00     0.275 HD
HETATM   16  H           1     -20.152  -7.499  -7.430  0.00  0.00     0.275 HD
ENDBRANCH   5  13
ENDBRANCH   1   5
BRANCH   3  17
HETATM   17  C           1     -21.608  -7.976  -2.755  0.00  0.00     0.191 C 
BRANCH  17  18
HETATM   18  C           1     -22.027  -6.731  -2.011  0.00  0.00     0.197 C 
HETATM   19  O           1     -22.657  -6.827  -0.936  0.00  0.00    -0.646 OA
HETATM   20  O           1     -21.744  -5.603  -2.472  0.00  0.00    -0.646 OA
ENDBRANCH  17  18
BRANCH  17  21
HETATM   21  C           1     -20.091  -8.104  -2.715  0.00  0.00     0.094 C 
BRANCH  21  22
HETATM   22  C           1     -19.717  -9.423  -2.113  0.00  0.00     0.034 A 
HETATM   23  C           1     -18.629 -10.174  -2.488  0.00  0.00     0.212 A 
HETATM   24  N           1     -18.672 -11.283  -1.690  0.00  0.00    -0.072 N 
HETATM   25  C           1     -19.764 -11.164  -0.879  0.00  0.00     0.277 A 
HETATM   26  H           1     -17.991 -12.082  -1.699  0.00  0.00     0.272 HD
HETATM   27  N           1     -20.416 -10.048  -1.112  0.00  0.00    -0.349 N 
ATOM     28  HN          1     -21.262  -9.718  -0.648  1.00  0.00     0.166 HD
ENDBRANCH  21  22
ENDBRANCH  17  21
ENDBRANCH   3  17
TORSDOF 10
ENDMDL
