MODEL 1
REMARK VINA RESULT:      -8.7      0.000      0.000
REMARK  7 active torsions:
REMARK  status: ('A' for Active; 'I' for Inactive)
REMARK       I    between atoms: C_6  and  N_11 
REMARK    1  A    between atoms: C_6  and  C_7 
REMARK    2  A    between atoms: C_7  and  C_20 
REMARK    3  A    between atoms: C_7  and  N_24 
REMARK    4  A    between atoms: N_11  and  C_21 
REMARK    5  A    between atoms: C_14  and  C_21 
REMARK    6  A    between atoms: C_15  and  C_21 
REMARK    7  A    between atoms: C_18  and  C_20 
ROOT
HETATM    1  C           1     -21.202  -5.872  -6.973  0.00  0.00     0.278 C 
ENDROOT
BRANCH   1   2
HETATM    2  C           1     -21.706  -4.667  -7.729  0.00  0.00     0.249 C 
HETATM    3  O           1     -21.689  -3.578  -7.209  0.00  0.00    -0.271 OA
HETATM    4  N           1     -22.181  -4.809  -9.005  0.00  0.00    -0.344 N 
HETATM    5  H           1     -22.196  -5.723  -9.441  0.00  0.00     0.163 HD
BRANCH   4   6
HETATM    6  C           1     -22.665  -3.652  -9.732  0.00  0.00     0.189 C 
BRANCH   6   7
HETATM    7  C           1     -21.868  -3.492 -11.020  0.00  0.00     0.010 C 
HETATM    8  C           1     -22.196  -4.640 -11.967  0.00  0.00     0.012 C 
HETATM    9  C           1     -20.380  -3.508 -10.701  0.00  0.00     0.012 C 
ENDBRANCH   6   7
BRANCH   6  10
HETATM   10  C           1     -24.124  -3.841 -10.064  0.00  0.00     0.197 C 
HETATM   11  O           1     -24.767  -2.917 -10.608  0.00  0.00    -0.646 OA
HETATM   12  O           1     -24.691  -4.923  -9.796  0.00  0.00    -0.646 OA
ENDBRANCH   6  10
ENDBRANCH   4   6
ENDBRANCH   1   2
BRANCH   1  13
HETATM   13  C           1     -21.266  -5.596  -5.476  0.00  0.00     0.083 C 
BRANCH  13  14
HETATM   14  C           1     -21.306  -6.893  -4.730  0.00  0.00    -0.028 A 
HETATM   15  C           1     -21.617  -7.059  -3.352  0.00  0.00    -0.002 A 
HETATM   16  C           1     -21.538  -8.424  -3.074  0.00  0.00     0.042 A 
HETATM   17  C           1     -21.958  -6.173  -2.312  0.00  0.00     0.014 A 
HETATM   18  N           1     -21.192  -9.056  -4.247  0.00  0.00    -0.365 N 
HETATM   19  C           1     -21.786  -8.951  -1.801  0.00  0.00     0.030 A 
HETATM   20  C           1     -21.049  -8.140  -5.255  0.00  0.00     0.096 A 
HETATM   21  H           1     -21.057 -10.091  -4.353  0.00  0.00     0.165 HD
HETATM   22  C           1     -22.124  -8.052  -0.784  0.00  0.00     0.002 A 
HETATM   23  C           1     -22.210  -6.684  -1.033  0.00  0.00     0.001 A 
ENDBRANCH  13  14
ENDBRANCH   1  13
BRANCH   1  24
HETATM   24  N           1     -19.783  -6.153  -7.369  0.00  0.00    -0.066 N 
HETATM   25  H           1     -19.697  -7.147  -7.679  0.00  0.00     0.275 HD
HETATM   26  H           1     -19.155  -5.986  -6.551  0.00  0.00     0.275 HD
HETATM   27  H           1     -19.508  -5.519  -8.153  0.00  0.00     0.275 HD
ENDBRANCH   1  24
TORSDOF 7
ENDMDL
MODEL 2
REMARK VINA RESULT:      -8.1      3.133      7.783
REMARK  7 active torsions:
REMARK  status: ('A' for Active; 'I' for Inactive)
REMARK       I    between atoms: C_6  and  N_11 
REMARK    1  A    between atoms: C_6  and  C_7 
REMARK    2  A    between atoms: C_7  and  C_20 
REMARK    3  A    between atoms: C_7  and  N_24 
REMARK    4  A    between atoms: N_11  and  C_21 
REMARK    5  A    between atoms: C_14  and  C_21 
REMARK    6  A    between atoms: C_15  and  C_21 
REMARK    7  A    between atoms: C_18  and  C_20 
ROOT
HETATM    1  C           1     -21.391  -6.266  -5.459  0.00  0.00     0.278 C 
ENDROOT
BRANCH   1   2
HETATM    2  C           1     -20.323  -7.329  -5.541  0.00  0.00     0.249 C 
HETATM    3  O           1     -19.501  -7.292  -6.426  0.00  0.00    -0.271 OA
HETATM    4  N           1     -20.284  -8.333  -4.612  0.00  0.00    -0.344 N 
HETATM    5  H           1     -20.973  -8.364  -3.871  0.00  0.00     0.163 HD
BRANCH   4   6
HETATM    6  C           1     -19.258  -9.354  -4.690  0.00  0.00     0.189 C 
BRANCH   6   7
HETATM    7  C           1     -18.806  -9.729  -3.284  0.00  0.00     0.010 C 
HETATM    8  C           1     -19.574  -8.895  -2.265  0.00  0.00     0.012 C 
HETATM    9  C           1     -17.315  -9.456  -3.142  0.00  0.00     0.012 C 
ENDBRANCH   6   7
BRANCH   6  10
HETATM   10  C           1     -19.815 -10.575  -5.380  0.00  0.00     0.197 C 
HETATM   11  O           1     -20.725 -11.239  -4.838  0.00  0.00    -0.646 OA
HETATM   12  O           1     -19.365 -10.923  -6.493  0.00  0.00    -0.646 OA
ENDBRANCH   6  10
ENDBRANCH   4   6
ENDBRANCH   1   2
BRANCH   1  13
HETATM   13  C           1     -20.898  -4.996  -6.142  0.00  0.00     0.083 C 
BRANCH  13  14
HETATM   14  C           1     -21.834  -4.629  -7.250  0.00  0.00    -0.028 A 
HETATM   15  C           1     -21.487  -4.454  -8.618  0.00  0.00    -0.002 A 
HETATM   16  C           1     -22.657  -4.119  -9.300  0.00  0.00     0.042 A 
HETATM   17  C           1     -20.283  -4.549  -9.343  0.00  0.00     0.014 A 
HETATM   18  N           1     -23.673  -4.093  -8.371  0.00  0.00    -0.365 N 
HETATM   19  C           1     -22.684  -3.872 -10.678  0.00  0.00     0.030 A 
HETATM   20  C           1     -23.187  -4.401  -7.128  0.00  0.00     0.096 A 
HETATM   21  H           1     -24.676  -3.871  -8.585  0.00  0.00     0.165 HD
HETATM   22  C           1     -21.477  -3.973 -11.377  0.00  0.00     0.002 A 
HETATM   23  C           1     -20.293  -4.306 -10.722  0.00  0.00     0.001 A 
ENDBRANCH  13  14
ENDBRANCH   1  13
BRANCH   1  24
HETATM   24  N           1     -21.695  -5.973  -4.021  0.00  0.00    -0.066 N 
HETATM   25  H           1     -22.684  -5.647  -3.932  0.00  0.00     0.275 HD
HETATM   26  H           1     -21.049  -5.229  -3.673  0.00  0.00     0.275 HD
HETATM   27  H           1     -21.563  -6.840  -3.453  0.00  0.00     0.275 HD
ENDBRANCH   1  24
TORSDOF 7
ENDMDL
MODEL 3
REMARK VINA RESULT:      -7.6      2.914      7.839
REMARK  7 active torsions:
REMARK  status: ('A' for Active; 'I' for Inactive)
REMARK       I    between atoms: C_6  and  N_11 
REMARK    1  A    between atoms: C_6  and  C_7 
REMARK    2  A    between atoms: C_7  and  C_20 
REMARK    3  A    between atoms: C_7  and  N_24 
REMARK    4  A    between atoms: N_11  and  C_21 
REMARK    5  A    between atoms: C_14  and  C_21 
REMARK    6  A    between atoms: C_15  and  C_21 
REMARK    7  A    between atoms: C_18  and  C_20 
ROOT
HETATM    1  C           1     -21.149  -5.269  -5.267  0.00  0.00     0.278 C 
ENDROOT
BRANCH   1   2
HETATM    2  C           1     -21.471  -6.320  -4.233  0.00  0.00     0.249 C 
HETATM    3  O           1     -22.252  -6.075  -3.345  0.00  0.00    -0.271 OA
HETATM    4  N           1     -20.879  -7.552  -4.303  0.00  0.00    -0.344 N 
HETATM    5  H           1     -20.224  -7.759  -5.047  0.00  0.00     0.163 HD
BRANCH   4   6
HETATM    6  C           1     -21.189  -8.563  -3.311  0.00  0.00     0.189 C 
BRANCH   6   7
HETATM    7  C           1     -21.160  -9.940  -3.962  0.00  0.00     0.010 C 
HETATM    8  C           1     -21.033  -9.785  -5.473  0.00  0.00     0.012 C 
HETATM    9  C           1     -22.448 -10.682  -3.635  0.00  0.00     0.012 C 
ENDBRANCH   6   7
BRANCH   6  10
HETATM   10  C           1     -20.166  -8.511  -2.203  0.00  0.00     0.197 C 
HETATM   11  O           1     -20.487  -8.079  -1.075  0.00  0.00    -0.646 OA
HETATM   12  O           1     -18.996  -8.899  -2.414  0.00  0.00    -0.646 OA
ENDBRANCH   6  10
ENDBRANCH   4   6
ENDBRANCH   1   2
BRANCH   1  13
HETATM   13  C           1     -21.130  -5.905  -6.651  0.00  0.00     0.083 C 
BRANCH  13  14
HETATM   14  C           1     -21.885  -5.038  -7.609  0.00  0.00    -0.028 A 
HETATM   15  C           1     -21.438  -4.625  -8.895  0.00  0.00    -0.002 A 
HETATM   16  C           1     -22.446  -3.831  -9.444  0.00  0.00     0.042 A 
HETATM   17  C           1     -20.268  -4.850  -9.646  0.00  0.00     0.014 A 
HETATM   18  N           1     -23.463  -3.771  -8.518  0.00  0.00    -0.365 N 
HETATM   19  C           1     -22.343  -3.250 -10.714  0.00  0.00     0.030 A 
HETATM   20  C           1     -23.134  -4.497  -7.405  0.00  0.00     0.096 A 
HETATM   21  H           1     -24.362  -3.245  -8.647  0.00  0.00     0.165 HD
HETATM   22  C           1     -21.172  -3.489 -11.441  0.00  0.00     0.002 A 
HETATM   23  C           1     -20.149  -4.277 -10.917  0.00  0.00     0.001 A 
ENDBRANCH  13  14
ENDBRANCH   1  13
BRANCH   1  24
HETATM   24  N           1     -19.804  -4.675  -4.972  0.00  0.00    -0.066 N 
HETATM   25  H           1     -19.898  -3.953  -4.223  0.00  0.00     0.275 HD
HETATM   26  H           1     -19.422  -4.232  -5.838  0.00  0.00     0.275 HD
HETATM   27  H           1     -19.153  -5.427  -4.651  0.00  0.00     0.275 HD
ENDBRANCH   1  24
TORSDOF 7
ENDMDL
MODEL 4
REMARK VINA RESULT:      -7.5      1.407      2.157
REMARK  7 active torsions:
REMARK  status: ('A' for Active; 'I' for Inactive)
REMARK       I    between atoms: C_6  and  N_11 
REMARK    1  A    between atoms: C_6  and  C_7 
REMARK    2  A    between atoms: C_7  and  C_20 
REMARK    3  A    between atoms: C_7  and  N_24 
REMARK    4  A    between atoms: N_11  and  C_21 
REMARK    5  A    between atoms: C_14  and  C_21 
REMARK    6  A    between atoms: C_15  and  C_21 
REMARK    7  A    between atoms: C_18  and  C_20 
ROOT
HETATM    1  C           1     -21.723  -6.035  -5.875  0.00  0.00     0.278 C 
ENDROOT
BRANCH   1   2
HETATM    2  C           1     -21.841  -4.905  -6.869  0.00  0.00     0.249 C 
HETATM    3  O           1     -21.461  -3.798  -6.572  0.00  0.00    -0.271 OA
HETATM    4  N           1     -22.378  -5.136  -8.107  0.00  0.00    -0.344 N 
HETATM    5  H           1     -22.697  -6.064  -8.356  0.00  0.00     0.163 HD
BRANCH   4   6
HETATM    6  C           1     -22.491  -4.051  -9.062  0.00  0.00     0.189 C 
BRANCH   6   7
HETATM    7  C           1     -21.588  -4.330 -10.257  0.00  0.00     0.010 C 
HETATM    8  C           1     -20.176  -4.628  -9.769  0.00  0.00     0.012 C 
HETATM    9  C           1     -21.563  -3.110 -11.168  0.00  0.00     0.012 C 
ENDBRANCH   6   7
BRANCH   6  10
HETATM   10  C           1     -23.921  -3.939  -9.528  0.00  0.00     0.197 C 
HETATM   11  O           1     -24.479  -4.914 -10.076  0.00  0.00    -0.646 OA
HETATM   12  O           1     -24.549  -2.870  -9.367  0.00  0.00    -0.646 OA
ENDBRANCH   6  10
ENDBRANCH   4   6
ENDBRANCH   1   2
BRANCH   1  13
HETATM   13  C           1     -20.846  -5.597  -4.709  0.00  0.00     0.083 C 
BRANCH  13  14
HETATM   14  C           1     -21.238  -6.353  -3.478  0.00  0.00    -0.028 A 
HETATM   15  C           1     -20.721  -7.614  -3.069  0.00  0.00    -0.002 A 
HETATM   16  C           1     -21.357  -7.951  -1.874  0.00  0.00     0.042 A 
HETATM   17  C           1     -19.769  -8.503  -3.605  0.00  0.00     0.014 A 
HETATM   18  N           1     -22.226  -6.926  -1.576  0.00  0.00    -0.365 N 
HETATM   19  C           1     -21.087  -9.139  -1.183  0.00  0.00     0.030 A 
HETATM   20  C           1     -22.163  -5.955  -2.540  0.00  0.00     0.096 A 
HETATM   21  H           1     -22.849  -6.893  -0.732  0.00  0.00     0.165 HD
HETATM   22  C           1     -20.138 -10.005  -1.735  0.00  0.00     0.002 A 
HETATM   23  C           1     -19.487  -9.695  -2.927  0.00  0.00     0.001 A 
ENDBRANCH  13  14
ENDBRANCH   1  13
BRANCH   1  24
HETATM   24  N           1     -21.104  -7.226  -6.545  0.00  0.00    -0.066 N 
HETATM   25  H           1     -21.856  -7.877  -6.863  0.00  0.00     0.275 HD
HETATM   26  H           1     -20.478  -7.719  -5.869  0.00  0.00     0.275 HD
HETATM   27  H           1     -20.544  -6.911  -7.369  0.00  0.00     0.275 HD
ENDBRANCH   1  24
TORSDOF 7
ENDMDL
MODEL 5
REMARK VINA RESULT:      -7.4      3.019      7.916
REMARK  7 active torsions:
REMARK  status: ('A' for Active; 'I' for Inactive)
REMARK       I    between atoms: C_6  and  N_11 
REMARK    1  A    between atoms: C_6  and  C_7 
REMARK    2  A    between atoms: C_7  and  C_20 
REMARK    3  A    between atoms: C_7  and  N_24 
REMARK    4  A    between atoms: N_11  and  C_21 
REMARK    5  A    between atoms: C_14  and  C_21 
REMARK    6  A    between atoms: C_15  and  C_21 
REMARK    7  A    between atoms: C_18  and  C_20 
ROOT
HETATM    1  C           1     -21.813  -6.368  -5.664  0.00  0.00     0.278 C 
ENDROOT
BRANCH   1   2
HETATM    2  C           1     -21.144  -7.220  -4.613  0.00  0.00     0.249 C 
HETATM    3  O           1     -19.969  -7.485  -4.708  0.00  0.00    -0.271 OA
HETATM    4  N           1     -21.868  -7.693  -3.552  0.00  0.00    -0.344 N 
HETATM    5  H           1     -22.853  -7.472  -3.473  0.00  0.00     0.163 HD
BRANCH   4   6
HETATM    6  C           1     -21.227  -8.512  -2.543  0.00  0.00     0.189 C 
BRANCH   6   7
HETATM    7  C           1     -21.926  -8.309  -1.204  0.00  0.00     0.010 C 
HETATM    8  C           1     -22.268  -6.834  -1.028  0.00  0.00     0.012 C 
HETATM    9  C           1     -21.003  -8.753  -0.078  0.00  0.00     0.012 C 
ENDBRANCH   6   7
BRANCH   6  10
HETATM   10  C           1     -21.317  -9.964  -2.940  0.00  0.00     0.197 C 
HETATM   11  O           1     -20.274 -10.640  -3.082  0.00  0.00    -0.646 OA
HETATM   12  O           1     -22.434 -10.492  -3.129  0.00  0.00    -0.646 OA
ENDBRANCH   6  10
ENDBRANCH   4   6
ENDBRANCH   1   2
BRANCH   1  13
HETATM   13  C           1     -21.027  -5.075  -5.845  0.00  0.00     0.083 C 
BRANCH  13  14
HETATM   14  C           1     -20.827  -4.813  -7.305  0.00  0.00    -0.028 A 
HETATM   15  C           1     -21.827  -4.398  -8.227  0.00  0.00    -0.002 A 
HETATM   16  C           1     -21.211  -4.273  -9.472  0.00  0.00     0.042 A 
HETATM   17  C           1     -23.203  -4.116  -8.119  0.00  0.00     0.014 A 
HETATM   18  N           1     -19.885  -4.602  -9.303  0.00  0.00    -0.365 N 
HETATM   19  C           1     -21.906  -3.878 -10.622  0.00  0.00     0.030 A 
HETATM   20  C           1     -19.642  -4.931  -7.996  0.00  0.00     0.096 A 
HETATM   21  H           1     -19.164  -4.602 -10.065  0.00  0.00     0.165 HD
HETATM   22  C           1     -23.271  -3.603 -10.491  0.00  0.00     0.002 A 
HETATM   23  C           1     -23.912  -3.720  -9.259  0.00  0.00     0.001 A 
ENDBRANCH  13  14
ENDBRANCH   1  13
BRANCH   1  24
HETATM   24  N           1     -23.211  -6.046  -5.230  0.00  0.00    -0.066 N 
HETATM   25  H           1     -23.866  -6.179  -6.033  0.00  0.00     0.275 HD
HETATM   26  H           1     -23.255  -5.054  -4.904  0.00  0.00     0.275 HD
HETATM   27  H           1     -23.488  -6.680  -4.446  0.00  0.00     0.275 HD
ENDBRANCH   1  24
TORSDOF 7
ENDMDL
MODEL 6
REMARK VINA RESULT:      -7.3     12.713     14.905
REMARK  7 active torsions:
REMARK  status: ('A' for Active; 'I' for Inactive)
REMARK       I    between atoms: C_6  and  N_11 
REMARK    1  A    between atoms: C_6  and  C_7 
REMARK    2  A    between atoms: C_7  and  C_20 
REMARK    3  A    between atoms: C_7  and  N_24 
REMARK    4  A    between atoms: N_11  and  C_21 
REMARK    5  A    between atoms: C_14  and  C_21 
REMARK    6  A    between atoms: C_15  and  C_21 
REMARK    7  A    between atoms: C_18  and  C_20 
ROOT
HETATM    1  C           1     -33.060  -4.527 -16.571  0.00  0.00     0.278 C 
ENDROOT
BRANCH   1   2
HETATM    2  C           1     -33.948  -4.462 -15.353  0.00  0.00     0.249 C 
HETATM    3  O           1     -35.087  -4.860 -15.414  0.00  0.00    -0.271 OA
HETATM    4  N           1     -33.463  -3.953 -14.178  0.00  0.00    -0.344 N 
HETATM    5  H           1     -32.509  -3.620 -14.127  0.00  0.00     0.163 HD
BRANCH   4   6
HETATM    6  C           1     -34.316  -3.891 -13.008  0.00  0.00     0.189 C 
BRANCH   6   7
HETATM    7  C           1     -33.553  -4.410 -11.795  0.00  0.00     0.010 C 
HETATM    8  C           1     -32.091  -4.621 -12.167  0.00  0.00     0.012 C 
HETATM    9  C           1     -34.158  -5.732 -11.343  0.00  0.00     0.012 C 
ENDBRANCH   6   7
BRANCH   6  10
HETATM   10  C           1     -34.733  -2.462 -12.765  0.00  0.00     0.197 C 
HETATM   11  O           1     -34.684  -1.983 -11.611  0.00  0.00    -0.646 OA
HETATM   12  O           1     -35.129  -1.756 -13.717  0.00  0.00    -0.646 OA
ENDBRANCH   6  10
ENDBRANCH   4   6
ENDBRANCH   1   2
BRANCH   1  13
HETATM   13  C           1     -31.613  -4.721 -16.135  0.00  0.00     0.083 C 
BRANCH  13  14
HETATM   14  C           1     -30.949  -5.715 -17.035  0.00  0.00    -0.028 A 
HETATM   15  C           1     -29.574  -5.729 -17.400  0.00  0.00    -0.002 A 
HETATM   16  C           1     -29.385  -6.820 -18.249  0.00  0.00     0.042 A 
HETATM   17  C           1     -28.470  -4.913 -17.088  0.00  0.00     0.014 A 
HETATM   18  N           1     -30.606  -7.440 -18.389  0.00  0.00    -0.365 N 
HETATM   19  C           1     -28.140  -7.139 -18.804  0.00  0.00     0.030 A 
HETATM   20  C           1     -31.559  -6.780 -17.659  0.00  0.00     0.096 A 
HETATM   21  H           1     -30.782  -8.296 -18.970  0.00  0.00     0.165 HD
HETATM   22  C           1     -27.058  -6.314 -18.479  0.00  0.00     0.002 A 
HETATM   23  C           1     -27.217  -5.218 -17.635  0.00  0.00     0.001 A 
ENDBRANCH  13  14
ENDBRANCH   1  13
BRANCH   1  24
HETATM   24  N           1     -33.181  -3.249 -17.346  0.00  0.00    -0.066 N 
HETATM   25  H           1     -32.752  -2.468 -16.800  0.00  0.00     0.275 HD
HETATM   26  H           1     -34.190  -3.042 -17.518  0.00  0.00     0.275 HD
HETATM   27  H           1     -32.686  -3.348 -18.261  0.00  0.00     0.275 HD
ENDBRANCH   1  24
TORSDOF 7
ENDMDL
MODEL 7
REMARK VINA RESULT:      -7.2      2.052      2.956
REMARK  7 active torsions:
REMARK  status: ('A' for Active; 'I' for Inactive)
REMARK       I    between atoms: C_6  and  N_11 
REMARK    1  A    between atoms: C_6  and  C_7 
REMARK    2  A    between atoms: C_7  and  C_20 
REMARK    3  A    between atoms: C_7  and  N_24 
REMARK    4  A    between atoms: N_11  and  C_21 
REMARK    5  A    between atoms: C_14  and  C_21 
REMARK    6  A    between atoms: C_15  and  C_21 
REMARK    7  A    between atoms: C_18  and  C_20 
ROOT
HETATM    1  C           1     -21.169  -7.720  -4.818  0.00  0.00     0.278 C 
ENDROOT
BRANCH   1   2
HETATM    2  C           1     -21.163  -6.261  -5.206  0.00  0.00     0.249 C 
HETATM    3  O           1     -21.158  -5.409  -4.350  0.00  0.00    -0.271 OA
HETATM    4  N           1     -21.163  -5.904  -6.527  0.00  0.00    -0.344 N 
HETATM    5  H           1     -21.168  -6.618  -7.245  0.00  0.00     0.163 HD
BRANCH   4   6
HETATM    6  C           1     -21.157  -4.503  -6.900  0.00  0.00     0.189 C 
BRANCH   6   7
HETATM    7  C           1     -20.029  -4.246  -7.891  0.00  0.00     0.010 C 
HETATM    8  C           1     -20.112  -5.256  -9.029  0.00  0.00     0.012 C 
HETATM    9  C           1     -18.689  -4.390  -7.182  0.00  0.00     0.012 C 
ENDBRANCH   6   7
BRANCH   6  10
HETATM   10  C           1     -22.476  -4.147  -7.538  0.00  0.00     0.197 C 
HETATM   11  O           1     -22.504  -3.418  -8.554  0.00  0.00    -0.646 OA
HETATM   12  O           1     -23.543  -4.580  -7.051  0.00  0.00    -0.646 OA
ENDBRANCH   6  10
ENDBRANCH   4   6
ENDBRANCH   1   2
BRANCH   1  13
HETATM   13  C           1     -19.878  -8.056  -4.083  0.00  0.00     0.083 C 
BRANCH  13  14
HETATM   14  C           1     -20.196  -8.832  -2.844  0.00  0.00    -0.028 A 
HETATM   15  C           1     -21.029  -8.399  -1.775  0.00  0.00    -0.002 A 
HETATM   16  C           1     -21.052  -9.425  -0.830  0.00  0.00     0.042 A 
HETATM   17  C           1     -21.768  -7.227  -1.521  0.00  0.00     0.014 A 
HETATM   18  N           1     -20.259 -10.440  -1.316  0.00  0.00    -0.365 N 
HETATM   19  C           1     -21.781  -9.338   0.363  0.00  0.00     0.030 A 
HETATM   20  C           1     -19.736 -10.091  -2.533  0.00  0.00     0.096 A 
HETATM   21  H           1     -20.080 -11.350  -0.825  0.00  0.00     0.165 HD
HETATM   22  C           1     -22.507  -8.165   0.592  0.00  0.00     0.002 A 
HETATM   23  C           1     -22.502  -7.124  -0.334  0.00  0.00     0.001 A 
ENDBRANCH  13  14
ENDBRANCH   1  13
BRANCH   1  24
HETATM   24  N           1     -21.275  -8.564  -6.053  0.00  0.00    -0.066 N 
HETATM   25  H           1     -22.206  -9.037  -6.074  0.00  0.00     0.275 HD
HETATM   26  H           1     -20.517  -9.284  -6.048  0.00  0.00     0.275 HD
HETATM   27  H           1     -21.173  -7.959  -6.899  0.00  0.00     0.275 HD
ENDBRANCH   1  24
TORSDOF 7
ENDMDL
MODEL 8
REMARK VINA RESULT:      -7.1      5.107      7.434
REMARK  7 active torsions:
REMARK  status: ('A' for Active; 'I' for Inactive)
REMARK       I    between atoms: C_6  and  N_11 
REMARK    1  A    between atoms: C_6  and  C_7 
REMARK    2  A    between atoms: C_7  and  C_20 
REMARK    3  A    between atoms: C_7  and  N_24 
REMARK    4  A    between atoms: N_11  and  C_21 
REMARK    5  A    between atoms: C_14  and  C_21 
REMARK    6  A    between atoms: C_15  and  C_21 
REMARK    7  A    between atoms: C_18  and  C_20 
ROOT
HETATM    1  C           1     -19.812  -7.975  -5.039  0.00  0.00     0.278 C 
ENDROOT
BRANCH   1   2
HETATM    2  C           1     -19.000  -9.245  -5.115  0.00  0.00     0.249 C 
HETATM    3  O           1     -18.928  -9.854  -6.156  0.00  0.00    -0.271 OA
HETATM    4  N           1     -18.345  -9.707  -4.006  0.00  0.00    -0.344 N 
HETATM    5  H           1     -18.405  -9.197  -3.133  0.00  0.00     0.163 HD
BRANCH   4   6
HETATM    6  C           1     -17.565 -10.926  -4.079  0.00  0.00     0.189 C 
BRANCH   6   7
HETATM    7  C           1     -16.093 -10.602  -3.859  0.00  0.00     0.010 C 
HETATM    8  C           1     -15.967  -9.485  -2.830  0.00  0.00     0.012 C 
HETATM    9  C           1     -15.470 -10.152  -5.173  0.00  0.00     0.012 C 
ENDBRANCH   6   7
BRANCH   6  10
HETATM   10  C           1     -18.032 -11.887  -3.014  0.00  0.00     0.197 C 
HETATM   11  O           1     -18.883 -11.524  -2.173  0.00  0.00    -0.646 OA
HETATM   12  O           1     -17.567 -13.047  -2.972  0.00  0.00    -0.646 OA
ENDBRANCH   6  10
ENDBRANCH   4   6
ENDBRANCH   1   2
BRANCH   1  13
HETATM   13  C           1     -21.251  -8.313  -4.668  0.00  0.00     0.083 C 
BRANCH  13  14
HETATM   14  C           1     -21.641  -7.554  -3.439  0.00  0.00    -0.028 A 
HETATM   15  C           1     -21.786  -8.093  -2.131  0.00  0.00    -0.002 A 
HETATM   16  C           1     -22.160  -7.042  -1.292  0.00  0.00     0.042 A 
HETATM   17  C           1     -21.636  -9.380  -1.579  0.00  0.00     0.014 A 
HETATM   18  N           1     -22.236  -5.910  -2.072  0.00  0.00    -0.365 N 
HETATM   19  C           1     -22.391  -7.215   0.078  0.00  0.00     0.030 A 
HETATM   20  C           1     -21.924  -6.208  -3.372  0.00  0.00     0.096 A 
HETATM   21  H           1     -22.495  -4.956  -1.720  0.00  0.00     0.165 HD
HETATM   22  C           1     -22.234  -8.502   0.603  0.00  0.00     0.002 A 
HETATM   23  C           1     -21.863  -9.570  -0.211  0.00  0.00     0.001 A 
ENDBRANCH  13  14
ENDBRANCH   1  13
BRANCH   1  24
HETATM   24  N           1     -19.788  -7.286  -6.370  0.00  0.00    -0.066 N 
HETATM   25  H           1     -20.502  -7.718  -7.000  0.00  0.00     0.275 HD
HETATM   26  H           1     -18.840  -7.386  -6.796  0.00  0.00     0.275 HD
HETATM   27  H           1     -20.006  -6.272  -6.242  0.00  0.00     0.275 HD
ENDBRANCH   1  24
TORSDOF 7
ENDMDL
MODEL 9
REMARK VINA RESULT:      -7.1      3.623      7.671
REMARK  7 active torsions:
REMARK  status: ('A' for Active; 'I' for Inactive)
REMARK       I    between atoms: C_6  and  N_11 
REMARK    1  A    between atoms: C_6  and  C_7 
REMARK    2  A    between atoms: C_7  and  C_20 
REMARK    3  A    between atoms: C_7  and  N_24 
REMARK    4  A    between atoms: N_11  and  C_21 
REMARK    5  A    between atoms: C_14  and  C_21 
REMARK    6  A    between atoms: C_15  and  C_21 
REMARK    7  A    between atoms: C_18  and  C_20 
ROOT
HETATM    1  C           1     -21.300  -6.642  -4.964  0.00  0.00     0.278 C 
ENDROOT
BRANCH   1   2
HETATM    2  C           1     -20.545  -7.884  -4.562  0.00  0.00     0.249 C 
HETATM    3  O           1     -20.295  -8.090  -3.398  0.00  0.00    -0.271 OA
HETATM    4  N           1     -20.142  -8.780  -5.516  0.00  0.00    -0.344 N 
HETATM    5  H           1     -20.351  -8.608  -6.492  0.00  0.00     0.163 HD
BRANCH   4   6
HETATM    6  C           1     -19.417  -9.974  -5.131  0.00  0.00     0.189 C 
BRANCH   6   7
HETATM    7  C           1     -19.943 -11.166  -5.920  0.00  0.00     0.010 C 
HETATM    8  C           1     -21.423 -11.365  -5.613  0.00  0.00     0.012 C 
HETATM    9  C           1     -19.171 -12.417  -5.525  0.00  0.00     0.012 C 
ENDBRANCH   6   7
BRANCH   6  10
HETATM   10  C           1     -17.949  -9.787  -5.424  0.00  0.00     0.197 C 
HETATM   11  O           1     -17.582  -9.386  -6.550  0.00  0.00    -0.646 OA
HETATM   12  O           1     -17.099 -10.034  -4.541  0.00  0.00    -0.646 OA
ENDBRANCH   6  10
ENDBRANCH   4   6
ENDBRANCH   1   2
BRANCH   1  13
HETATM   13  C           1     -20.560  -5.940  -6.096  0.00  0.00     0.083 C 
BRANCH  13  14
HETATM   14  C           1     -21.543  -5.224  -6.968  0.00  0.00    -0.028 A 
HETATM   15  C           1     -21.320  -4.791  -8.304  0.00  0.00    -0.002 A 
HETATM   16  C           1     -22.492  -4.172  -8.737  0.00  0.00     0.042 A 
HETATM   17  C           1     -20.226  -4.867  -9.189  0.00  0.00     0.014 A 
HETATM   18  N           1     -23.390  -4.231  -7.695  0.00  0.00    -0.365 N 
HETATM   19  C           1     -22.628  -3.622 -10.018  0.00  0.00     0.030 A 
HETATM   20  C           1     -22.826  -4.866  -6.620  0.00  0.00     0.096 A 
HETATM   21  H           1     -24.366  -3.847  -7.721  0.00  0.00     0.165 HD
HETATM   22  C           1     -21.529  -3.710 -10.879  0.00  0.00     0.002 A 
HETATM   23  C           1     -20.345  -4.323 -10.473  0.00  0.00     0.001 A 
ENDBRANCH  13  14
ENDBRANCH   1  13
BRANCH   1  24
HETATM   24  N           1     -21.404  -5.718  -3.788  0.00  0.00    -0.066 N 
HETATM   25  H           1     -21.945  -4.866  -4.059  0.00  0.00     0.275 HD
HETATM   26  H           1     -20.445  -5.439  -3.479  0.00  0.00     0.275 HD
HETATM   27  H           1     -21.893  -6.205  -3.003  0.00  0.00     0.275 HD
ENDBRANCH   1  24
TORSDOF 7
ENDMDL
