MODEL 1
REMARK VINA RESULT:      -6.2      0.000      0.000
REMARK  9 active torsions:
REMARK  status: ('A' for Active; 'I' for Inactive)
REMARK    1  A    between atoms: N_2  and  C_20 
REMARK       I    between atoms: N_2  and  C_3 
REMARK    2  A    between atoms: C_3  and  C_4 
REMARK    3  A    between atoms: C_4  and  C_5 
REMARK    4  A    between atoms: C_4  and  N_6 
REMARK    5  A    between atoms: C_5  and  S_9 
REMARK       I    between atoms: C_13  and  N_23 
REMARK    6  A    between atoms: C_13  and  C_22 
REMARK    7  A    between atoms: C_19  and  C_20 
REMARK    8  A    between atoms: C_20  and  C_21 
REMARK    9  A    between atoms: C_21  and  C_22 
ROOT
HETATM    1  N           1     -27.667  -6.763 -19.118  0.00  0.00    -0.345 N 
HETATM    2  C           1     -26.396  -6.512 -18.675  0.00  0.00     0.249 C 
HETATM    3  O           1     -26.220  -6.058 -17.570  0.00  0.00    -0.271 OA
HETATM    4  H           1     -27.815  -7.144 -20.044  0.00  0.00     0.163 HD
ENDROOT
BRANCH   1   5
HETATM    5  C           1     -28.802  -6.486 -18.259  0.00  0.00     0.186 C 
BRANCH   5   6
HETATM    6  C           1     -29.859  -7.543 -18.465  0.00  0.00     0.196 C 
HETATM    7  O           1     -29.651  -8.487 -19.258  0.00  0.00    -0.646 OA
HETATM    8  O           1     -30.940  -7.476 -17.843  0.00  0.00    -0.646 OA
ENDBRANCH   5   6
BRANCH   5   9
HETATM    9  C           1     -29.376  -5.118 -18.604  0.00  0.00     0.045 C 
BRANCH   9  10
HETATM   10  C           1     -29.609  -4.327 -17.323  0.00  0.00     0.105 C 
BRANCH  10  11
HETATM   11  C           1     -31.084  -4.048 -17.165  0.00  0.00     0.215 C 
HETATM   12  O           1     -31.555  -3.021 -17.593  0.00  0.00    -0.274 OA
HETATM   13  N           1     -31.888  -4.961 -16.536  0.00  0.00    -0.370 N 
HETATM   14  H           1     -31.494  -5.821 -16.177  0.00  0.00     0.159 HD
HETATM   15  H           1     -32.877  -4.774 -16.429  0.00  0.00     0.159 HD
ENDBRANCH  10  11
ENDBRANCH   9  10
ENDBRANCH   5   9
ENDBRANCH   1   5
BRANCH   2  16
HETATM   16  C           1     -25.215  -6.802 -19.569  0.00  0.00     0.283 C 
BRANCH  16  17
HETATM   17  C           1     -25.669  -7.648 -20.752  0.00  0.00     0.113 C 
BRANCH  17  18
HETATM   18  S           1     -24.277  -7.894 -21.891  0.00  0.00    -0.180 SA
HETATM   19  H           1     -24.578  -9.165 -22.208  0.00  0.00     0.101 HD
ENDBRANCH  17  18
ENDBRANCH  16  17
BRANCH  16  20
HETATM   20  N           1     -24.173  -7.550 -18.791  0.00  0.00    -0.066 N 
HETATM   21  H           1     -23.723  -6.907 -18.101  0.00  0.00     0.275 HD
HETATM   22  H           1     -24.621  -8.346 -18.284  0.00  0.00     0.275 HD
HETATM   23  H           1     -23.447  -7.919 -19.446  0.00  0.00     0.275 HD
ENDBRANCH  16  20
ENDBRANCH   2  16
TORSDOF 9
ENDMDL
MODEL 2
REMARK VINA RESULT:      -5.9      2.185      3.245
REMARK  9 active torsions:
REMARK  status: ('A' for Active; 'I' for Inactive)
REMARK    1  A    between atoms: N_2  and  C_20 
REMARK       I    between atoms: N_2  and  C_3 
REMARK    2  A    between atoms: C_3  and  C_4 
REMARK    3  A    between atoms: C_4  and  C_5 
REMARK    4  A    between atoms: C_4  and  N_6 
REMARK    5  A    between atoms: C_5  and  S_9 
REMARK       I    between atoms: C_13  and  N_23 
REMARK    6  A    between atoms: C_13  and  C_22 
REMARK    7  A    between atoms: C_19  and  C_20 
REMARK    8  A    between atoms: C_20  and  C_21 
REMARK    9  A    between atoms: C_21  and  C_22 
ROOT
HETATM    1  N           1     -26.248  -6.851 -18.440  0.00  0.00    -0.345 N 
HETATM    2  C           1     -25.113  -6.938 -19.200  0.00  0.00     0.249 C 
HETATM    3  O           1     -24.096  -6.399 -18.833  0.00  0.00    -0.271 OA
HETATM    4  H           1     -27.100  -7.302 -18.748  0.00  0.00     0.163 HD
ENDROOT
BRANCH   1   5
HETATM    5  C           1     -26.229  -6.113 -17.192  0.00  0.00     0.186 C 
BRANCH   5   6
HETATM    6  C           1     -25.998  -7.068 -16.047  0.00  0.00     0.196 C 
HETATM    7  O           1     -26.957  -7.428 -15.330  0.00  0.00    -0.646 OA
HETATM    8  O           1     -24.848  -7.501 -15.815  0.00  0.00    -0.646 OA
ENDBRANCH   5   6
BRANCH   5   9
HETATM    9  C           1     -27.563  -5.404 -17.001  0.00  0.00     0.045 C 
BRANCH   9  10
HETATM   10  C           1     -28.546  -5.873 -18.066  0.00  0.00     0.105 C 
BRANCH  10  11
HETATM   11  C           1     -29.593  -6.756 -17.431  0.00  0.00     0.215 C 
HETATM   12  O           1     -30.633  -6.278 -17.045  0.00  0.00    -0.274 OA
HETATM   13  N           1     -29.363  -8.098 -17.292  0.00  0.00    -0.370 N 
HETATM   14  H           1     -28.491  -8.498 -17.615  0.00  0.00     0.159 HD
HETATM   15  H           1     -30.064  -8.691 -16.866  0.00  0.00     0.159 HD
ENDBRANCH  10  11
ENDBRANCH   9  10
ENDBRANCH   5   9
ENDBRANCH   1   5
BRANCH   2  16
HETATM   16  C           1     -25.133  -7.706 -20.499  0.00  0.00     0.283 C 
BRANCH  16  17
HETATM   17  C           1     -24.589  -6.827 -21.618  0.00  0.00     0.113 C 
BRANCH  17  18
HETATM   18  S           1     -23.641  -7.846 -22.784  0.00  0.00    -0.180 SA
HETATM   19  H           1     -22.430  -7.535 -22.291  0.00  0.00     0.101 HD
ENDBRANCH  17  18
ENDBRANCH  16  17
BRANCH  16  20
HETATM   20  N           1     -26.542  -8.107 -20.821  0.00  0.00    -0.066 N 
HETATM   21  H           1     -26.946  -8.639 -20.016  0.00  0.00     0.275 HD
HETATM   22  H           1     -27.116  -7.252 -20.996  0.00  0.00     0.275 HD
HETATM   23  H           1     -26.547  -8.712 -21.673  0.00  0.00     0.275 HD
ENDBRANCH  16  20
ENDBRANCH   2  16
TORSDOF 9
ENDMDL
MODEL 3
REMARK VINA RESULT:      -5.9      9.697     10.928
REMARK  9 active torsions:
REMARK  status: ('A' for Active; 'I' for Inactive)
REMARK    1  A    between atoms: N_2  and  C_20 
REMARK       I    between atoms: N_2  and  C_3 
REMARK    2  A    between atoms: C_3  and  C_4 
REMARK    3  A    between atoms: C_4  and  C_5 
REMARK    4  A    between atoms: C_4  and  N_6 
REMARK    5  A    between atoms: C_5  and  S_9 
REMARK       I    between atoms: C_13  and  N_23 
REMARK    6  A    between atoms: C_13  and  C_22 
REMARK    7  A    between atoms: C_19  and  C_20 
REMARK    8  A    between atoms: C_20  and  C_21 
REMARK    9  A    between atoms: C_21  and  C_22 
ROOT
HETATM    1  N           1     -35.029  -1.415 -13.070  0.00  0.00    -0.345 N 
HETATM    2  C           1     -34.392  -2.131 -12.092  0.00  0.00     0.249 C 
HETATM    3  O           1     -34.188  -1.630 -11.012  0.00  0.00    -0.271 OA
HETATM    4  H           1     -35.200  -1.834 -13.974  0.00  0.00     0.163 HD
ENDROOT
BRANCH   1   5
HETATM    5  C           1     -35.461  -0.056 -12.808  0.00  0.00     0.186 C 
BRANCH   5   6
HETATM    6  C           1     -36.880  -0.069 -12.296  0.00  0.00     0.196 C 
HETATM    7  O           1     -37.786  -0.593 -12.980  0.00  0.00    -0.646 OA
HETATM    8  O           1     -37.150   0.441 -11.187  0.00  0.00    -0.646 OA
ENDBRANCH   5   6
BRANCH   5   9
HETATM    9  C           1     -35.392   0.755 -14.095  0.00  0.00     0.045 C 
BRANCH   9  10
HETATM   10  C           1     -35.373  -0.188 -15.290  0.00  0.00     0.105 C 
BRANCH  10  11
HETATM   11  C           1     -36.640  -0.011 -16.091  0.00  0.00     0.215 C 
HETATM   12  O           1     -36.864  -0.732 -17.035  0.00  0.00    -0.274 OA
HETATM   13  N           1     -37.535   0.965 -15.748  0.00  0.00    -0.370 N 
HETATM   14  H           1     -37.348   1.569 -14.957  0.00  0.00     0.159 HD
HETATM   15  H           1     -38.386   1.084 -16.285  0.00  0.00     0.159 HD
ENDBRANCH  10  11
ENDBRANCH   9  10
ENDBRANCH   5   9
ENDBRANCH   1   5
BRANCH   2  16
HETATM   16  C           1     -33.943  -3.546 -12.365  0.00  0.00     0.283 C 
BRANCH  16  17
HETATM   17  C           1     -34.953  -4.522 -11.774  0.00  0.00     0.113 C 
BRANCH  17  18
HETATM   18  S           1     -34.075  -5.844 -10.893  0.00  0.00    -0.180 SA
HETATM   19  H           1     -34.581  -5.565  -9.679  0.00  0.00     0.101 HD
ENDBRANCH  17  18
ENDBRANCH  16  17
BRANCH  16  20
HETATM   20  N           1     -32.601  -3.774 -11.735  0.00  0.00    -0.066 N 
HETATM   21  H           1     -32.566  -4.736 -11.327  0.00  0.00     0.275 HD
HETATM   22  H           1     -31.855  -3.676 -12.459  0.00  0.00     0.275 HD
HETATM   23  H           1     -32.447  -3.070 -10.978  0.00  0.00     0.275 HD
ENDBRANCH  16  20
ENDBRANCH   2  16
TORSDOF 9
ENDMDL
MODEL 4
REMARK VINA RESULT:      -5.6      9.180     11.738
REMARK  9 active torsions:
REMARK  status: ('A' for Active; 'I' for Inactive)
REMARK    1  A    between atoms: N_2  and  C_20 
REMARK       I    between atoms: N_2  and  C_3 
REMARK    2  A    between atoms: C_3  and  C_4 
REMARK    3  A    between atoms: C_4  and  C_5 
REMARK    4  A    between atoms: C_4  and  N_6 
REMARK    5  A    between atoms: C_5  and  S_9 
REMARK       I    between atoms: C_13  and  N_23 
REMARK    6  A    between atoms: C_13  and  C_22 
REMARK    7  A    between atoms: C_19  and  C_20 
REMARK    8  A    between atoms: C_20  and  C_21 
REMARK    9  A    between atoms: C_21  and  C_22 
ROOT
HETATM    1  N           1     -35.659  -0.485 -12.237  0.00  0.00    -0.345 N 
HETATM    2  C           1     -36.446  -0.277 -13.338  0.00  0.00     0.249 C 
HETATM    3  O           1     -37.506  -0.847 -13.441  0.00  0.00    -0.271 OA
HETATM    4  H           1     -34.771  -0.008 -12.151  0.00  0.00     0.163 HD
ENDROOT
BRANCH   1   5
HETATM    5  C           1     -36.100  -1.389 -11.192  0.00  0.00     0.186 C 
BRANCH   5   6
HETATM    6  C           1     -36.637  -0.590 -10.030  0.00  0.00     0.196 C 
HETATM    7  O           1     -37.828  -0.208 -10.031  0.00  0.00    -0.646 OA
HETATM    8  O           1     -35.893  -0.310  -9.066  0.00  0.00    -0.646 OA
ENDBRANCH   5   6
BRANCH   5   9
HETATM    9  C           1     -34.925  -2.238 -10.726  0.00  0.00     0.045 C 
BRANCH   9  10
HETATM   10  C           1     -35.017  -3.622 -11.355  0.00  0.00     0.105 C 
BRANCH  10  11
HETATM   11  C           1     -34.124  -3.683 -12.570  0.00  0.00     0.215 C 
HETATM   12  O           1     -34.450  -3.120 -13.588  0.00  0.00    -0.274 OA
HETATM   13  N           1     -32.945  -4.376 -12.518  0.00  0.00    -0.370 N 
HETATM   14  H           1     -32.672  -4.848 -11.665  0.00  0.00     0.159 HD
HETATM   15  H           1     -32.346  -4.418 -13.333  0.00  0.00     0.159 HD
ENDBRANCH  10  11
ENDBRANCH   9  10
ENDBRANCH   5   9
ENDBRANCH   1   5
BRANCH   2  16
HETATM   16  C           1     -35.987   0.664 -14.426  0.00  0.00     0.283 C 
BRANCH  16  17
HETATM   17  C           1     -36.701   0.324 -15.727  0.00  0.00     0.113 C 
BRANCH  17  18
HETATM   18  S           1     -35.812  -1.011 -16.576  0.00  0.00    -0.180 SA
HETATM   19  H           1     -36.708  -1.170 -17.566  0.00  0.00     0.101 HD
ENDBRANCH  17  18
ENDBRANCH  16  17
BRANCH  16  20
HETATM   20  N           1     -34.506   0.521 -14.617  0.00  0.00    -0.066 N 
HETATM   21  H           1     -34.297  -0.411 -15.044  0.00  0.00     0.275 HD
HETATM   22  H           1     -34.161   1.278 -15.250  0.00  0.00     0.275 HD
HETATM   23  H           1     -34.026   0.594 -13.692  0.00  0.00     0.275 HD
ENDBRANCH  16  20
ENDBRANCH   2  16
TORSDOF 9
ENDMDL
MODEL 5
REMARK VINA RESULT:      -5.4      1.974      2.169
REMARK  9 active torsions:
REMARK  status: ('A' for Active; 'I' for Inactive)
REMARK    1  A    between atoms: N_2  and  C_20 
REMARK       I    between atoms: N_2  and  C_3 
REMARK    2  A    between atoms: C_3  and  C_4 
REMARK    3  A    between atoms: C_4  and  C_5 
REMARK    4  A    between atoms: C_4  and  N_6 
REMARK    5  A    between atoms: C_5  and  S_9 
REMARK       I    between atoms: C_13  and  N_23 
REMARK    6  A    between atoms: C_13  and  C_22 
REMARK    7  A    between atoms: C_19  and  C_20 
REMARK    8  A    between atoms: C_20  and  C_21 
REMARK    9  A    between atoms: C_21  and  C_22 
ROOT
HETATM    1  N           1     -27.119  -6.197 -17.735  0.00  0.00    -0.345 N 
HETATM    2  C           1     -25.762  -6.375 -17.697  0.00  0.00     0.249 C 
HETATM    3  O           1     -25.179  -6.349 -16.640  0.00  0.00    -0.271 OA
HETATM    4  H           1     -27.608  -6.219 -18.621  0.00  0.00     0.163 HD
ENDROOT
BRANCH   1   5
HETATM    5  C           1     -27.856  -5.980 -16.506  0.00  0.00     0.186 C 
BRANCH   5   6
HETATM    6  C           1     -28.390  -7.297 -16.000  0.00  0.00     0.196 C 
HETATM    7  O           1     -29.222  -7.936 -16.680  0.00  0.00    -0.646 OA
HETATM    8  O           1     -28.001  -7.750 -14.902  0.00  0.00    -0.646 OA
ENDBRANCH   5   6
BRANCH   5   9
HETATM    9  C           1     -29.016  -5.029 -16.770  0.00  0.00     0.045 C 
BRANCH   9  10
HETATM   10  C           1     -28.473  -3.665 -17.175  0.00  0.00     0.105 C 
BRANCH  10  11
HETATM   11  C           1     -29.616  -2.690 -17.320  0.00  0.00     0.215 C 
HETATM   12  O           1     -30.748  -3.098 -17.427  0.00  0.00    -0.274 OA
HETATM   13  N           1     -29.370  -1.344 -17.330  0.00  0.00    -0.370 N 
HETATM   14  H           1     -28.421  -1.002 -17.240  0.00  0.00     0.159 HD
HETATM   15  H           1     -30.136  -0.690 -17.427  0.00  0.00     0.159 HD
ENDBRANCH  10  11
ENDBRANCH   9  10
ENDBRANCH   5   9
ENDBRANCH   1   5
BRANCH   2  16
HETATM   16  C           1     -24.995  -6.603 -18.977  0.00  0.00     0.283 C 
BRANCH  16  17
HETATM   17  C           1     -25.960  -7.021 -20.080  0.00  0.00     0.113 C 
BRANCH  17  18
HETATM   18  S           1     -25.055  -7.926 -21.367  0.00  0.00    -0.180 SA
HETATM   19  H           1     -25.771  -7.453 -22.402  0.00  0.00     0.101 HD
ENDBRANCH  17  18
ENDBRANCH  16  17
BRANCH  16  20
HETATM   20  N           1     -23.980  -7.686 -18.765  0.00  0.00    -0.066 N 
HETATM   21  H           1     -24.022  -8.015 -17.774  0.00  0.00     0.275 HD
HETATM   22  H           1     -24.185  -8.486 -19.406  0.00  0.00     0.275 HD
HETATM   23  H           1     -23.025  -7.313 -18.967  0.00  0.00     0.275 HD
ENDBRANCH  16  20
ENDBRANCH   2  16
TORSDOF 9
ENDMDL
MODEL 6
REMARK VINA RESULT:      -5.4      1.887      2.503
REMARK  9 active torsions:
REMARK  status: ('A' for Active; 'I' for Inactive)
REMARK    1  A    between atoms: N_2  and  C_20 
REMARK       I    between atoms: N_2  and  C_3 
REMARK    2  A    between atoms: C_3  and  C_4 
REMARK    3  A    between atoms: C_4  and  C_5 
REMARK    4  A    between atoms: C_4  and  N_6 
REMARK    5  A    between atoms: C_5  and  S_9 
REMARK       I    between atoms: C_13  and  N_23 
REMARK    6  A    between atoms: C_13  and  C_22 
REMARK    7  A    between atoms: C_19  and  C_20 
REMARK    8  A    between atoms: C_20  and  C_21 
REMARK    9  A    between atoms: C_21  and  C_22 
ROOT
HETATM    1  N           1     -26.856  -6.691 -18.657  0.00  0.00    -0.345 N 
HETATM    2  C           1     -26.558  -6.594 -19.990  0.00  0.00     0.249 C 
HETATM    3  O           1     -26.862  -5.600 -20.606  0.00  0.00    -0.271 OA
HETATM    4  H           1     -26.600  -7.523 -18.141  0.00  0.00     0.163 HD
ENDROOT
BRANCH   1   5
HETATM    5  C           1     -27.535  -5.601 -17.984  0.00  0.00     0.186 C 
BRANCH   5   6
HETATM    6  C           1     -27.177  -5.614 -16.518  0.00  0.00     0.196 C 
HETATM    7  O           1     -25.984  -5.492 -16.166  0.00  0.00    -0.646 OA
HETATM    8  O           1     -28.073  -5.746 -15.657  0.00  0.00    -0.646 OA
ENDBRANCH   5   6
BRANCH   5   9
HETATM    9  C           1     -29.040  -5.767 -18.142  0.00  0.00     0.045 C 
BRANCH   9  10
HETATM   10  C           1     -29.681  -4.405 -18.374  0.00  0.00     0.105 C 
BRANCH  10  11
HETATM   11  C           1     -30.783  -4.189 -17.366  0.00  0.00     0.215 C 
HETATM   12  O           1     -31.469  -3.196 -17.424  0.00  0.00    -0.274 OA
HETATM   13  N           1     -31.006  -5.119 -16.387  0.00  0.00    -0.370 N 
HETATM   14  H           1     -30.432  -5.951 -16.338  0.00  0.00     0.159 HD
HETATM   15  H           1     -31.746  -4.974 -15.711  0.00  0.00     0.159 HD
ENDBRANCH  10  11
ENDBRANCH   9  10
ENDBRANCH   5   9
ENDBRANCH   1   5
BRANCH   2  16
HETATM   16  C           1     -25.850  -7.728 -20.689  0.00  0.00     0.283 C 
BRANCH  16  17
HETATM   17  C           1     -24.967  -7.169 -21.798  0.00  0.00     0.113 C 
BRANCH  17  18
HETATM   18  S           1     -23.544  -8.267 -22.052  0.00  0.00    -0.180 SA
HETATM   19  H           1     -22.670  -7.295 -22.365  0.00  0.00     0.101 HD
ENDBRANCH  17  18
ENDBRANCH  16  17
BRANCH  16  20
HETATM   20  N           1     -26.865  -8.660 -21.282  0.00  0.00    -0.066 N 
HETATM   21  H           1     -27.796  -8.187 -21.315  0.00  0.00     0.275 HD
HETATM   22  H           1     -26.573  -8.923 -22.250  0.00  0.00     0.275 HD
HETATM   23  H           1     -26.934  -9.520 -20.692  0.00  0.00     0.275 HD
ENDBRANCH  16  20
ENDBRANCH   2  16
TORSDOF 9
ENDMDL
MODEL 7
REMARK VINA RESULT:      -5.1     19.171     21.469
REMARK  9 active torsions:
REMARK  status: ('A' for Active; 'I' for Inactive)
REMARK    1  A    between atoms: N_2  and  C_20 
REMARK       I    between atoms: N_2  and  C_3 
REMARK    2  A    between atoms: C_3  and  C_4 
REMARK    3  A    between atoms: C_4  and  C_5 
REMARK    4  A    between atoms: C_4  and  N_6 
REMARK    5  A    between atoms: C_5  and  S_9 
REMARK       I    between atoms: C_13  and  N_23 
REMARK    6  A    between atoms: C_13  and  C_22 
REMARK    7  A    between atoms: C_19  and  C_20 
REMARK    8  A    between atoms: C_20  and  C_21 
REMARK    9  A    between atoms: C_21  and  C_22 
ROOT
HETATM    1  N           1     -11.271   5.179 -21.439  0.00  0.00    -0.345 N 
HETATM    2  C           1     -11.617   3.932 -21.885  0.00  0.00     0.249 C 
HETATM    3  O           1     -10.947   2.974 -21.582  0.00  0.00    -0.271 OA
HETATM    4  H           1     -11.832   5.982 -21.694  0.00  0.00     0.163 HD
ENDROOT
BRANCH   1   5
HETATM    5  C           1     -10.100   5.350 -20.601  0.00  0.00     0.186 C 
BRANCH   5   6
HETATM    6  C           1     -10.527   5.455 -19.157  0.00  0.00     0.196 C 
HETATM    7  O           1     -11.725   5.282 -18.846  0.00  0.00    -0.646 OA
HETATM    8  O           1      -9.683   5.713 -18.272  0.00  0.00    -0.646 OA
ENDBRANCH   5   6
BRANCH   5   9
HETATM    9  C           1      -9.365   6.620 -21.008  0.00  0.00     0.045 C 
BRANCH   9  10
HETATM   10  C           1     -10.350   7.779 -21.073  0.00  0.00     0.105 C 
BRANCH  10  11
HETATM   11  C           1      -9.859   8.907 -20.197  0.00  0.00     0.215 C 
HETATM   12  O           1      -9.175   9.784 -20.668  0.00  0.00    -0.274 OA
HETATM   13  N           1     -10.190   8.935 -18.869  0.00  0.00    -0.370 N 
HETATM   14  H           1     -10.763   8.200 -18.474  0.00  0.00     0.159 HD
HETATM   15  H           1      -9.861   9.691 -18.282  0.00  0.00     0.159 HD
ENDBRANCH  10  11
ENDBRANCH   9  10
ENDBRANCH   5   9
ENDBRANCH   1   5
BRANCH   2  16
HETATM   16  C           1     -12.837   3.755 -22.757  0.00  0.00     0.283 C 
BRANCH  16  17
HETATM   17  C           1     -13.559   5.089 -22.898  0.00  0.00     0.113 C 
BRANCH  17  18
HETATM   18  S           1     -15.071   5.069 -21.894  0.00  0.00    -0.180 SA
HETATM   19  H           1     -15.311   6.389 -21.975  0.00  0.00     0.101 HD
ENDBRANCH  17  18
ENDBRANCH  16  17
BRANCH  16  20
HETATM   20  N           1     -13.758   2.752 -22.129  0.00  0.00    -0.066 N 
HETATM   21  H           1     -14.195   3.167 -21.274  0.00  0.00     0.275 HD
HETATM   22  H           1     -14.506   2.491 -22.810  0.00  0.00     0.275 HD
HETATM   23  H           1     -13.216   1.899 -21.863  0.00  0.00     0.275 HD
ENDBRANCH  16  20
ENDBRANCH   2  16
TORSDOF 9
ENDMDL
MODEL 8
REMARK VINA RESULT:      -5.1     10.011     11.146
REMARK  9 active torsions:
REMARK  status: ('A' for Active; 'I' for Inactive)
REMARK    1  A    between atoms: N_2  and  C_20 
REMARK       I    between atoms: N_2  and  C_3 
REMARK    2  A    between atoms: C_3  and  C_4 
REMARK    3  A    between atoms: C_4  and  C_5 
REMARK    4  A    between atoms: C_4  and  N_6 
REMARK    5  A    between atoms: C_5  and  S_9 
REMARK       I    between atoms: C_13  and  N_23 
REMARK    6  A    between atoms: C_13  and  C_22 
REMARK    7  A    between atoms: C_19  and  C_20 
REMARK    8  A    between atoms: C_20  and  C_21 
REMARK    9  A    between atoms: C_21  and  C_22 
ROOT
HETATM    1  N           1     -34.745  -1.543 -13.140  0.00  0.00    -0.345 N 
HETATM    2  C           1     -35.852  -0.855 -13.559  0.00  0.00     0.249 C 
HETATM    3  O           1     -36.914  -1.025 -13.007  0.00  0.00    -0.271 OA
HETATM    4  H           1     -33.856  -1.401 -13.602  0.00  0.00     0.163 HD
ENDROOT
BRANCH   1   5
HETATM    5  C           1     -34.846  -2.474 -12.033  0.00  0.00     0.186 C 
BRANCH   5   6
HETATM    6  C           1     -34.243  -1.852 -10.797  0.00  0.00     0.196 C 
HETATM    7  O           1     -34.978  -1.531  -9.837  0.00  0.00    -0.646 OA
HETATM    8  O           1     -33.010  -1.659 -10.731  0.00  0.00    -0.646 OA
ENDBRANCH   5   6
BRANCH   5   9
HETATM    9  C           1     -34.097  -3.754 -12.376  0.00  0.00     0.045 C 
BRANCH   9  10
HETATM   10  C           1     -33.707  -4.475 -11.092  0.00  0.00     0.105 C 
BRANCH  10  11
HETATM   11  C           1     -34.403  -5.812 -11.034  0.00  0.00     0.215 C 
HETATM   12  O           1     -34.713  -6.287  -9.967  0.00  0.00    -0.274 OA
HETATM   13  N           1     -34.684  -6.488 -12.191  0.00  0.00    -0.370 N 
HETATM   14  H           1     -34.425  -6.090 -13.085  0.00  0.00     0.159 HD
HETATM   15  H           1     -35.152  -7.385 -12.152  0.00  0.00     0.159 HD
ENDBRANCH  10  11
ENDBRANCH   9  10
ENDBRANCH   5   9
ENDBRANCH   1   5
BRANCH   2  16
HETATM   16  C           1     -35.747   0.114 -14.711  0.00  0.00     0.283 C 
BRANCH  16  17
HETATM   17  C           1     -36.278  -0.544 -15.978  0.00  0.00     0.113 C 
BRANCH  17  18
HETATM   18  S           1     -38.068  -0.267 -16.100  0.00  0.00    -0.180 SA
HETATM   19  H           1     -38.419  -1.223 -15.223  0.00  0.00     0.101 HD
ENDBRANCH  17  18
ENDBRANCH  16  17
BRANCH  16  20
HETATM   20  N           1     -34.310   0.496 -14.912  0.00  0.00    -0.066 N 
HETATM   21  H           1     -33.829  -0.241 -15.477  0.00  0.00     0.275 HD
HETATM   22  H           1     -34.260   1.409 -15.417  0.00  0.00     0.275 HD
HETATM   23  H           1     -33.840   0.584 -13.983  0.00  0.00     0.275 HD
ENDBRANCH  16  20
ENDBRANCH   2  16
TORSDOF 9
ENDMDL
MODEL 9
REMARK VINA RESULT:      -5.0     14.374     15.484
REMARK  9 active torsions:
REMARK  status: ('A' for Active; 'I' for Inactive)
REMARK    1  A    between atoms: N_2  and  C_20 
REMARK       I    between atoms: N_2  and  C_3 
REMARK    2  A    between atoms: C_3  and  C_4 
REMARK    3  A    between atoms: C_4  and  C_5 
REMARK    4  A    between atoms: C_4  and  N_6 
REMARK    5  A    between atoms: C_5  and  S_9 
REMARK       I    between atoms: C_13  and  N_23 
REMARK    6  A    between atoms: C_13  and  C_22 
REMARK    7  A    between atoms: C_19  and  C_20 
REMARK    8  A    between atoms: C_20  and  C_21 
REMARK    9  A    between atoms: C_21  and  C_22 
ROOT
HETATM    1  N           1     -21.105  -6.535  -6.464  0.00  0.00    -0.345 N 
HETATM    2  C           1     -20.984  -5.237  -6.884  0.00  0.00     0.249 C 
HETATM    3  O           1     -20.525  -4.402  -6.143  0.00  0.00    -0.271 OA
HETATM    4  H           1     -21.490  -7.234  -7.085  0.00  0.00     0.163 HD
ENDROOT
BRANCH   1   5
HETATM    5  C           1     -20.679  -6.906  -5.129  0.00  0.00     0.186 C 
BRANCH   5   6
HETATM    6  C           1     -20.088  -8.294  -5.158  0.00  0.00     0.196 C 
HETATM    7  O           1     -20.571  -9.194  -4.436  0.00  0.00    -0.646 OA
HETATM    8  O           1     -19.118  -8.546  -5.904  0.00  0.00    -0.646 OA
ENDBRANCH   5   6
BRANCH   5   9
HETATM    9  C           1     -21.877  -6.883  -4.189  0.00  0.00     0.045 C 
BRANCH   9  10
HETATM   10  C           1     -21.505  -6.144  -2.910  0.00  0.00     0.105 C 
BRANCH  10  11
HETATM   11  C           1     -21.815  -7.014  -1.717  0.00  0.00     0.215 C 
HETATM   12  O           1     -22.692  -6.697  -0.949  0.00  0.00    -0.274 OA
HETATM   13  N           1     -21.103  -8.164  -1.506  0.00  0.00    -0.370 N 
HETATM   14  H           1     -20.369  -8.430  -2.150  0.00  0.00     0.159 HD
HETATM   15  H           1     -21.311  -8.749  -0.706  0.00  0.00     0.159 HD
ENDBRANCH  10  11
ENDBRANCH   9  10
ENDBRANCH   5   9
ENDBRANCH   1   5
BRANCH   2  16
HETATM   16  C           1     -21.427  -4.851  -8.275  0.00  0.00     0.283 C 
BRANCH  16  17
HETATM   17  C           1     -20.213  -4.443  -9.099  0.00  0.00     0.113 C 
BRANCH  17  18
HETATM   18  S           1     -20.712  -4.180 -10.825  0.00  0.00    -0.180 SA
HETATM   19  H           1     -20.010  -3.048 -11.004  0.00  0.00     0.101 HD
ENDBRANCH  17  18
ENDBRANCH  16  17
BRANCH  16  20
HETATM   20  N           1     -22.384  -3.698  -8.191  0.00  0.00    -0.066 N 
HETATM   21  H           1     -21.862  -2.801  -8.314  0.00  0.00     0.275 HD
HETATM   22  H           1     -23.104  -3.788  -8.944  0.00  0.00     0.275 HD
HETATM   23  H           1     -22.853  -3.702  -7.258  0.00  0.00     0.275 HD
ENDBRANCH  16  20
ENDBRANCH   2  16
TORSDOF 9
ENDMDL
