MODEL 1
REMARK VINA RESULT:      -6.5      0.000      0.000
REMARK  8 active torsions:
REMARK  status: ('A' for Active; 'I' for Inactive)
REMARK    1  A    between atoms: N_5  and  C_11 
REMARK       I    between atoms: N_5  and  C_19 
REMARK    2  A    between atoms: C_6  and  C_11 
REMARK    3  A    between atoms: O_9  and  C_10 
REMARK    4  A    between atoms: C_10  and  C_22 
REMARK    5  A    between atoms: C_11  and  C_15 
REMARK    6  A    between atoms: C_12  and  C_15 
REMARK    7  A    between atoms: C_19  and  C_22 
REMARK    8  A    between atoms: C_22  and  N_23 
ROOT
HETATM    1  N           1     -25.314  -7.207 -18.129  0.00  0.00    -0.344 N 
HETATM    2  O           1     -23.555  -6.324 -19.183  0.00  0.00    -0.271 OA
HETATM    3  C           1     -24.666  -6.791 -19.260  0.00  0.00     0.251 C 
HETATM    4  H           1     -25.212  -8.162 -17.809  0.00  0.00     0.163 HD
ENDROOT
BRANCH   1   5
HETATM    5  C           1     -26.148  -6.281 -17.387  0.00  0.00     0.191 C 
BRANCH   5   6
HETATM    6  C           1     -25.975  -6.522 -15.908  0.00  0.00     0.197 C 
HETATM    7  O           1     -26.672  -7.386 -15.330  0.00  0.00    -0.646 OA
HETATM    8  O           1     -25.136  -5.861 -15.260  0.00  0.00    -0.646 OA
ENDBRANCH   5   6
BRANCH   5   9
HETATM    9  C           1     -27.607  -6.494 -17.770  0.00  0.00     0.094 C 
BRANCH   9  10
HETATM   10  C           1     -28.332  -5.185 -17.719  0.00  0.00     0.028 A 
HETATM   11  C           1     -29.443  -4.877 -18.467  0.00  0.00     0.114 A 
HETATM   12  N           1     -29.768  -3.598 -18.108  0.00  0.00    -0.360 N 
HETATM   13  H           1     -30.571  -3.033 -18.481  0.00  0.00     0.166 HD
HETATM   14  C           1     -28.860  -3.190 -17.173  0.00  0.00     0.180 A 
HETATM   15  N           1     -27.978  -4.129 -16.918  0.00  0.00    -0.354 N 
ATOM     16  HN          1     -27.196  -4.084 -16.263  1.00  0.00     0.166 HD
ENDBRANCH   9  10
ENDBRANCH   5   9
ENDBRANCH   1   5
BRANCH   3  17
HETATM   17  C           1     -25.343  -6.914 -20.604  0.00  0.00     0.302 C 
BRANCH  17  18
HETATM   18  C           1     -24.718  -8.064 -21.383  0.00  0.00     0.153 C 
HETATM   19  C           1     -24.049  -7.521 -22.638  0.00  0.00     0.042 C 
BRANCH  18  20
HETATM   20  O           1     -23.761  -8.705 -20.583  0.00  0.00    -0.393 OA
HETATM   21  H           1     -23.623  -9.561 -20.954  0.00  0.00     0.210 HD
ENDBRANCH  18  20
ENDBRANCH  17  18
BRANCH  17  22
HETATM   22  N           1     -25.166  -5.637 -21.372  0.00  0.00    -0.064 N 
HETATM   23  H           1     -24.531  -4.997 -20.843  0.00  0.00     0.275 HD
HETATM   24  H           1     -26.095  -5.177 -21.501  0.00  0.00     0.275 HD
HETATM   25  H           1     -24.748  -5.848 -22.306  0.00  0.00     0.275 HD
ENDBRANCH  17  22
ENDBRANCH   3  17
TORSDOF 8
ENDMDL
MODEL 2
REMARK VINA RESULT:      -6.3     10.190     12.510
REMARK  8 active torsions:
REMARK  status: ('A' for Active; 'I' for Inactive)
REMARK    1  A    between atoms: N_5  and  C_11 
REMARK       I    between atoms: N_5  and  C_19 
REMARK    2  A    between atoms: C_6  and  C_11 
REMARK    3  A    between atoms: O_9  and  C_10 
REMARK    4  A    between atoms: C_10  and  C_22 
REMARK    5  A    between atoms: C_11  and  C_15 
REMARK    6  A    between atoms: C_12  and  C_15 
REMARK    7  A    between atoms: C_19  and  C_22 
REMARK    8  A    between atoms: C_22  and  N_23 
ROOT
HETATM    1  N           1     -34.528  -1.815 -13.048  0.00  0.00    -0.344 N 
HETATM    2  O           1     -34.331  -3.628 -14.336  0.00  0.00    -0.271 OA
HETATM    3  C           1     -34.537  -3.171 -13.237  0.00  0.00     0.251 C 
HETATM    4  H           1     -33.666  -1.343 -12.804  0.00  0.00     0.163 HD
ENDROOT
BRANCH   1   5
HETATM    5  C           1     -35.754  -1.055 -13.195  0.00  0.00     0.191 C 
BRANCH   5   6
HETATM    6  C           1     -35.917  -0.640 -14.637  0.00  0.00     0.197 C 
HETATM    7  O           1     -34.923  -0.262 -15.295  0.00  0.00    -0.646 OA
HETATM    8  O           1     -37.045  -0.673 -15.174  0.00  0.00    -0.646 OA
ENDBRANCH   5   6
BRANCH   5   9
HETATM    9  C           1     -35.690   0.186 -12.314  0.00  0.00     0.094 C 
BRANCH   9  10
HETATM   10  C           1     -36.454  -0.062 -11.049  0.00  0.00     0.028 A 
HETATM   11  C           1     -37.803   0.148 -10.898  0.00  0.00     0.114 A 
HETATM   12  N           1     -38.073  -0.202  -9.603  0.00  0.00    -0.360 N 
HETATM   13  H           1     -39.011  -0.170  -9.133  0.00  0.00     0.166 HD
HETATM   14  C           1     -36.898  -0.604  -9.034  0.00  0.00     0.180 A 
HETATM   15  N           1     -35.900  -0.529  -9.885  0.00  0.00    -0.354 N 
ATOM     16  HN          1     -34.923  -0.768  -9.717  1.00  0.00     0.166 HD
ENDBRANCH   9  10
ENDBRANCH   5   9
ENDBRANCH   1   5
BRANCH   3  17
HETATM   17  C           1     -34.803  -4.093 -12.073  0.00  0.00     0.302 C 
BRANCH  17  18
HETATM   18  C           1     -33.672  -3.972 -11.060  0.00  0.00     0.153 C 
HETATM   19  C           1     -32.343  -4.243 -11.752  0.00  0.00     0.042 C 
BRANCH  18  20
HETATM   20  O           1     -33.662  -2.677 -10.522  0.00  0.00    -0.393 OA
HETATM   21  H           1     -34.074  -2.114 -11.155  0.00  0.00     0.210 HD
ENDBRANCH  18  20
ENDBRANCH  17  18
BRANCH  17  22
HETATM   22  N           1     -34.884  -5.508 -12.563  0.00  0.00    -0.064 N 
HETATM   23  H           1     -35.777  -5.941 -12.234  0.00  0.00     0.275 HD
HETATM   24  H           1     -34.075  -6.053 -12.190  0.00  0.00     0.275 HD
HETATM   25  H           1     -34.859  -5.516 -13.608  0.00  0.00     0.275 HD
ENDBRANCH  17  22
ENDBRANCH   3  17
TORSDOF 8
ENDMDL
MODEL 3
REMARK VINA RESULT:      -6.2      2.030      5.341
REMARK  8 active torsions:
REMARK  status: ('A' for Active; 'I' for Inactive)
REMARK    1  A    between atoms: N_5  and  C_11 
REMARK       I    between atoms: N_5  and  C_19 
REMARK    2  A    between atoms: C_6  and  C_11 
REMARK    3  A    between atoms: O_9  and  C_10 
REMARK    4  A    between atoms: C_10  and  C_22 
REMARK    5  A    between atoms: C_11  and  C_15 
REMARK    6  A    between atoms: C_12  and  C_15 
REMARK    7  A    between atoms: C_19  and  C_22 
REMARK    8  A    between atoms: C_22  and  N_23 
ROOT
HETATM    1  N           1     -26.458  -5.714 -16.903  0.00  0.00    -0.344 N 
HETATM    2  O           1     -28.374  -6.057 -15.809  0.00  0.00    -0.271 OA
HETATM    3  C           1     -27.825  -5.753 -16.840  0.00  0.00     0.251 C 
HETATM    4  H           1     -25.966  -4.856 -16.686  0.00  0.00     0.163 HD
ENDROOT
BRANCH   1   5
HETATM    5  C           1     -25.715  -6.900 -17.281  0.00  0.00     0.191 C 
BRANCH   5   6
HETATM    6  C           1     -24.987  -7.442 -16.075  0.00  0.00     0.197 C 
HETATM    7  O           1     -25.262  -7.011 -14.934  0.00  0.00    -0.646 OA
HETATM    8  O           1     -24.110  -8.321 -16.217  0.00  0.00    -0.646 OA
ENDBRANCH   5   6
BRANCH   5   9
HETATM    9  C           1     -24.706  -6.542 -18.364  0.00  0.00     0.094 C 
BRANCH   9  10
HETATM   10  C           1     -25.059  -7.259 -19.631  0.00  0.00     0.028 A 
HETATM   11  C           1     -24.148  -7.841 -20.480  0.00  0.00     0.114 A 
HETATM   12  N           1     -24.898  -8.373 -21.493  0.00  0.00    -0.360 N 
HETATM   13  H           1     -24.534  -8.898 -22.326  0.00  0.00     0.166 HD
HETATM   14  C           1     -26.208  -8.099 -21.221  0.00  0.00     0.180 A 
HETATM   15  N           1     -26.336  -7.426 -20.101  0.00  0.00    -0.354 N 
ATOM     16  HN          1     -27.202  -7.097 -19.671  1.00  0.00     0.166 HD
ENDBRANCH   9  10
ENDBRANCH   5   9
ENDBRANCH   1   5
BRANCH   3  17
HETATM   17  C           1     -28.646  -5.419 -18.062  0.00  0.00     0.302 C 
BRANCH  17  18
HETATM   18  C           1     -29.204  -4.008 -17.927  0.00  0.00     0.153 C 
HETATM   19  C           1     -30.653  -4.080 -17.464  0.00  0.00     0.042 C 
BRANCH  18  20
HETATM   20  O           1     -28.448  -3.293 -16.986  0.00  0.00    -0.393 OA
HETATM   21  H           1     -29.024  -2.654 -16.601  0.00  0.00     0.210 HD
ENDBRANCH  18  20
ENDBRANCH  17  18
BRANCH  17  22
HETATM   22  N           1     -29.778  -6.394 -18.187  0.00  0.00    -0.064 N 
HETATM   23  H           1     -29.790  -7.023 -17.352  0.00  0.00     0.275 HD
HETATM   24  H           1     -29.651  -6.966 -19.052  0.00  0.00     0.275 HD
HETATM   25  H           1     -30.682  -5.872 -18.243  0.00  0.00     0.275 HD
ENDBRANCH  17  22
ENDBRANCH   3  17
TORSDOF 8
ENDMDL
MODEL 4
REMARK VINA RESULT:      -6.2     11.062     12.646
REMARK  8 active torsions:
REMARK  status: ('A' for Active; 'I' for Inactive)
REMARK    1  A    between atoms: N_5  and  C_11 
REMARK       I    between atoms: N_5  and  C_19 
REMARK    2  A    between atoms: C_6  and  C_11 
REMARK    3  A    between atoms: O_9  and  C_10 
REMARK    4  A    between atoms: C_10  and  C_22 
REMARK    5  A    between atoms: C_11  and  C_15 
REMARK    6  A    between atoms: C_12  and  C_15 
REMARK    7  A    between atoms: C_19  and  C_22 
REMARK    8  A    between atoms: C_22  and  N_23 
ROOT
HETATM    1  N           1     -34.723  -1.448 -12.653  0.00  0.00    -0.344 N 
HETATM    2  O           1     -35.117   0.749 -12.599  0.00  0.00    -0.271 OA
HETATM    3  C           1     -35.380  -0.326 -13.081  0.00  0.00     0.251 C 
HETATM    4  H           1     -33.867  -1.738 -13.108  0.00  0.00     0.163 HD
ENDROOT
BRANCH   1   5
HETATM    5  C           1     -35.253  -2.221 -11.546  0.00  0.00     0.191 C 
BRANCH   5   6
HETATM    6  C           1     -36.222  -1.372 -10.759  0.00  0.00     0.197 C 
HETATM    7  O           1     -35.805  -0.653  -9.824  0.00  0.00    -0.646 OA
HETATM    8  O           1     -37.439  -1.389 -11.040  0.00  0.00    -0.646 OA
ENDBRANCH   5   6
BRANCH   5   9
HETATM    9  C           1     -34.110  -2.659 -10.640  0.00  0.00     0.094 C 
BRANCH   9  10
HETATM   10  C           1     -33.820  -4.110 -10.870  0.00  0.00     0.028 A 
HETATM   11  C           1     -32.801  -4.588 -11.659  0.00  0.00     0.114 A 
HETATM   12  N           1     -32.905  -5.950 -11.585  0.00  0.00    -0.360 N 
HETATM   13  H           1     -32.285  -6.648 -12.066  0.00  0.00     0.166 HD
HETATM   14  C           1     -33.962  -6.237 -10.768  0.00  0.00     0.180 A 
HETATM   15  N           1     -34.535  -5.144 -10.321  0.00  0.00    -0.354 N 
ATOM     16  HN          1     -35.340  -5.077  -9.698  1.00  0.00     0.166 HD
ENDBRANCH   9  10
ENDBRANCH   5   9
ENDBRANCH   1   5
BRANCH   3  17
HETATM   17  C           1     -36.434  -0.434 -14.156  0.00  0.00     0.302 C 
BRANCH  17  18
HETATM   18  C           1     -35.927   0.226 -15.431  0.00  0.00     0.153 C 
HETATM   19  C           1     -35.837  -0.815 -16.539  0.00  0.00     0.042 C 
BRANCH  18  20
HETATM   20  O           1     -36.814   1.242 -15.817  0.00  0.00    -0.393 OA
HETATM   21  H           1     -37.456   1.320 -15.131  0.00  0.00     0.210 HD
ENDBRANCH  18  20
ENDBRANCH  17  18
BRANCH  17  22
HETATM   22  N           1     -37.686   0.255 -13.700  0.00  0.00    -0.064 N 
HETATM   23  H           1     -38.250  -0.400 -13.112  0.00  0.00     0.275 HD
HETATM   24  H           1     -38.245   0.547 -14.532  0.00  0.00     0.275 HD
HETATM   25  H           1     -37.433   1.098 -13.136  0.00  0.00     0.275 HD
ENDBRANCH  17  22
ENDBRANCH   3  17
TORSDOF 8
ENDMDL
MODEL 5
REMARK VINA RESULT:      -6.1     10.309     11.609
REMARK  8 active torsions:
REMARK  status: ('A' for Active; 'I' for Inactive)
REMARK    1  A    between atoms: N_5  and  C_11 
REMARK       I    between atoms: N_5  and  C_19 
REMARK    2  A    between atoms: C_6  and  C_11 
REMARK    3  A    between atoms: O_9  and  C_10 
REMARK    4  A    between atoms: C_10  and  C_22 
REMARK    5  A    between atoms: C_11  and  C_15 
REMARK    6  A    between atoms: C_12  and  C_15 
REMARK    7  A    between atoms: C_19  and  C_22 
REMARK    8  A    between atoms: C_22  and  N_23 
ROOT
HETATM    1  N           1     -33.629  -2.668 -12.364  0.00  0.00    -0.344 N 
HETATM    2  O           1     -34.297  -3.755 -14.196  0.00  0.00    -0.271 OA
HETATM    3  C           1     -34.241  -3.720 -12.991  0.00  0.00     0.251 C 
HETATM    4  H           1     -32.640  -2.709 -12.155  0.00  0.00     0.163 HD
ENDROOT
BRANCH   1   5
HETATM    5  C           1     -34.399  -1.494 -11.999  0.00  0.00     0.191 C 
BRANCH   5   6
HETATM    6  C           1     -34.675  -1.516 -10.515  0.00  0.00     0.197 C 
HETATM    7  O           1     -33.789  -1.898  -9.720  0.00  0.00    -0.646 OA
HETATM    8  O           1     -35.789  -1.151 -10.082  0.00  0.00    -0.646 OA
ENDBRANCH   5   6
BRANCH   5   9
HETATM    9  C           1     -35.718  -1.496 -12.761  0.00  0.00     0.094 C 
BRANCH   9  10
HETATM   10  C           1     -35.722  -0.373 -13.753  0.00  0.00     0.028 A 
HETATM   11  C           1     -35.009   0.793 -13.615  0.00  0.00     0.114 A 
HETATM   12  N           1     -35.303   1.523 -14.734  0.00  0.00    -0.360 N 
HETATM   13  H           1     -34.933   2.476 -14.970  0.00  0.00     0.166 HD
HETATM   14  C           1     -36.165   0.781 -15.491  0.00  0.00     0.180 A 
HETATM   15  N           1     -36.437  -0.371 -14.922  0.00  0.00    -0.354 N 
ATOM     16  HN          1     -37.050  -1.107 -15.275  1.00  0.00     0.166 HD
ENDBRANCH   9  10
ENDBRANCH   5   9
ENDBRANCH   1   5
BRANCH   3  17
HETATM   17  C           1     -34.845  -4.836 -12.173  0.00  0.00     0.302 C 
BRANCH  17  18
HETATM   18  C           1     -33.903  -5.196 -11.032  0.00  0.00     0.153 C 
HETATM   19  C           1     -34.450  -6.408 -10.288  0.00  0.00     0.042 C 
BRANCH  18  20
HETATM   20  O           1     -32.635  -5.499 -11.549  0.00  0.00    -0.393 OA
HETATM   21  H           1     -32.624  -6.425 -11.723  0.00  0.00     0.210 HD
ENDBRANCH  18  20
ENDBRANCH  17  18
BRANCH  17  22
HETATM   22  N           1     -35.055  -6.038 -13.046  0.00  0.00    -0.064 N 
HETATM   23  H           1     -35.776  -5.820 -13.772  0.00  0.00     0.275 HD
HETATM   24  H           1     -35.381  -6.840 -12.461  0.00  0.00     0.275 HD
HETATM   25  H           1     -34.155  -6.289 -13.514  0.00  0.00     0.275 HD
ENDBRANCH  17  22
ENDBRANCH   3  17
TORSDOF 8
ENDMDL
MODEL 6
REMARK VINA RESULT:      -5.8     10.273     13.012
REMARK  8 active torsions:
REMARK  status: ('A' for Active; 'I' for Inactive)
REMARK    1  A    between atoms: N_5  and  C_11 
REMARK       I    between atoms: N_5  and  C_19 
REMARK    2  A    between atoms: C_6  and  C_11 
REMARK    3  A    between atoms: O_9  and  C_10 
REMARK    4  A    between atoms: C_10  and  C_22 
REMARK    5  A    between atoms: C_11  and  C_15 
REMARK    6  A    between atoms: C_12  and  C_15 
REMARK    7  A    between atoms: C_19  and  C_22 
REMARK    8  A    between atoms: C_22  and  N_23 
ROOT
HETATM    1  N           1     -20.411  -5.915  -6.955  0.00  0.00    -0.344 N 
HETATM    2  O           1     -21.199  -7.900  -6.306  0.00  0.00    -0.271 OA
HETATM    3  C           1     -21.125  -6.713  -6.103  0.00  0.00     0.251 C 
HETATM    4  H           1     -19.427  -5.747  -6.786  0.00  0.00     0.163 HD
ENDROOT
BRANCH   1   5
HETATM    5  C           1     -21.063  -5.310  -8.100  0.00  0.00     0.191 C 
BRANCH   5   6
HETATM    6  C           1     -20.050  -4.529  -8.901  0.00  0.00     0.197 C 
HETATM    7  O           1     -19.414  -3.596  -8.364  0.00  0.00    -0.646 OA
HETATM    8  O           1     -19.848  -4.814 -10.101  0.00  0.00    -0.646 OA
ENDBRANCH   5   6
BRANCH   5   9
HETATM    9  C           1     -22.163  -4.372  -7.620  0.00  0.00     0.094 C 
BRANCH   9  10
HETATM   10  C           1     -23.184  -4.204  -8.703  0.00  0.00     0.028 A 
HETATM   11  C           1     -23.205  -4.922  -9.874  0.00  0.00     0.114 A 
HETATM   12  N           1     -24.291  -4.449 -10.559  0.00  0.00    -0.360 N 
HETATM   13  H           1     -24.618  -4.771 -11.503  0.00  0.00     0.166 HD
HETATM   14  C           1     -24.873  -3.483  -9.790  0.00  0.00     0.180 A 
HETATM   15  N           1     -24.224  -3.312  -8.660  0.00  0.00    -0.354 N 
ATOM     16  HN          1     -24.447  -2.656  -7.911  1.00  0.00     0.166 HD
ENDBRANCH   9  10
ENDBRANCH   5   9
ENDBRANCH   1   5
BRANCH   3  17
HETATM   17  C           1     -21.821  -6.106  -4.908  0.00  0.00     0.302 C 
BRANCH  17  18
HETATM   18  C           1     -21.318  -6.774  -3.635  0.00  0.00     0.153 C 
HETATM   19  C           1     -21.938  -6.089  -2.425  0.00  0.00     0.042 C 
BRANCH  18  20
HETATM   20  O           1     -21.680  -8.128  -3.642  0.00  0.00    -0.393 OA
HETATM   21  H           1     -20.941  -8.608  -3.975  0.00  0.00     0.210 HD
ENDBRANCH  18  20
ENDBRANCH  17  18
BRANCH  17  22
HETATM   22  N           1     -23.301  -6.317  -5.031  0.00  0.00    -0.064 N 
HETATM   23  H           1     -23.747  -5.448  -5.404  0.00  0.00     0.275 HD
HETATM   24  H           1     -23.700  -6.539  -4.092  0.00  0.00     0.275 HD
HETATM   25  H           1     -23.486  -7.111  -5.686  0.00  0.00     0.275 HD
ENDBRANCH  17  22
ENDBRANCH   3  17
TORSDOF 8
ENDMDL
MODEL 7
REMARK VINA RESULT:      -5.8      1.801      2.192
REMARK  8 active torsions:
REMARK  status: ('A' for Active; 'I' for Inactive)
REMARK    1  A    between atoms: N_5  and  C_11 
REMARK       I    between atoms: N_5  and  C_19 
REMARK    2  A    between atoms: C_6  and  C_11 
REMARK    3  A    between atoms: O_9  and  C_10 
REMARK    4  A    between atoms: C_10  and  C_22 
REMARK    5  A    between atoms: C_11  and  C_15 
REMARK    6  A    between atoms: C_12  and  C_15 
REMARK    7  A    between atoms: C_19  and  C_22 
REMARK    8  A    between atoms: C_22  and  N_23 
ROOT
HETATM    1  N           1     -26.908  -7.002 -18.151  0.00  0.00    -0.344 N 
HETATM    2  O           1     -24.822  -6.320 -18.562  0.00  0.00    -0.271 OA
HETATM    3  C           1     -25.889  -6.674 -19.003  0.00  0.00     0.251 C 
HETATM    4  H           1     -27.012  -7.956 -17.829  0.00  0.00     0.163 HD
ENDROOT
BRANCH   1   5
HETATM    5  C           1     -27.839  -5.982 -17.707  0.00  0.00     0.191 C 
BRANCH   5   6
HETATM    6  C           1     -27.834  -5.919 -16.199  0.00  0.00     0.197 C 
HETATM    7  O           1     -27.677  -4.821 -15.621  0.00  0.00    -0.646 OA
HETATM    8  O           1     -27.986  -6.962 -15.529  0.00  0.00    -0.646 OA
ENDBRANCH   5   6
BRANCH   5   9
HETATM    9  C           1     -29.239  -6.327 -18.196  0.00  0.00     0.094 C 
BRANCH   9  10
HETATM   10  C           1     -30.204  -5.283 -17.723  0.00  0.00     0.028 A 
HETATM   11  C           1     -30.120  -3.947 -18.028  0.00  0.00     0.114 A 
HETATM   12  N           1     -31.188  -3.371 -17.397  0.00  0.00    -0.360 N 
HETATM   13  H           1     -31.443  -2.353 -17.410  0.00  0.00     0.166 HD
HETATM   14  C           1     -31.865  -4.364 -16.748  0.00  0.00     0.180 A 
HETATM   15  N           1     -31.292  -5.533 -16.927  0.00  0.00    -0.354 N 
ATOM     16  HN          1     -31.593  -6.434 -16.554  1.00  0.00     0.166 HD
ENDBRANCH   9  10
ENDBRANCH   5   9
ENDBRANCH   1   5
BRANCH   3  17
HETATM   17  C           1     -26.100  -6.753 -20.496  0.00  0.00     0.302 C 
BRANCH  17  18
HETATM   18  C           1     -26.054  -8.210 -20.938  0.00  0.00     0.153 C 
HETATM   19  C           1     -27.463  -8.684 -21.265  0.00  0.00     0.042 C 
BRANCH  18  20
HETATM   20  O           1     -25.244  -8.329 -22.077  0.00  0.00    -0.393 OA
HETATM   21  H           1     -24.650  -9.043 -21.917  0.00  0.00     0.210 HD
ENDBRANCH  18  20
ENDBRANCH  17  18
BRANCH  17  22
HETATM   22  N           1     -25.019  -5.984 -21.196  0.00  0.00    -0.064 N 
HETATM   23  H           1     -24.862  -6.389 -22.146  0.00  0.00     0.275 HD
HETATM   24  H           1     -24.135  -6.044 -20.641  0.00  0.00     0.275 HD
HETATM   25  H           1     -25.307  -4.984 -21.287  0.00  0.00     0.275 HD
ENDBRANCH  17  22
ENDBRANCH   3  17
TORSDOF 8
ENDMDL
MODEL 8
REMARK VINA RESULT:      -5.7      2.524      5.744
REMARK  8 active torsions:
REMARK  status: ('A' for Active; 'I' for Inactive)
REMARK    1  A    between atoms: N_5  and  C_11 
REMARK       I    between atoms: N_5  and  C_19 
REMARK    2  A    between atoms: C_6  and  C_11 
REMARK    3  A    between atoms: O_9  and  C_10 
REMARK    4  A    between atoms: C_10  and  C_22 
REMARK    5  A    between atoms: C_11  and  C_15 
REMARK    6  A    between atoms: C_12  and  C_15 
REMARK    7  A    between atoms: C_19  and  C_22 
REMARK    8  A    between atoms: C_22  and  N_23 
ROOT
HETATM    1  N           1     -28.473  -7.067 -16.723  0.00  0.00    -0.344 N 
HETATM    2  O           1     -29.796  -8.449 -17.874  0.00  0.00    -0.271 OA
HETATM    3  C           1     -29.600  -7.335 -17.453  0.00  0.00     0.251 C 
HETATM    4  H           1     -28.486  -7.171 -15.716  0.00  0.00     0.163 HD
ENDROOT
BRANCH   1   5
HETATM    5  C           1     -27.261  -6.635 -17.392  0.00  0.00     0.191 C 
BRANCH   5   6
HETATM    6  C           1     -26.640  -5.495 -16.621  0.00  0.00     0.197 C 
HETATM    7  O           1     -27.184  -4.369 -16.626  0.00  0.00    -0.646 OA
HETATM    8  O           1     -25.585  -5.677 -15.979  0.00  0.00    -0.646 OA
ENDBRANCH   5   6
BRANCH   5   9
HETATM    9  C           1     -27.599  -6.170 -18.802  0.00  0.00     0.094 C 
BRANCH   9  10
HETATM   10  C           1     -26.722  -6.882 -19.786  0.00  0.00     0.028 A 
HETATM   11  C           1     -25.392  -6.605 -19.990  0.00  0.00     0.114 A 
HETATM   12  N           1     -24.992  -7.481 -20.961  0.00  0.00    -0.360 N 
HETATM   13  H           1     -24.029  -7.558 -21.371  0.00  0.00     0.166 HD
HETATM   14  C           1     -26.077  -8.240 -21.300  0.00  0.00     0.180 A 
HETATM   15  N           1     -27.138  -7.900 -20.605  0.00  0.00    -0.354 N 
ATOM     16  HN          1     -28.072  -8.306 -20.662  1.00  0.00     0.166 HD
ENDBRANCH   9  10
ENDBRANCH   5   9
ENDBRANCH   1   5
BRANCH   3  17
HETATM   17  C           1     -30.596  -6.236 -17.731  0.00  0.00     0.302 C 
BRANCH  17  18
HETATM   18  C           1     -30.295  -5.040 -16.836  0.00  0.00     0.153 C 
HETATM   19  C           1     -31.083  -3.832 -17.324  0.00  0.00     0.042 C 
BRANCH  18  20
HETATM   20  O           1     -30.665  -5.338 -15.517  0.00  0.00    -0.393 OA
HETATM   21  H           1     -31.127  -4.586 -15.186  0.00  0.00     0.210 HD
ENDBRANCH  18  20
ENDBRANCH  17  18
BRANCH  17  22
HETATM   22  N           1     -31.982  -6.734 -17.449  0.00  0.00    -0.064 N 
HETATM   23  H           1     -32.141  -6.758 -16.416  0.00  0.00     0.275 HD
HETATM   24  H           1     -32.093  -7.696 -17.841  0.00  0.00     0.275 HD
HETATM   25  H           1     -32.679  -6.094 -17.893  0.00  0.00     0.275 HD
ENDBRANCH  17  22
ENDBRANCH   3  17
TORSDOF 8
ENDMDL
MODEL 9
REMARK VINA RESULT:      -5.7      2.012      2.631
REMARK  8 active torsions:
REMARK  status: ('A' for Active; 'I' for Inactive)
REMARK    1  A    between atoms: N_5  and  C_11 
REMARK       I    between atoms: N_5  and  C_19 
REMARK    2  A    between atoms: C_6  and  C_11 
REMARK    3  A    between atoms: O_9  and  C_10 
REMARK    4  A    between atoms: C_10  and  C_22 
REMARK    5  A    between atoms: C_11  and  C_15 
REMARK    6  A    between atoms: C_12  and  C_15 
REMARK    7  A    between atoms: C_19  and  C_22 
REMARK    8  A    between atoms: C_22  and  N_23 
ROOT
HETATM    1  N           1     -26.301  -6.984 -17.484  0.00  0.00    -0.344 N 
HETATM    2  O           1     -24.383  -7.441 -16.436  0.00  0.00    -0.271 OA
HETATM    3  C           1     -24.937  -7.086 -17.448  0.00  0.00     0.251 C 
HETATM    4  H           1     -26.862  -7.781 -17.759  0.00  0.00     0.163 HD
ENDROOT
BRANCH   1   5
HETATM    5  C           1     -26.944  -5.734 -17.126  0.00  0.00     0.191 C 
BRANCH   5   6
HETATM    6  C           1     -27.646  -5.891 -15.799  0.00  0.00     0.197 C 
HETATM    7  O           1     -28.147  -4.894 -15.236  0.00  0.00    -0.646 OA
HETATM    8  O           1     -27.727  -7.018 -15.264  0.00  0.00    -0.646 OA
ENDBRANCH   5   6
BRANCH   5   9
HETATM    9  C           1     -27.962  -5.364 -18.198  0.00  0.00     0.094 C 
BRANCH   9  10
HETATM   10  C           1     -29.142  -6.281 -18.103  0.00  0.00     0.028 A 
HETATM   11  C           1     -29.276  -7.456 -18.801  0.00  0.00     0.114 A 
HETATM   12  N           1     -30.488  -7.961 -18.415  0.00  0.00    -0.360 N 
HETATM   13  H           1     -30.923  -8.857 -18.748  0.00  0.00     0.166 HD
HETATM   14  C           1     -31.028  -7.088 -17.514  0.00  0.00     0.180 A 
HETATM   15  N           1     -30.236  -6.061 -17.306  0.00  0.00    -0.354 N 
ATOM     16  HN          1     -30.400  -5.269 -16.684  1.00  0.00     0.166 HD
ENDBRANCH   9  10
ENDBRANCH   5   9
ENDBRANCH   1   5
BRANCH   3  17
HETATM   17  C           1     -24.124  -6.754 -18.676  0.00  0.00     0.302 C 
BRANCH  17  18
HETATM   18  C           1     -24.705  -7.483 -19.881  0.00  0.00     0.153 C 
HETATM   19  C           1     -25.239  -6.465 -20.880  0.00  0.00     0.042 C 
BRANCH  18  20
HETATM   20  O           1     -23.704  -8.254 -20.490  0.00  0.00    -0.393 OA
HETATM   21  H           1     -23.873  -9.152 -20.261  0.00  0.00     0.210 HD
ENDBRANCH  18  20
ENDBRANCH  17  18
BRANCH  17  22
HETATM   22  N           1     -22.703  -7.187 -18.468  0.00  0.00    -0.064 N 
HETATM   23  H           1     -22.623  -7.693 -17.557  0.00  0.00     0.275 HD
HETATM   24  H           1     -22.082  -6.347 -18.456  0.00  0.00     0.275 HD
HETATM   25  H           1     -22.416  -7.823 -19.246  0.00  0.00     0.275 HD
ENDBRANCH  17  22
ENDBRANCH   3  17
TORSDOF 8
ENDMDL
