MODEL 1
REMARK VINA RESULT:      -5.5      0.000      0.000
REMARK  8 active torsions:
REMARK  status: ('A' for Active; 'I' for Inactive)
REMARK    1  A    between atoms: N_1  and  C_6 
REMARK    2  A    between atoms: C_5  and  C_6 
REMARK    3  A    between atoms: C_5  and  O_12 
REMARK    4  A    between atoms: C_6  and  C_8 
REMARK    5  A    between atoms: O_7  and  C_14 
REMARK       I    between atoms: C_8  and  N_11 
REMARK    6  A    between atoms: N_11  and  C_17 
REMARK    7  A    between atoms: C_14  and  C_17 
REMARK    8  A    between atoms: C_17  and  C_18 
ROOT
HETATM    1  C           1     -35.430  -1.132 -12.881  0.00  0.00     0.251 C 
HETATM    2  N           1     -34.995  -0.535 -14.034  0.00  0.00    -0.343 N 
HETATM    3  H           1     -34.004  -0.425 -14.204  0.00  0.00     0.163 HD
HETATM    4  O           1     -36.614  -1.263 -12.678  0.00  0.00    -0.271 OA
ENDROOT
BRANCH   1   5
HETATM    5  C           1     -34.431  -1.626 -11.864  0.00  0.00     0.297 C 
BRANCH   5   6
HETATM    6  N           1     -35.047  -1.586 -10.498  0.00  0.00    -0.064 N 
HETATM    7  H           1     -35.255  -0.595 -10.238  0.00  0.00     0.275 HD
HETATM    8  H           1     -35.934  -2.139 -10.500  0.00  0.00     0.275 HD
HETATM    9  H           1     -34.382  -1.996  -9.803  0.00  0.00     0.275 HD
ENDBRANCH   5   6
BRANCH   5  10
HETATM   10  C           1     -34.032  -3.057 -12.199  0.00  0.00     0.206 C 
BRANCH  10  11
HETATM   11  O           1     -34.387  -3.344 -13.525  0.00  0.00    -0.398 OA
HETATM   12  H           1     -35.051  -2.722 -13.772  0.00  0.00     0.209 HD
ENDBRANCH  10  11
ENDBRANCH   5  10
ENDBRANCH   1   5
BRANCH   2  13
HETATM   13  C           1     -35.955  -0.059 -15.011  0.00  0.00     0.209 C 
BRANCH  13  14
HETATM   14  C           1     -35.593   1.359 -15.430  0.00  0.00     0.200 C 
BRANCH  14  15
HETATM   15  O           1     -36.674   1.938 -16.110  0.00  0.00    -0.398 OA
HETATM   16  H           1     -36.347   2.711 -16.535  0.00  0.00     0.209 HD
ENDBRANCH  14  15
ENDBRANCH  13  14
BRANCH  13  17
HETATM   17  C           1     -35.931  -0.963 -16.219  0.00  0.00     0.198 C 
HETATM   18  O           1     -36.702  -0.745 -17.178  0.00  0.00    -0.646 OA
HETATM   19  O           1     -35.141  -1.930 -16.261  0.00  0.00    -0.646 OA
ENDBRANCH  13  17
ENDBRANCH   2  13
TORSDOF 8
ENDMDL
MODEL 2
REMARK VINA RESULT:      -5.2     12.648     14.495
REMARK  8 active torsions:
REMARK  status: ('A' for Active; 'I' for Inactive)
REMARK    1  A    between atoms: N_1  and  C_6 
REMARK    2  A    between atoms: C_5  and  C_6 
REMARK    3  A    between atoms: C_5  and  O_12 
REMARK    4  A    between atoms: C_6  and  C_8 
REMARK    5  A    between atoms: O_7  and  C_14 
REMARK       I    between atoms: C_8  and  N_11 
REMARK    6  A    between atoms: N_11  and  C_17 
REMARK    7  A    between atoms: C_14  and  C_17 
REMARK    8  A    between atoms: C_17  and  C_18 
ROOT
HETATM    1  C           1     -21.700  -4.390  -7.865  0.00  0.00     0.251 C 
HETATM    2  N           1     -22.193  -4.835  -9.063  0.00  0.00    -0.343 N 
HETATM    3  H           1     -22.288  -5.828  -9.233  0.00  0.00     0.163 HD
HETATM    4  O           1     -21.588  -3.205  -7.661  0.00  0.00    -0.271 OA
ENDROOT
BRANCH   1   5
HETATM    5  C           1     -21.299  -5.381  -6.799  0.00  0.00     0.297 C 
BRANCH   5   6
HETATM    6  N           1     -20.232  -4.779  -5.935  0.00  0.00    -0.064 N 
HETATM    7  H           1     -20.048  -5.408  -5.120  0.00  0.00     0.275 HD
HETATM    8  H           1     -19.355  -4.666  -6.492  0.00  0.00     0.275 HD
HETATM    9  H           1     -20.549  -3.845  -5.589  0.00  0.00     0.275 HD
ENDBRANCH   5   6
BRANCH   5  10
HETATM   10  C           1     -22.511  -5.724  -5.944  0.00  0.00     0.206 C 
BRANCH  10  11
HETATM   11  O           1     -23.613  -4.968  -6.368  0.00  0.00    -0.398 OA
HETATM   12  H           1     -23.847  -4.400  -5.653  0.00  0.00     0.209 HD
ENDBRANCH  10  11
ENDBRANCH   5  10
ENDBRANCH   1   5
BRANCH   2  13
HETATM   13  C           1     -22.578  -3.884 -10.087  0.00  0.00     0.209 C 
BRANCH  13  14
HETATM   14  C           1     -21.928  -4.269 -11.409  0.00  0.00     0.200 C 
BRANCH  14  15
HETATM   15  O           1     -22.916  -4.678 -12.315  0.00  0.00    -0.398 OA
HETATM   16  H           1     -22.873  -5.618 -12.360  0.00  0.00     0.209 HD
ENDBRANCH  14  15
ENDBRANCH  13  14
BRANCH  13  17
HETATM   17  C           1     -24.079  -3.894 -10.241  0.00  0.00     0.198 C 
HETATM   18  O           1     -24.661  -2.911 -10.749  0.00  0.00    -0.646 OA
HETATM   19  O           1     -24.740  -4.884  -9.862  0.00  0.00    -0.646 OA
ENDBRANCH  13  17
ENDBRANCH   2  13
TORSDOF 8
ENDMDL
MODEL 3
REMARK VINA RESULT:      -5.1      1.938      4.689
REMARK  8 active torsions:
REMARK  status: ('A' for Active; 'I' for Inactive)
REMARK    1  A    between atoms: N_1  and  C_6 
REMARK    2  A    between atoms: C_5  and  C_6 
REMARK    3  A    between atoms: C_5  and  O_12 
REMARK    4  A    between atoms: C_6  and  C_8 
REMARK    5  A    between atoms: O_7  and  C_14 
REMARK       I    between atoms: C_8  and  N_11 
REMARK    6  A    between atoms: N_11  and  C_17 
REMARK    7  A    between atoms: C_14  and  C_17 
REMARK    8  A    between atoms: C_17  and  C_18 
ROOT
HETATM    1  C           1     -35.953   0.330 -14.123  0.00  0.00     0.251 C 
HETATM    2  N           1     -36.355  -0.572 -13.174  0.00  0.00    -0.343 N 
HETATM    3  H           1     -37.110  -1.215 -13.376  0.00  0.00     0.163 HD
HETATM    4  O           1     -35.051   1.098 -13.883  0.00  0.00    -0.271 OA
ENDROOT
BRANCH   1   5
HETATM    5  C           1     -36.635   0.364 -15.469  0.00  0.00     0.297 C 
BRANCH   5   6
HETATM    6  N           1     -36.434   1.711 -16.096  0.00  0.00    -0.064 N 
HETATM    7  H           1     -36.023   2.365 -15.392  0.00  0.00     0.275 HD
HETATM    8  H           1     -35.784   1.623 -16.910  0.00  0.00     0.275 HD
HETATM    9  H           1     -37.354   2.084 -16.423  0.00  0.00     0.275 HD
ENDBRANCH   5   6
BRANCH   5  10
HETATM   10  C           1     -36.037  -0.709 -16.368  0.00  0.00     0.206 C 
BRANCH  10  11
HETATM   11  O           1     -35.180  -1.525 -15.617  0.00  0.00    -0.398 OA
HETATM   12  H           1     -35.210  -1.211 -14.729  0.00  0.00     0.209 HD
ENDBRANCH  10  11
ENDBRANCH   5  10
ENDBRANCH   1   5
BRANCH   2  13
HETATM   13  C           1     -35.700  -0.605 -11.881  0.00  0.00     0.209 C 
BRANCH  13  14
HETATM   14  C           1     -36.704  -1.019 -10.814  0.00  0.00     0.200 C 
BRANCH  14  15
HETATM   15  O           1     -36.591  -2.396 -10.574  0.00  0.00    -0.398 OA
HETATM   16  H           1     -37.016  -2.834 -11.291  0.00  0.00     0.209 HD
ENDBRANCH  14  15
ENDBRANCH  13  14
BRANCH  13  17
HETATM   17  C           1     -34.565  -1.600 -11.919  0.00  0.00     0.198 C 
HETATM   18  O           1     -33.726  -1.624 -10.993  0.00  0.00    -0.646 OA
HETATM   19  O           1     -34.465  -2.397 -12.875  0.00  0.00    -0.646 OA
ENDBRANCH  13  17
ENDBRANCH   2  13
TORSDOF 8
ENDMDL
MODEL 4
REMARK VINA RESULT:      -4.7     12.786     14.531
REMARK  8 active torsions:
REMARK  status: ('A' for Active; 'I' for Inactive)
REMARK    1  A    between atoms: N_1  and  C_6 
REMARK    2  A    between atoms: C_5  and  C_6 
REMARK    3  A    between atoms: C_5  and  O_12 
REMARK    4  A    between atoms: C_6  and  C_8 
REMARK    5  A    between atoms: O_7  and  C_14 
REMARK       I    between atoms: C_8  and  N_11 
REMARK    6  A    between atoms: N_11  and  C_17 
REMARK    7  A    between atoms: C_14  and  C_17 
REMARK    8  A    between atoms: C_17  and  C_18 
ROOT
HETATM    1  C           1     -22.137  -4.302  -7.724  0.00  0.00     0.251 C 
HETATM    2  N           1     -22.188  -4.169  -9.085  0.00  0.00    -0.343 N 
HETATM    3  H           1     -21.367  -3.868  -9.596  0.00  0.00     0.163 HD
HETATM    4  O           1     -23.117  -4.662  -7.115  0.00  0.00    -0.271 OA
ENDROOT
BRANCH   1   5
HETATM    5  C           1     -20.857  -4.000  -6.984  0.00  0.00     0.297 C 
BRANCH   5   6
HETATM    6  N           1     -20.868  -4.704  -5.660  0.00  0.00    -0.064 N 
HETATM    7  H           1     -21.843  -5.002  -5.432  0.00  0.00     0.275 HD
HETATM    8  H           1     -20.249  -5.545  -5.707  0.00  0.00     0.275 HD
HETATM    9  H           1     -20.519  -4.055  -4.918  0.00  0.00     0.275 HD
ENDBRANCH   5   6
BRANCH   5  10
HETATM   10  C           1     -19.670  -4.484  -7.806  0.00  0.00     0.206 C 
BRANCH  10  11
HETATM   11  O           1     -19.814  -5.852  -8.075  0.00  0.00    -0.398 OA
HETATM   12  H           1     -20.307  -5.924  -8.875  0.00  0.00     0.209 HD
ENDBRANCH  10  11
ENDBRANCH   5  10
ENDBRANCH   1   5
BRANCH   2  13
HETATM   13  C           1     -23.418  -4.458  -9.797  0.00  0.00     0.209 C 
BRANCH  13  14
HETATM   14  C           1     -24.403  -3.315  -9.596  0.00  0.00     0.200 C 
BRANCH  14  15
HETATM   15  O           1     -25.125  -3.104 -10.779  0.00  0.00    -0.398 OA
HETATM   16  H           1     -25.348  -3.954 -11.118  0.00  0.00     0.209 HD
ENDBRANCH  14  15
ENDBRANCH  13  14
BRANCH  13  17
HETATM   17  C           1     -23.121  -4.615 -11.269  0.00  0.00     0.198 C 
HETATM   18  O           1     -23.763  -5.443 -11.950  0.00  0.00    -0.646 OA
HETATM   19  O           1     -22.233  -3.919 -11.805  0.00  0.00    -0.646 OA
ENDBRANCH  13  17
ENDBRANCH   2  13
TORSDOF 8
ENDMDL
MODEL 5
REMARK VINA RESULT:      -4.4     13.296     15.615
REMARK  8 active torsions:
REMARK  status: ('A' for Active; 'I' for Inactive)
REMARK    1  A    between atoms: N_1  and  C_6 
REMARK    2  A    between atoms: C_5  and  C_6 
REMARK    3  A    between atoms: C_5  and  O_12 
REMARK    4  A    between atoms: C_6  and  C_8 
REMARK    5  A    between atoms: O_7  and  C_14 
REMARK       I    between atoms: C_8  and  N_11 
REMARK    6  A    between atoms: N_11  and  C_17 
REMARK    7  A    between atoms: C_14  and  C_17 
REMARK    8  A    between atoms: C_17  and  C_18 
ROOT
HETATM    1  C           1     -23.190  -4.275  -8.974  0.00  0.00     0.251 C 
HETATM    2  N           1     -22.240  -5.195  -8.622  0.00  0.00    -0.343 N 
HETATM    3  H           1     -22.274  -6.130  -9.007  0.00  0.00     0.163 HD
HETATM    4  O           1     -23.149  -3.158  -8.516  0.00  0.00    -0.271 OA
ENDROOT
BRANCH   1   5
HETATM    5  C           1     -24.289  -4.655  -9.936  0.00  0.00     0.297 C 
BRANCH   5   6
HETATM    6  N           1     -25.359  -3.604  -9.913  0.00  0.00    -0.064 N 
HETATM    7  H           1     -24.927  -2.671  -9.725  0.00  0.00     0.275 HD
HETATM    8  H           1     -25.846  -3.582 -10.837  0.00  0.00     0.275 HD
HETATM    9  H           1     -26.049  -3.826  -9.160  0.00  0.00     0.275 HD
ENDBRANCH   5   6
BRANCH   5  10
HETATM   10  C           1     -23.716  -4.764 -11.343  0.00  0.00     0.206 C 
BRANCH  10  11
HETATM   11  O           1     -22.477  -4.110 -11.396  0.00  0.00    -0.398 OA
HETATM   12  H           1     -22.479  -3.462 -10.712  0.00  0.00     0.209 HD
ENDBRANCH  10  11
ENDBRANCH   5  10
ENDBRANCH   1   5
BRANCH   2  13
HETATM   13  C           1     -21.184  -4.831  -7.698  0.00  0.00     0.209 C 
BRANCH  13  14
HETATM   14  C           1     -20.957  -5.968  -6.712  0.00  0.00     0.200 C 
BRANCH  14  15
HETATM   15  O           1     -19.807  -6.683  -7.077  0.00  0.00    -0.398 OA
HETATM   16  H           1     -19.780  -7.452  -6.534  0.00  0.00     0.209 HD
ENDBRANCH  14  15
ENDBRANCH  13  14
BRANCH  13  17
HETATM   17  C           1     -19.912  -4.569  -8.467  0.00  0.00     0.198 C 
HETATM   18  O           1     -18.898  -4.147  -7.871  0.00  0.00    -0.646 OA
HETATM   19  O           1     -19.873  -4.774  -9.699  0.00  0.00    -0.646 OA
ENDBRANCH  13  17
ENDBRANCH   2  13
TORSDOF 8
ENDMDL
MODEL 6
REMARK VINA RESULT:      -4.4     13.403     15.185
REMARK  8 active torsions:
REMARK  status: ('A' for Active; 'I' for Inactive)
REMARK    1  A    between atoms: N_1  and  C_6 
REMARK    2  A    between atoms: C_5  and  C_6 
REMARK    3  A    between atoms: C_5  and  O_12 
REMARK    4  A    between atoms: C_6  and  C_8 
REMARK    5  A    between atoms: O_7  and  C_14 
REMARK       I    between atoms: C_8  and  N_11 
REMARK    6  A    between atoms: N_11  and  C_17 
REMARK    7  A    between atoms: C_14  and  C_17 
REMARK    8  A    between atoms: C_17  and  C_18 
ROOT
HETATM    1  C           1     -21.585  -4.215  -7.758  0.00  0.00     0.251 C 
HETATM    2  N           1     -21.858  -4.709  -9.006  0.00  0.00    -0.343 N 
HETATM    3  H           1     -21.758  -5.699  -9.191  0.00  0.00     0.163 HD
HETATM    4  O           1     -21.707  -3.033  -7.537  0.00  0.00    -0.271 OA
ENDROOT
BRANCH   1   5
HETATM    5  C           1     -21.134  -5.146  -6.660  0.00  0.00     0.297 C 
BRANCH   5   6
HETATM    6  N           1     -21.231  -6.565  -7.138  0.00  0.00    -0.064 N 
HETATM    7  H           1     -21.586  -7.169  -6.363  0.00  0.00     0.275 HD
HETATM    8  H           1     -21.889  -6.615  -7.948  0.00  0.00     0.275 HD
HETATM    9  H           1     -20.285  -6.898  -7.434  0.00  0.00     0.275 HD
ENDBRANCH   5   6
BRANCH   5  10
HETATM   10  C           1     -19.690  -4.833  -6.291  0.00  0.00     0.206 C 
BRANCH  10  11
HETATM   11  O           1     -18.994  -4.416  -7.435  0.00  0.00    -0.398 OA
HETATM   12  H           1     -19.458  -3.673  -7.782  0.00  0.00     0.209 HD
ENDBRANCH  10  11
ENDBRANCH   5  10
ENDBRANCH   1   5
BRANCH   2  13
HETATM   13  C           1     -22.292  -3.814 -10.061  0.00  0.00     0.209 C 
BRANCH  13  14
HETATM   14  C           1     -21.603  -4.195 -11.365  0.00  0.00     0.200 C 
BRANCH  14  15
HETATM   15  O           1     -20.482  -3.374 -11.559  0.00  0.00    -0.398 OA
HETATM   16  H           1     -20.123  -3.198 -10.707  0.00  0.00     0.209 HD
ENDBRANCH  14  15
ENDBRANCH  13  14
BRANCH  13  17
HETATM   17  C           1     -23.788  -3.927 -10.231  0.00  0.00     0.198 C 
HETATM   18  O           1     -24.374  -4.984  -9.913  0.00  0.00    -0.646 OA
HETATM   19  O           1     -24.439  -2.964 -10.688  0.00  0.00    -0.646 OA
ENDBRANCH  13  17
ENDBRANCH   2  13
TORSDOF 8
ENDMDL
MODEL 7
REMARK VINA RESULT:      -4.4     13.961     15.771
REMARK  8 active torsions:
REMARK  status: ('A' for Active; 'I' for Inactive)
REMARK    1  A    between atoms: N_1  and  C_6 
REMARK    2  A    between atoms: C_5  and  C_6 
REMARK    3  A    between atoms: C_5  and  O_12 
REMARK    4  A    between atoms: C_6  and  C_8 
REMARK    5  A    between atoms: O_7  and  C_14 
REMARK       I    between atoms: C_8  and  N_11 
REMARK    6  A    between atoms: N_11  and  C_17 
REMARK    7  A    between atoms: C_14  and  C_17 
REMARK    8  A    between atoms: C_17  and  C_18 
ROOT
HETATM    1  C           1     -22.231  -4.172  -9.912  0.00  0.00     0.251 C 
HETATM    2  N           1     -21.464  -4.707  -8.912  0.00  0.00    -0.343 N 
HETATM    3  H           1     -20.809  -5.451  -9.120  0.00  0.00     0.163 HD
HETATM    4  O           1     -23.012  -3.284  -9.664  0.00  0.00    -0.271 OA
ENDROOT
BRANCH   1   5
HETATM    5  C           1     -22.101  -4.691 -11.323  0.00  0.00     0.297 C 
BRANCH   5   6
HETATM    6  N           1     -23.467  -4.951 -11.887  0.00  0.00    -0.064 N 
HETATM    7  H           1     -23.770  -5.918 -11.632  0.00  0.00     0.275 HD
HETATM    8  H           1     -24.143  -4.259 -11.493  0.00  0.00     0.275 HD
HETATM    9  H           1     -23.437  -4.858 -12.927  0.00  0.00     0.275 HD
ENDBRANCH   5   6
BRANCH   5  10
HETATM   10  C           1     -21.387  -3.656 -12.180  0.00  0.00     0.206 C 
BRANCH  10  11
HETATM   11  O           1     -20.490  -2.927 -11.386  0.00  0.00    -0.398 OA
HETATM   12  H           1     -20.320  -2.118 -11.837  0.00  0.00     0.209 HD
ENDBRANCH  10  11
ENDBRANCH   5  10
ENDBRANCH   1   5
BRANCH   2  13
HETATM   13  C           1     -21.588  -4.209  -7.556  0.00  0.00     0.209 C 
BRANCH  13  14
HETATM   14  C           1     -22.667  -4.995  -6.823  0.00  0.00     0.200 C 
BRANCH  14  15
HETATM   15  O           1     -23.884  -4.303  -6.899  0.00  0.00    -0.398 OA
HETATM   16  H           1     -24.153  -4.126  -6.014  0.00  0.00     0.209 HD
ENDBRANCH  14  15
ENDBRANCH  13  14
BRANCH  13  17
HETATM   17  C           1     -20.270  -4.372  -6.839  0.00  0.00     0.198 C 
HETATM   18  O           1     -20.247  -4.485  -5.594  0.00  0.00    -0.646 OA
HETATM   19  O           1     -19.203  -4.394  -7.488  0.00  0.00    -0.646 OA
ENDBRANCH  13  17
ENDBRANCH   2  13
TORSDOF 8
ENDMDL
MODEL 8
REMARK VINA RESULT:      -4.3     13.576     15.992
REMARK  8 active torsions:
REMARK  status: ('A' for Active; 'I' for Inactive)
REMARK    1  A    between atoms: N_1  and  C_6 
REMARK    2  A    between atoms: C_5  and  C_6 
REMARK    3  A    between atoms: C_5  and  O_12 
REMARK    4  A    between atoms: C_6  and  C_8 
REMARK    5  A    between atoms: O_7  and  C_14 
REMARK       I    between atoms: C_8  and  N_11 
REMARK    6  A    between atoms: N_11  and  C_17 
REMARK    7  A    between atoms: C_14  and  C_17 
REMARK    8  A    between atoms: C_17  and  C_18 
ROOT
HETATM    1  C           1     -21.805  -4.462  -9.501  0.00  0.00     0.251 C 
HETATM    2  N           1     -21.995  -4.824  -8.194  0.00  0.00    -0.343 N 
HETATM    3  H           1     -22.881  -4.641  -7.742  0.00  0.00     0.163 HD
HETATM    4  O           1     -20.747  -4.682 -10.041  0.00  0.00    -0.271 OA
ENDROOT
BRANCH   1   5
HETATM    5  C           1     -22.918  -3.788 -10.266  0.00  0.00     0.297 C 
BRANCH   5   6
HETATM    6  N           1     -23.329  -4.657 -11.417  0.00  0.00    -0.064 N 
HETATM    7  H           1     -23.180  -5.661 -11.166  0.00  0.00     0.275 HD
HETATM    8  H           1     -24.340  -4.499 -11.629  0.00  0.00     0.275 HD
HETATM    9  H           1     -22.754  -4.419 -12.256  0.00  0.00     0.275 HD
ENDBRANCH   5   6
BRANCH   5  10
HETATM   10  C           1     -24.109  -3.572  -9.343  0.00  0.00     0.206 C 
BRANCH  10  11
HETATM   11  O           1     -25.048  -4.594  -9.541  0.00  0.00    -0.398 OA
HETATM   12  H           1     -25.383  -4.827  -8.692  0.00  0.00     0.209 HD
ENDBRANCH  10  11
ENDBRANCH   5  10
ENDBRANCH   1   5
BRANCH   2  13
HETATM   13  C           1     -20.926  -5.472  -7.458  0.00  0.00     0.209 C 
BRANCH  13  14
HETATM   14  C           1     -19.996  -4.415  -6.879  0.00  0.00     0.200 C 
BRANCH  14  15
HETATM   15  O           1     -19.918  -4.570  -5.488  0.00  0.00    -0.398 OA
HETATM   16  H           1     -20.791  -4.749  -5.184  0.00  0.00     0.209 HD
ENDBRANCH  14  15
ENDBRANCH  13  14
BRANCH  13  17
HETATM   17  C           1     -21.515  -6.294  -6.337  0.00  0.00     0.198 C 
HETATM   18  O           1     -22.412  -5.810  -5.613  0.00  0.00    -0.646 OA
HETATM   19  O           1     -21.107  -7.456  -6.133  0.00  0.00    -0.646 OA
ENDBRANCH  13  17
ENDBRANCH   2  13
TORSDOF 8
ENDMDL
MODEL 9
REMARK VINA RESULT:      -4.3      2.544      5.287
REMARK  8 active torsions:
REMARK  status: ('A' for Active; 'I' for Inactive)
REMARK    1  A    between atoms: N_1  and  C_6 
REMARK    2  A    between atoms: C_5  and  C_6 
REMARK    3  A    between atoms: C_5  and  O_12 
REMARK    4  A    between atoms: C_6  and  C_8 
REMARK    5  A    between atoms: O_7  and  C_14 
REMARK       I    between atoms: C_8  and  N_11 
REMARK    6  A    between atoms: N_11  and  C_17 
REMARK    7  A    between atoms: C_14  and  C_17 
REMARK    8  A    between atoms: C_17  and  C_18 
ROOT
HETATM    1  C           1     -36.143   0.164 -13.339  0.00  0.00     0.251 C 
HETATM    2  N           1     -37.007  -0.116 -12.314  0.00  0.00    -0.343 N 
HETATM    3  H           1     -37.974  -0.340 -12.514  0.00  0.00     0.163 HD
HETATM    4  O           1     -34.989   0.431 -13.100  0.00  0.00    -0.271 OA
ENDROOT
BRANCH   1   5
HETATM    5  C           1     -36.632   0.138 -14.766  0.00  0.00     0.297 C 
BRANCH   5   6
HETATM    6  N           1     -38.074   0.545 -14.807  0.00  0.00    -0.064 N 
HETATM    7  H           1     -38.652  -0.256 -15.150  0.00  0.00     0.275 HD
HETATM    8  H           1     -38.388   0.815 -13.848  0.00  0.00     0.275 HD
HETATM    9  H           1     -38.188   1.358 -15.454  0.00  0.00     0.275 HD
ENDBRANCH   5   6
BRANCH   5  10
HETATM   10  C           1     -35.807   1.107 -15.602  0.00  0.00     0.206 C 
BRANCH  10  11
HETATM   11  O           1     -36.658   2.038 -16.215  0.00  0.00    -0.398 OA
HETATM   12  H           1     -36.188   2.854 -16.254  0.00  0.00     0.209 HD
ENDBRANCH  10  11
ENDBRANCH   5  10
ENDBRANCH   1   5
BRANCH   2  13
HETATM   13  C           1     -36.539  -0.090 -10.942  0.00  0.00     0.209 C 
BRANCH  13  14
HETATM   14  C           1     -37.708   0.197 -10.011  0.00  0.00     0.200 C 
BRANCH  14  15
HETATM   15  O           1     -37.484  -0.421  -8.773  0.00  0.00    -0.398 OA
HETATM   16  H           1     -37.784   0.178  -8.111  0.00  0.00     0.209 HD
ENDBRANCH  14  15
ENDBRANCH  13  14
BRANCH  13  17
HETATM   17  C           1     -35.934  -1.429 -10.594  0.00  0.00     0.198 C 
HETATM   18  O           1     -36.582  -2.478 -10.799  0.00  0.00    -0.646 OA
HETATM   19  O           1     -34.788  -1.488 -10.101  0.00  0.00    -0.646 OA
ENDBRANCH  13  17
ENDBRANCH   2  13
TORSDOF 8
ENDMDL
