MODEL 1
REMARK VINA RESULT:      -6.1      0.000      0.000
REMARK  8 active torsions:
REMARK  status: ('A' for Active; 'I' for Inactive)
REMARK    1  A    between atoms: N_3  and  C_19 
REMARK    2  A    between atoms: C_4  and  C_11 
REMARK    3  A    between atoms: C_4  and  S_17 
REMARK    4  A    between atoms: C_5  and  C_6 
REMARK    5  A    between atoms: C_6  and  C_15 
REMARK    6  A    between atoms: C_6  and  N_18 
REMARK    7  A    between atoms: C_11  and  C_19 
REMARK       I    between atoms: C_14  and  N_18 
REMARK    8  A    between atoms: C_14  and  C_19 
ROOT
HETATM    1  H           1     -22.243  -5.731  -9.464  0.00  0.00     0.163 HD
HETATM    2  O           1     -21.676  -3.593  -7.239  0.00  0.00    -0.271 OA
HETATM    3  C           1     -21.714  -4.683  -7.761  0.00  0.00     0.249 C 
HETATM    4  N           1     -22.210  -4.819  -9.029  0.00  0.00    -0.344 N 
ENDROOT
BRANCH   3   5
HETATM    5  C           1     -21.214  -5.894  -7.012  0.00  0.00     0.275 C 
BRANCH   5   6
HETATM    6  N           1     -19.807  -6.197  -7.434  0.00  0.00    -0.066 N 
HETATM    7  H           1     -19.725  -7.211  -7.670  0.00  0.00     0.275 HD
HETATM    8  H           1     -19.151  -5.966  -6.654  0.00  0.00     0.275 HD
HETATM    9  H           1     -19.564  -5.624  -8.274  0.00  0.00     0.275 HD
ENDBRANCH   5   6
BRANCH   5  10
HETATM   10  C           1     -21.246  -5.616  -5.515  0.00  0.00     0.053 C 
BRANCH  10  11
HETATM   11  C           1     -22.149  -6.632  -4.829  0.00  0.00     0.076 C 
BRANCH  11  12
HETATM   12  S           1     -21.294  -7.329  -3.388  0.00  0.00    -0.173 SA
HETATM   13  C           1     -22.058  -6.237  -2.156  0.00  0.00     0.089 C 
ENDBRANCH  11  12
ENDBRANCH  10  11
ENDBRANCH   5  10
ENDBRANCH   3   5
BRANCH   4  14
HETATM   14  C           1     -22.691  -3.655  -9.747  0.00  0.00     0.189 C 
BRANCH  14  15
HETATM   15  C           1     -24.157  -3.825 -10.057  0.00  0.00     0.197 C 
HETATM   16  O           1     -24.746  -4.881  -9.737  0.00  0.00    -0.646 OA
HETATM   17  O           1     -24.785  -2.911 -10.633  0.00  0.00    -0.646 OA
ENDBRANCH  14  15
BRANCH  14  18
HETATM   18  C           1     -21.911  -3.504 -11.048  0.00  0.00     0.010 C 
HETATM   19  C           1     -20.419  -3.488 -10.745  0.00  0.00     0.012 C 
HETATM   20  C           1     -22.231  -4.675 -11.969  0.00  0.00     0.012 C 
ENDBRANCH  14  18
ENDBRANCH   4  14
TORSDOF 8
ENDMDL
MODEL 2
REMARK VINA RESULT:      -5.6      1.438      1.616
REMARK  8 active torsions:
REMARK  status: ('A' for Active; 'I' for Inactive)
REMARK    1  A    between atoms: N_3  and  C_19 
REMARK    2  A    between atoms: C_4  and  C_11 
REMARK    3  A    between atoms: C_4  and  S_17 
REMARK    4  A    between atoms: C_5  and  C_6 
REMARK    5  A    between atoms: C_6  and  C_15 
REMARK    6  A    between atoms: C_6  and  N_18 
REMARK    7  A    between atoms: C_11  and  C_19 
REMARK       I    between atoms: C_14  and  N_18 
REMARK    8  A    between atoms: C_14  and  C_19 
ROOT
HETATM    1  H           1     -22.397  -5.795  -8.534  0.00  0.00     0.163 HD
HETATM    2  O           1     -21.509  -3.171  -7.061  0.00  0.00    -0.271 OA
HETATM    3  C           1     -21.757  -4.345  -7.204  0.00  0.00     0.249 C 
HETATM    4  N           1     -22.189  -4.812  -8.415  0.00  0.00    -0.344 N 
ENDROOT
BRANCH   3   5
HETATM    5  C           1     -21.591  -5.297  -6.044  0.00  0.00     0.275 C 
BRANCH   5   6
HETATM    6  N           1     -22.941  -5.732  -5.557  0.00  0.00    -0.066 N 
HETATM    7  H           1     -23.679  -5.157  -6.020  0.00  0.00     0.275 HD
HETATM    8  H           1     -22.997  -5.603  -4.522  0.00  0.00     0.275 HD
HETATM    9  H           1     -23.086  -6.741  -5.791  0.00  0.00     0.275 HD
ENDBRANCH   5   6
BRANCH   5  10
HETATM   10  C           1     -20.797  -6.515  -6.495  0.00  0.00     0.053 C 
BRANCH  10  11
HETATM   11  C           1     -21.281  -7.746  -5.740  0.00  0.00     0.076 C 
BRANCH  11  12
HETATM   12  S           1     -19.980  -8.313  -4.608  0.00  0.00    -0.173 SA
HETATM   13  C           1     -20.854  -7.893  -3.074  0.00  0.00     0.089 C 
ENDBRANCH  11  12
ENDBRANCH  10  11
ENDBRANCH   5  10
ENDBRANCH   3   5
BRANCH   4  14
HETATM   14  C           1     -22.349  -3.898  -9.529  0.00  0.00     0.189 C 
BRANCH  14  15
HETATM   15  C           1     -23.763  -3.982 -10.050  0.00  0.00     0.197 C 
HETATM   16  O           1     -24.362  -5.080 -10.058  0.00  0.00    -0.646 OA
HETATM   17  O           1     -24.336  -2.955 -10.472  0.00  0.00    -0.646 OA
ENDBRANCH  14  15
BRANCH  14  18
HETATM   18  C           1     -21.376  -4.275 -10.639  0.00  0.00     0.010 C 
HETATM   19  C           1     -21.119  -3.061 -11.522  0.00  0.00     0.012 C 
HETATM   20  C           1     -20.063  -4.744 -10.025  0.00  0.00     0.012 C 
ENDBRANCH  14  18
ENDBRANCH   4  14
TORSDOF 8
ENDMDL
MODEL 3
REMARK VINA RESULT:      -5.2      3.446      6.690
REMARK  8 active torsions:
REMARK  status: ('A' for Active; 'I' for Inactive)
REMARK    1  A    between atoms: N_3  and  C_19 
REMARK    2  A    between atoms: C_4  and  C_11 
REMARK    3  A    between atoms: C_4  and  S_17 
REMARK    4  A    between atoms: C_5  and  C_6 
REMARK    5  A    between atoms: C_6  and  C_15 
REMARK    6  A    between atoms: C_6  and  N_18 
REMARK    7  A    between atoms: C_11  and  C_19 
REMARK       I    between atoms: C_14  and  N_18 
REMARK    8  A    between atoms: C_14  and  C_19 
ROOT
HETATM    1  H           1     -22.460  -6.770  -5.709  0.00  0.00     0.163 HD
HETATM    2  O           1     -19.878  -5.026  -6.076  0.00  0.00    -0.271 OA
HETATM    3  C           1     -21.024  -5.377  -6.235  0.00  0.00     0.249 C 
HETATM    4  N           1     -21.502  -6.476  -5.575  0.00  0.00    -0.344 N 
ENDROOT
BRANCH   3   5
HETATM    5  C           1     -21.927  -4.602  -7.164  0.00  0.00     0.275 C 
BRANCH   5   6
HETATM    6  N           1     -21.606  -3.140  -7.068  0.00  0.00    -0.066 N 
HETATM    7  H           1     -21.608  -2.849  -6.065  0.00  0.00     0.275 HD
HETATM    8  H           1     -22.324  -2.590  -7.592  0.00  0.00     0.275 HD
HETATM    9  H           1     -20.662  -2.964  -7.481  0.00  0.00     0.275 HD
ENDBRANCH   5   6
BRANCH   5  10
HETATM   10  C           1     -21.714  -5.076  -8.595  0.00  0.00     0.053 C 
BRANCH  10  11
HETATM   11  C           1     -22.115  -3.970  -9.562  0.00  0.00     0.076 C 
BRANCH  11  12
HETATM   12  S           1     -23.551  -4.506 -10.533  0.00  0.00    -0.173 SA
HETATM   13  C           1     -24.748  -3.386  -9.752  0.00  0.00     0.089 C 
ENDBRANCH  11  12
ENDBRANCH  10  11
ENDBRANCH   5  10
ENDBRANCH   3   5
BRANCH   4  14
HETATM   14  C           1     -20.633  -7.220  -4.683  0.00  0.00     0.189 C 
BRANCH  14  15
HETATM   15  C           1     -20.222  -8.512  -5.344  0.00  0.00     0.197 C 
HETATM   16  O           1     -21.086  -9.365  -5.643  0.00  0.00    -0.646 OA
HETATM   17  O           1     -19.017  -8.730  -5.595  0.00  0.00    -0.646 OA
ENDBRANCH  14  15
BRANCH  14  18
HETATM   18  C           1     -21.377  -7.526  -3.389  0.00  0.00     0.010 C 
HETATM   19  C           1     -20.443  -8.245  -2.425  0.00  0.00     0.012 C 
HETATM   20  C           1     -21.853  -6.224  -2.758  0.00  0.00     0.012 C 
ENDBRANCH  14  18
ENDBRANCH   4  14
TORSDOF 8
ENDMDL
MODEL 4
REMARK VINA RESULT:      -5.1      3.503      7.029
REMARK  8 active torsions:
REMARK  status: ('A' for Active; 'I' for Inactive)
REMARK    1  A    between atoms: N_3  and  C_19 
REMARK    2  A    between atoms: C_4  and  C_11 
REMARK    3  A    between atoms: C_4  and  S_17 
REMARK    4  A    between atoms: C_5  and  C_6 
REMARK    5  A    between atoms: C_6  and  C_15 
REMARK    6  A    between atoms: C_6  and  N_18 
REMARK    7  A    between atoms: C_11  and  C_19 
REMARK       I    between atoms: C_14  and  N_18 
REMARK    8  A    between atoms: C_14  and  C_19 
ROOT
HETATM    1  H           1     -19.781  -6.958  -4.358  0.00  0.00     0.163 HD
HETATM    2  O           1     -22.572  -5.952  -5.376  0.00  0.00    -0.271 OA
HETATM    3  C           1     -21.368  -6.046  -5.320  0.00  0.00     0.249 C 
HETATM    4  N           1     -20.788  -6.881  -4.405  0.00  0.00    -0.344 N 
ENDROOT
BRANCH   3   5
HETATM    5  C           1     -20.505  -5.241  -6.262  0.00  0.00     0.275 C 
BRANCH   5   6
HETATM    6  N           1     -19.827  -6.164  -7.230  0.00  0.00    -0.066 N 
HETATM    7  H           1     -19.187  -6.804  -6.709  0.00  0.00     0.275 HD
HETATM    8  H           1     -19.276  -5.604  -7.919  0.00  0.00     0.275 HD
HETATM    9  H           1     -20.547  -6.728  -7.736  0.00  0.00     0.275 HD
ENDBRANCH   5   6
BRANCH   5  10
HETATM   10  C           1     -21.373  -4.251  -7.027  0.00  0.00     0.053 C 
BRANCH  10  11
HETATM   11  C           1     -21.434  -4.657  -8.494  0.00  0.00     0.076 C 
BRANCH  11  12
HETATM   12  S           1     -22.847  -3.842  -9.290  0.00  0.00    -0.173 SA
HETATM   13  C           1     -21.998  -3.444 -10.843  0.00  0.00     0.089 C 
ENDBRANCH  11  12
ENDBRANCH  10  11
ENDBRANCH   5  10
ENDBRANCH   3   5
BRANCH   4  14
HETATM   14  C           1     -21.618  -7.653  -3.501  0.00  0.00     0.189 C 
BRANCH  14  15
HETATM   15  C           1     -21.691  -6.956  -2.165  0.00  0.00     0.197 C 
HETATM   16  O           1     -21.157  -7.473  -1.159  0.00  0.00    -0.646 OA
HETATM   17  O           1     -22.285  -5.861  -2.063  0.00  0.00    -0.646 OA
ENDBRANCH  14  15
BRANCH  14  18
HETATM   18  C           1     -21.013  -9.040  -3.317  0.00  0.00     0.010 C 
HETATM   19  C           1     -21.913 -10.077  -3.976  0.00  0.00     0.012 C 
HETATM   20  C           1     -19.634  -9.080  -3.962  0.00  0.00     0.012 C 
ENDBRANCH  14  18
ENDBRANCH   4  14
TORSDOF 8
ENDMDL
MODEL 5
REMARK VINA RESULT:      -5.0      5.082      8.463
REMARK  8 active torsions:
REMARK  status: ('A' for Active; 'I' for Inactive)
REMARK    1  A    between atoms: N_3  and  C_19 
REMARK    2  A    between atoms: C_4  and  C_11 
REMARK    3  A    between atoms: C_4  and  S_17 
REMARK    4  A    between atoms: C_5  and  C_6 
REMARK    5  A    between atoms: C_6  and  C_15 
REMARK    6  A    between atoms: C_6  and  N_18 
REMARK    7  A    between atoms: C_11  and  C_19 
REMARK       I    between atoms: C_14  and  N_18 
REMARK    8  A    between atoms: C_14  and  C_19 
ROOT
HETATM    1  H           1     -22.423  -8.179  -3.024  0.00  0.00     0.163 HD
HETATM    2  O           1     -19.414  -9.064  -2.965  0.00  0.00    -0.271 OA
HETATM    3  C           1     -20.432  -8.587  -3.409  0.00  0.00     0.249 C 
HETATM    4  N           1     -21.571  -8.578  -2.652  0.00  0.00    -0.344 N 
ENDROOT
BRANCH   3   5
HETATM    5  C           1     -20.445  -8.001  -4.800  0.00  0.00     0.275 C 
BRANCH   5   6
HETATM    6  N           1     -20.897  -9.046  -5.778  0.00  0.00    -0.066 N 
HETATM    7  H           1     -21.553  -9.706  -5.302  0.00  0.00     0.275 HD
HETATM    8  H           1     -20.068  -9.574  -6.133  0.00  0.00     0.275 HD
HETATM    9  H           1     -21.386  -8.585  -6.578  0.00  0.00     0.275 HD
ENDBRANCH   5   6
BRANCH   5  10
HETATM   10  C           1     -21.401  -6.817  -4.845  0.00  0.00     0.053 C 
BRANCH  10  11
HETATM   11  C           1     -20.655  -5.580  -5.327  0.00  0.00     0.076 C 
BRANCH  11  12
HETATM   12  S           1     -20.713  -5.504  -7.139  0.00  0.00    -0.173 SA
HETATM   13  C           1     -21.377  -3.819  -7.247  0.00  0.00     0.089 C 
ENDBRANCH  11  12
ENDBRANCH  10  11
ENDBRANCH   5  10
ENDBRANCH   3   5
BRANCH   4  14
HETATM   14  C           1     -21.558  -9.140  -1.316  0.00  0.00     0.189 C 
BRANCH  14  15
HETATM   15  C           1     -22.201 -10.505  -1.338  0.00  0.00     0.197 C 
HETATM   16  O           1     -21.505 -11.521  -1.556  0.00  0.00    -0.646 OA
HETATM   17  O           1     -23.429 -10.621  -1.139  0.00  0.00    -0.646 OA
ENDBRANCH  14  15
BRANCH  14  18
HETATM   18  C           1     -22.334  -8.229  -0.374  0.00  0.00     0.010 C 
HETATM   19  C           1     -21.655  -8.213   0.990  0.00  0.00     0.012 C 
HETATM   20  C           1     -22.362  -6.817  -0.944  0.00  0.00     0.012 C 
ENDBRANCH  14  18
ENDBRANCH   4  14
TORSDOF 8
ENDMDL
MODEL 6
REMARK VINA RESULT:      -4.8      5.210      9.072
REMARK  8 active torsions:
REMARK  status: ('A' for Active; 'I' for Inactive)
REMARK    1  A    between atoms: N_3  and  C_19 
REMARK    2  A    between atoms: C_4  and  C_11 
REMARK    3  A    between atoms: C_4  and  S_17 
REMARK    4  A    between atoms: C_5  and  C_6 
REMARK    5  A    between atoms: C_6  and  C_15 
REMARK    6  A    between atoms: C_6  and  N_18 
REMARK    7  A    between atoms: C_11  and  C_19 
REMARK       I    between atoms: C_14  and  N_18 
REMARK    8  A    between atoms: C_14  and  C_19 
ROOT
HETATM    1  H           1     -21.035  -9.864  -2.358  0.00  0.00     0.163 HD
HETATM    2  O           1     -22.139  -6.972  -1.850  0.00  0.00    -0.271 OA
HETATM    3  C           1     -21.530  -7.856  -2.406  0.00  0.00     0.249 C 
HETATM    4  N           1     -21.545  -9.125  -1.894  0.00  0.00    -0.344 N 
ENDROOT
BRANCH   3   5
HETATM    5  C           1     -20.752  -7.559  -3.665  0.00  0.00     0.275 C 
BRANCH   5   6
HETATM    6  N           1     -19.680  -8.592  -3.845  0.00  0.00    -0.066 N 
HETATM    7  H           1     -18.880  -8.377  -3.209  0.00  0.00     0.275 HD
HETATM    8  H           1     -19.349  -8.583  -4.836  0.00  0.00     0.275 HD
HETATM    9  H           1     -20.065  -9.537  -3.615  0.00  0.00     0.275 HD
ENDBRANCH   5   6
BRANCH   5  10
HETATM   10  C           1     -21.692  -7.589  -4.862  0.00  0.00     0.053 C 
BRANCH  10  11
HETATM   11  C           1     -22.026  -6.164  -5.283  0.00  0.00     0.076 C 
BRANCH  11  12
HETATM   12  S           1     -20.490  -5.253  -5.607  0.00  0.00    -0.173 SA
HETATM   13  C           1     -21.158  -4.201  -6.927  0.00  0.00     0.089 C 
ENDBRANCH  11  12
ENDBRANCH  10  11
ENDBRANCH   5  10
ENDBRANCH   3   5
BRANCH   4  14
HETATM   14  C           1     -22.292  -9.409  -0.684  0.00  0.00     0.189 C 
BRANCH  14  15
HETATM   15  C           1     -21.372  -9.320   0.508  0.00  0.00     0.197 C 
HETATM   16  O           1     -21.352  -8.283   1.207  0.00  0.00    -0.646 OA
HETATM   17  O           1     -20.629 -10.282   0.798  0.00  0.00    -0.646 OA
ENDBRANCH  14  15
BRANCH  14  18
HETATM   18  C           1     -22.879 -10.812  -0.768  0.00  0.00     0.010 C 
HETATM   19  C           1     -24.195 -10.858  -0.003  0.00  0.00     0.012 C 
HETATM   20  C           1     -23.128 -11.171  -2.228  0.00  0.00     0.012 C 
ENDBRANCH  14  18
ENDBRANCH   4  14
TORSDOF 8
ENDMDL
MODEL 7
REMARK VINA RESULT:      -4.7      6.801      9.070
REMARK  8 active torsions:
REMARK  status: ('A' for Active; 'I' for Inactive)
REMARK    1  A    between atoms: N_3  and  C_19 
REMARK    2  A    between atoms: C_4  and  C_11 
REMARK    3  A    between atoms: C_4  and  S_17 
REMARK    4  A    between atoms: C_5  and  C_6 
REMARK    5  A    between atoms: C_6  and  C_15 
REMARK    6  A    between atoms: C_6  and  N_18 
REMARK    7  A    between atoms: C_11  and  C_19 
REMARK       I    between atoms: C_14  and  N_18 
REMARK    8  A    between atoms: C_14  and  C_19 
ROOT
HETATM    1  H           1     -21.883  -8.764  -2.307  0.00  0.00     0.163 HD
HETATM    2  O           1     -19.548 -10.593  -1.284  0.00  0.00    -0.271 OA
HETATM    3  C           1     -20.131  -9.825  -2.013  0.00  0.00     0.249 C 
HETATM    4  N           1     -21.395  -9.406  -1.697  0.00  0.00    -0.344 N 
ENDROOT
BRANCH   3   5
HETATM    5  C           1     -19.464  -9.328  -3.272  0.00  0.00     0.275 C 
BRANCH   5   6
HETATM    6  N           1     -18.564 -10.398  -3.816  0.00  0.00    -0.066 N 
HETATM    7  H           1     -18.805 -10.580  -4.816  0.00  0.00     0.275 HD
HETATM    8  H           1     -18.689 -11.275  -3.262  0.00  0.00     0.275 HD
HETATM    9  H           1     -17.570 -10.082  -3.749  0.00  0.00     0.275 HD
ENDBRANCH   5   6
BRANCH   5  10
HETATM   10  C           1     -20.526  -8.984  -4.308  0.00  0.00     0.053 C 
BRANCH  10  11
HETATM   11  C           1     -20.012  -7.871  -5.212  0.00  0.00     0.076 C 
BRANCH  11  12
HETATM   12  S           1     -21.306  -6.617  -5.425  0.00  0.00    -0.173 SA
HETATM   13  C           1     -21.393  -6.123  -3.681  0.00  0.00     0.089 C 
ENDBRANCH  11  12
ENDBRANCH  10  11
ENDBRANCH   5  10
ENDBRANCH   3   5
BRANCH   4  14
HETATM   14  C           1     -22.035  -9.884  -0.486  0.00  0.00     0.189 C 
BRANCH  14  15
HETATM   15  C           1     -23.321 -10.587  -0.842  0.00  0.00     0.197 C 
HETATM   16  O           1     -24.235 -10.687   0.006  0.00  0.00    -0.646 OA
HETATM   17  O           1     -23.474 -11.071  -1.984  0.00  0.00    -0.646 OA
ENDBRANCH  14  15
BRANCH  14  18
HETATM   18  C           1     -22.338  -8.703   0.427  0.00  0.00     0.010 C 
HETATM   19  C           1     -21.180  -8.500   1.395  0.00  0.00     0.012 C 
HETATM   20  C           1     -22.523  -7.446  -0.413  0.00  0.00     0.012 C 
ENDBRANCH  14  18
ENDBRANCH   4  14
TORSDOF 8
ENDMDL
MODEL 8
REMARK VINA RESULT:      -4.6      7.292      9.187
REMARK  8 active torsions:
REMARK  status: ('A' for Active; 'I' for Inactive)
REMARK    1  A    between atoms: N_3  and  C_19 
REMARK    2  A    between atoms: C_4  and  C_11 
REMARK    3  A    between atoms: C_4  and  S_17 
REMARK    4  A    between atoms: C_5  and  C_6 
REMARK    5  A    between atoms: C_6  and  C_15 
REMARK    6  A    between atoms: C_6  and  N_18 
REMARK    7  A    between atoms: C_11  and  C_19 
REMARK       I    between atoms: C_14  and  N_18 
REMARK    8  A    between atoms: C_14  and  C_19 
ROOT
HETATM    1  H           1     -20.235  -9.485  -1.129  0.00  0.00     0.163 HD
HETATM    2  O           1     -21.947  -9.144  -3.736  0.00  0.00    -0.271 OA
HETATM    3  C           1     -20.963  -9.333  -3.059  0.00  0.00     0.249 C 
HETATM    4  N           1     -21.059  -9.327  -1.694  0.00  0.00    -0.344 N 
ENDROOT
BRANCH   3   5
HETATM    5  C           1     -19.629  -9.576  -3.722  0.00  0.00     0.275 C 
BRANCH   5   6
HETATM    6  N           1     -19.411  -8.552  -4.796  0.00  0.00    -0.066 N 
HETATM    7  H           1     -20.280  -7.986  -4.918  0.00  0.00     0.275 HD
HETATM    8  H           1     -19.179  -9.033  -5.694  0.00  0.00     0.275 HD
HETATM    9  H           1     -18.622  -7.924  -4.523  0.00  0.00     0.275 HD
ENDBRANCH   5   6
BRANCH   5  10
HETATM   10  C           1     -18.519  -9.468  -2.685  0.00  0.00     0.053 C 
BRANCH  10  11
HETATM   11  C           1     -17.166  -9.593  -3.374  0.00  0.00     0.076 C 
BRANCH  11  12
HETATM   12  S           1     -16.046 -10.572  -2.334  0.00  0.00    -0.173 SA
HETATM   13  C           1     -17.338 -11.529  -1.493  0.00  0.00     0.089 C 
ENDBRANCH  11  12
ENDBRANCH  10  11
ENDBRANCH   5  10
ENDBRANCH   3   5
BRANCH   4  14
HETATM   14  C           1     -22.341  -9.094  -1.059  0.00  0.00     0.189 C 
BRANCH  14  15
HETATM   15  C           1     -22.315  -7.764  -0.348  0.00  0.00     0.197 C 
HETATM   16  O           1     -22.640  -6.722  -0.958  0.00  0.00    -0.646 OA
HETATM   17  O           1     -21.969  -7.703   0.852  0.00  0.00    -0.646 OA
ENDBRANCH  14  15
BRANCH  14  18
HETATM   18  C           1     -22.617 -10.203  -0.051  0.00  0.00     0.010 C 
HETATM   19  C           1     -23.817 -11.020  -0.512  0.00  0.00     0.012 C 
HETATM   20  C           1     -21.396 -11.108   0.053  0.00  0.00     0.012 C 
ENDBRANCH  14  18
ENDBRANCH   4  14
TORSDOF 8
ENDMDL
MODEL 9
REMARK VINA RESULT:      -4.6      6.173      7.875
REMARK  8 active torsions:
REMARK  status: ('A' for Active; 'I' for Inactive)
REMARK    1  A    between atoms: N_3  and  C_19 
REMARK    2  A    between atoms: C_4  and  C_11 
REMARK    3  A    between atoms: C_4  and  S_17 
REMARK    4  A    between atoms: C_5  and  C_6 
REMARK    5  A    between atoms: C_6  and  C_15 
REMARK    6  A    between atoms: C_6  and  N_18 
REMARK    7  A    between atoms: C_11  and  C_19 
REMARK       I    between atoms: C_14  and  N_18 
REMARK    8  A    between atoms: C_14  and  C_19 
ROOT
HETATM    1  H           1     -22.896  -8.708  -2.397  0.00  0.00     0.163 HD
HETATM    2  O           1     -20.609  -8.146  -0.324  0.00  0.00    -0.271 OA
HETATM    3  C           1     -21.670  -8.550  -0.738  0.00  0.00     0.249 C 
HETATM    4  N           1     -22.008  -8.370  -2.052  0.00  0.00    -0.344 N 
ENDROOT
BRANCH   3   5
HETATM    5  C           1     -22.624  -9.255   0.196  0.00  0.00     0.275 C 
BRANCH   5   6
HETATM    6  N           1     -23.704  -8.304   0.618  0.00  0.00    -0.066 N 
HETATM    7  H           1     -24.329  -8.773   1.312  0.00  0.00     0.275 HD
HETATM    8  H           1     -24.264  -8.019  -0.217  0.00  0.00     0.275 HD
HETATM    9  H           1     -23.273  -7.458   1.054  0.00  0.00     0.275 HD
ENDBRANCH   5   6
BRANCH   5  10
HETATM   10  C           1     -23.247 -10.447  -0.517  0.00  0.00     0.053 C 
BRANCH  10  11
HETATM   11  C           1     -22.642 -11.736   0.023  0.00  0.00     0.076 C 
BRANCH  11  12
HETATM   12  S           1     -21.342 -12.315  -1.104  0.00  0.00    -0.173 SA
HETATM   13  C           1     -19.942 -11.859  -0.044  0.00  0.00     0.089 C 
ENDBRANCH  11  12
ENDBRANCH  10  11
ENDBRANCH   5  10
ENDBRANCH   3   5
BRANCH   4  14
HETATM   14  C           1     -21.091  -7.693  -2.949  0.00  0.00     0.189 C 
BRANCH  14  15
HETATM   15  C           1     -21.594  -6.297  -3.221  0.00  0.00     0.197 C 
HETATM   16  O           1     -21.522  -5.820  -4.375  0.00  0.00    -0.646 OA
HETATM   17  O           1     -22.083  -5.616  -2.294  0.00  0.00    -0.646 OA
ENDBRANCH  14  15
BRANCH  14  18
HETATM   18  C           1     -21.001  -8.465  -4.259  0.00  0.00     0.010 C 
HETATM   19  C           1     -19.539  -8.738  -4.587  0.00  0.00     0.012 C 
HETATM   20  C           1     -21.746  -9.786  -4.121  0.00  0.00     0.012 C 
ENDBRANCH  14  18
ENDBRANCH   4  14
TORSDOF 8
ENDMDL
