MODEL 1
REMARK VINA RESULT:      -6.6      0.000      0.000
REMARK  9 active torsions:
REMARK  status: ('A' for Active; 'I' for Inactive)
REMARK    1  A    between atoms: C_3  and  C_21 
REMARK    2  A    between atoms: C_3  and  C_4 
REMARK    3  A    between atoms: C_3  and  N_19 
REMARK    4  A    between atoms: C_5  and  C_22 
REMARK    5  A    between atoms: C_5  and  C_24 
REMARK    6  A    between atoms: C_7  and  C_8 
REMARK    7  A    between atoms: C_7  and  C_21 
REMARK       I    between atoms: C_8  and  N_9 
REMARK       I    between atoms: C_10  and  N_19 
REMARK    8  A    between atoms: C_10  and  C_22 
REMARK    9  A    between atoms: N_13  and  C_22 
ROOT
HETATM    1  H           1     -27.712  -7.034 -20.024  0.00  0.00     0.163 HD
HETATM    2  C           1     -26.394  -6.401 -18.560  0.00  0.00     0.249 C 
HETATM    3  O           1     -26.292  -6.015 -17.419  0.00  0.00    -0.271 OA
HETATM    4  N           1     -27.626  -6.711 -19.069  0.00  0.00    -0.345 N 
ENDROOT
BRANCH   4   5
HETATM    5  C           1     -28.808  -6.577 -18.241  0.00  0.00     0.186 C 
BRANCH   5   6
HETATM    6  C           1     -29.419  -5.197 -18.450  0.00  0.00     0.045 C 
BRANCH   6   7
HETATM    7  C           1     -29.785  -4.592 -17.101  0.00  0.00     0.105 C 
BRANCH   7   8
HETATM    8  C           1     -31.247  -4.217 -17.098  0.00  0.00     0.215 C 
HETATM    9  O           1     -31.593  -3.131 -17.498  0.00  0.00    -0.274 OA
HETATM   10  N           1     -32.181  -5.108 -16.642  0.00  0.00    -0.370 N 
HETATM   11  H           1     -31.891  -6.018 -16.307  0.00  0.00     0.159 HD
HETATM   12  H           1     -33.162  -4.857 -16.640  0.00  0.00     0.159 HD
ENDBRANCH   7   8
ENDBRANCH   6   7
ENDBRANCH   5   6
BRANCH   5  13
HETATM   13  C           1     -29.813  -7.635 -18.623  0.00  0.00     0.196 C 
HETATM   14  O           1     -30.985  -7.568 -18.193  0.00  0.00    -0.646 OA
HETATM   15  O           1     -29.475  -8.578 -19.371  0.00  0.00    -0.646 OA
ENDBRANCH   5  13
ENDBRANCH   4   5
BRANCH   2  16
HETATM   16  C           1     -25.164  -6.540 -19.422  0.00  0.00     0.284 C 
BRANCH  16  17
HETATM   17  C           1     -25.566  -6.510 -20.890  0.00  0.00     0.155 C 
BRANCH  17  18
HETATM   18  C           1     -25.490  -7.905 -21.462  0.00  0.00     0.175 C 
HETATM   19  O           1     -26.468  -8.678 -21.354  0.00  0.00    -0.648 OA
HETATM   20  O           1     -24.453  -8.287 -22.044  0.00  0.00    -0.648 OA
ENDBRANCH  17  18
ENDBRANCH  16  17
BRANCH  16  21
HETATM   21  N           1     -24.483  -7.842 -19.116  0.00  0.00    -0.066 N 
HETATM   22  H           1     -23.800  -7.703 -18.338  0.00  0.00     0.275 HD
HETATM   23  H           1     -25.198  -8.548 -18.831  0.00  0.00     0.275 HD
HETATM   24  H           1     -23.980  -8.179 -19.968  0.00  0.00     0.275 HD
ENDBRANCH  16  21
ENDBRANCH   2  16
TORSDOF 9
ENDMDL
MODEL 2
REMARK VINA RESULT:      -6.3     10.141     11.398
REMARK  9 active torsions:
REMARK  status: ('A' for Active; 'I' for Inactive)
REMARK    1  A    between atoms: C_3  and  C_21 
REMARK    2  A    between atoms: C_3  and  C_4 
REMARK    3  A    between atoms: C_3  and  N_19 
REMARK    4  A    between atoms: C_5  and  C_22 
REMARK    5  A    between atoms: C_5  and  C_24 
REMARK    6  A    between atoms: C_7  and  C_8 
REMARK    7  A    between atoms: C_7  and  C_21 
REMARK       I    between atoms: C_8  and  N_9 
REMARK       I    between atoms: C_10  and  N_19 
REMARK    8  A    between atoms: C_10  and  C_22 
REMARK    9  A    between atoms: N_13  and  C_22 
ROOT
HETATM    1  H           1     -34.892  -2.126 -13.571  0.00  0.00     0.163 HD
HETATM    2  C           1     -35.547  -0.490 -12.486  0.00  0.00     0.249 C 
HETATM    3  O           1     -35.782  -0.066 -11.380  0.00  0.00    -0.271 OA
HETATM    4  N           1     -35.089  -1.770 -12.645  0.00  0.00    -0.345 N 
ENDROOT
BRANCH   4   5
HETATM    5  C           1     -34.887  -2.617 -11.485  0.00  0.00     0.186 C 
BRANCH   5   6
HETATM    6  C           1     -35.102  -4.073 -11.878  0.00  0.00     0.045 C 
BRANCH   6   7
HETATM    7  C           1     -35.306  -4.913 -10.624  0.00  0.00     0.105 C 
BRANCH   7   8
HETATM    8  C           1     -34.416  -6.131 -10.684  0.00  0.00     0.215 C 
HETATM    9  O           1     -34.772  -7.166 -10.174  0.00  0.00    -0.274 OA
HETATM   10  N           1     -33.204  -6.060 -11.316  0.00  0.00    -0.370 N 
HETATM   11  H           1     -32.905  -5.193 -11.743  0.00  0.00     0.159 HD
HETATM   12  H           1     -32.606  -6.877 -11.357  0.00  0.00     0.159 HD
ENDBRANCH   7   8
ENDBRANCH   6   7
ENDBRANCH   5   6
BRANCH   5  13
HETATM   13  C           1     -33.481  -2.437 -10.971  0.00  0.00     0.196 C 
HETATM   14  O           1     -32.550  -3.123 -11.445  0.00  0.00    -0.646 OA
HETATM   15  O           1     -33.245  -1.601 -10.071  0.00  0.00    -0.646 OA
ENDBRANCH   5  13
ENDBRANCH   4   5
BRANCH   2  16
HETATM   16  C           1     -35.758   0.391 -13.693  0.00  0.00     0.284 C 
BRANCH  16  17
HETATM   17  C           1     -36.773  -0.257 -14.624  0.00  0.00     0.155 C 
BRANCH  17  18
HETATM   18  C           1     -36.069  -0.777 -15.854  0.00  0.00     0.175 C 
HETATM   19  O           1     -35.294  -1.755 -15.763  0.00  0.00    -0.648 OA
HETATM   20  O           1     -36.260  -0.233 -16.962  0.00  0.00    -0.648 OA
ENDBRANCH  17  18
ENDBRANCH  16  17
BRANCH  16  21
HETATM   21  N           1     -34.456   0.568 -14.417  0.00  0.00    -0.066 N 
HETATM   22  H           1     -34.103   1.539 -14.267  0.00  0.00     0.275 HD
HETATM   23  H           1     -33.759  -0.118 -14.049  0.00  0.00     0.275 HD
HETATM   24  H           1     -34.602   0.403 -15.439  0.00  0.00     0.275 HD
ENDBRANCH  16  21
ENDBRANCH   2  16
TORSDOF 9
ENDMDL
MODEL 3
REMARK VINA RESULT:      -6.2      1.837      2.161
REMARK  9 active torsions:
REMARK  status: ('A' for Active; 'I' for Inactive)
REMARK    1  A    between atoms: C_3  and  C_21 
REMARK    2  A    between atoms: C_3  and  C_4 
REMARK    3  A    between atoms: C_3  and  N_19 
REMARK    4  A    between atoms: C_5  and  C_22 
REMARK    5  A    between atoms: C_5  and  C_24 
REMARK    6  A    between atoms: C_7  and  C_8 
REMARK    7  A    between atoms: C_7  and  C_21 
REMARK       I    between atoms: C_8  and  N_9 
REMARK       I    between atoms: C_10  and  N_19 
REMARK    8  A    between atoms: C_10  and  C_22 
REMARK    9  A    between atoms: N_13  and  C_22 
ROOT
HETATM    1  H           1     -28.325  -6.072 -18.907  0.00  0.00     0.163 HD
HETATM    2  C           1     -26.292  -6.442 -19.018  0.00  0.00     0.249 C 
HETATM    3  O           1     -25.267  -6.537 -18.385  0.00  0.00    -0.271 OA
HETATM    4  N           1     -27.467  -6.151 -18.377  0.00  0.00    -0.345 N 
ENDROOT
BRANCH   4   5
HETATM    5  C           1     -27.481  -5.958 -16.940  0.00  0.00     0.186 C 
BRANCH   5   6
HETATM    6  C           1     -28.208  -4.661 -16.611  0.00  0.00     0.045 C 
BRANCH   6   7
HETATM    7  C           1     -29.048  -4.231 -17.807  0.00  0.00     0.105 C 
BRANCH   7   8
HETATM    8  C           1     -30.491  -4.095 -17.385  0.00  0.00     0.215 C 
HETATM    9  O           1     -30.998  -4.939 -16.686  0.00  0.00    -0.274 OA
HETATM   10  N           1     -31.224  -3.014 -17.795  0.00  0.00    -0.370 N 
HETATM   11  H           1     -30.799  -2.307 -18.381  0.00  0.00     0.159 HD
HETATM   12  H           1     -32.192  -2.922 -17.513  0.00  0.00     0.159 HD
ENDBRANCH   7   8
ENDBRANCH   6   7
ENDBRANCH   5   6
BRANCH   5  13
HETATM   13  C           1     -28.193  -7.115 -16.285  0.00  0.00     0.196 C 
HETATM   14  O           1     -27.832  -7.513 -15.156  0.00  0.00    -0.646 OA
HETATM   15  O           1     -29.146  -7.676 -16.869  0.00  0.00    -0.646 OA
ENDBRANCH   5  13
ENDBRANCH   4   5
BRANCH   2  16
HETATM   16  C           1     -26.277  -6.642 -20.513  0.00  0.00     0.284 C 
BRANCH  16  17
HETATM   17  C           1     -25.870  -8.074 -20.830  0.00  0.00     0.155 C 
BRANCH  17  18
HETATM   18  C           1     -24.513  -8.079 -21.489  0.00  0.00     0.175 C 
HETATM   19  O           1     -24.423  -8.041 -22.736  0.00  0.00    -0.648 OA
HETATM   20  O           1     -23.478  -8.117 -20.790  0.00  0.00    -0.648 OA
ENDBRANCH  17  18
ENDBRANCH  16  17
BRANCH  16  21
HETATM   21  N           1     -25.295  -5.694 -21.135  0.00  0.00    -0.066 N 
HETATM   22  H           1     -25.100  -5.988 -22.118  0.00  0.00     0.275 HD
HETATM   23  H           1     -25.694  -4.729 -21.132  0.00  0.00     0.275 HD
HETATM   24  H           1     -24.406  -5.705 -20.585  0.00  0.00     0.275 HD
ENDBRANCH  16  21
ENDBRANCH   2  16
TORSDOF 9
ENDMDL
MODEL 4
REMARK VINA RESULT:      -6.2      9.810     11.259
REMARK  9 active torsions:
REMARK  status: ('A' for Active; 'I' for Inactive)
REMARK    1  A    between atoms: C_3  and  C_21 
REMARK    2  A    between atoms: C_3  and  C_4 
REMARK    3  A    between atoms: C_3  and  N_19 
REMARK    4  A    between atoms: C_5  and  C_22 
REMARK    5  A    between atoms: C_5  and  C_24 
REMARK    6  A    between atoms: C_7  and  C_8 
REMARK    7  A    between atoms: C_7  and  C_21 
REMARK       I    between atoms: C_8  and  N_9 
REMARK       I    between atoms: C_10  and  N_19 
REMARK    8  A    between atoms: C_10  and  C_22 
REMARK    9  A    between atoms: N_13  and  C_22 
ROOT
HETATM    1  H           1     -35.635  -2.003 -13.730  0.00  0.00     0.163 HD
HETATM    2  C           1     -34.376  -2.432 -12.145  0.00  0.00     0.249 C 
HETATM    3  O           1     -33.766  -1.968 -11.212  0.00  0.00    -0.271 OA
HETATM    4  N           1     -35.124  -1.614 -12.949  0.00  0.00    -0.345 N 
ENDROOT
BRANCH   4   5
HETATM    5  C           1     -35.182  -0.191 -12.681  0.00  0.00     0.186 C 
BRANCH   5   6
HETATM    6  C           1     -35.322   0.567 -13.996  0.00  0.00     0.045 C 
BRANCH   6   7
HETATM    7  C           1     -35.546  -0.424 -15.131  0.00  0.00     0.105 C 
BRANCH   7   8
HETATM    8  C           1     -36.871  -0.138 -15.794  0.00  0.00     0.215 C 
HETATM    9  O           1     -37.142  -0.655 -16.852  0.00  0.00    -0.274 OA
HETATM   10  N           1     -37.766   0.708 -15.197  0.00  0.00    -0.370 N 
HETATM   11  H           1     -37.539   1.141 -14.311  0.00  0.00     0.159 HD
HETATM   12  H           1     -38.655   0.900 -15.641  0.00  0.00     0.159 HD
ENDBRANCH   7   8
ENDBRANCH   6   7
ENDBRANCH   5   6
BRANCH   5  13
HETATM   13  C           1     -36.370   0.106 -11.800  0.00  0.00     0.196 C 
HETATM   14  O           1     -36.195   0.481 -10.620  0.00  0.00    -0.646 OA
HETATM   15  O           1     -37.530  -0.022 -12.249  0.00  0.00    -0.646 OA
ENDBRANCH   5  13
ENDBRANCH   4   5
BRANCH   2  16
HETATM   16  C           1     -34.315  -3.914 -12.424  0.00  0.00     0.284 C 
BRANCH  16  17
HETATM   17  C           1     -33.718  -4.633 -11.222  0.00  0.00     0.155 C 
BRANCH  17  18
HETATM   18  C           1     -34.418  -5.956 -11.028  0.00  0.00     0.175 C 
HETATM   19  O           1     -34.406  -6.511  -9.907  0.00  0.00    -0.648 OA
HETATM   20  O           1     -35.011  -6.497 -11.986  0.00  0.00    -0.648 OA
ENDBRANCH  17  18
ENDBRANCH  16  17
BRANCH  16  21
HETATM   21  N           1     -33.458  -4.160 -13.630  0.00  0.00    -0.066 N 
HETATM   22  H           1     -32.495  -3.795 -13.454  0.00  0.00     0.275 HD
HETATM   23  H           1     -33.412  -5.186 -13.819  0.00  0.00     0.275 HD
HETATM   24  H           1     -33.871  -3.671 -14.456  0.00  0.00     0.275 HD
ENDBRANCH  16  21
ENDBRANCH   2  16
TORSDOF 9
ENDMDL
MODEL 5
REMARK VINA RESULT:      -5.9      8.799     11.223
REMARK  9 active torsions:
REMARK  status: ('A' for Active; 'I' for Inactive)
REMARK    1  A    between atoms: C_3  and  C_21 
REMARK    2  A    between atoms: C_3  and  C_4 
REMARK    3  A    between atoms: C_3  and  N_19 
REMARK    4  A    between atoms: C_5  and  C_22 
REMARK    5  A    between atoms: C_5  and  C_24 
REMARK    6  A    between atoms: C_7  and  C_8 
REMARK    7  A    between atoms: C_7  and  C_21 
REMARK       I    between atoms: C_8  and  N_9 
REMARK       I    between atoms: C_10  and  N_19 
REMARK    8  A    between atoms: C_10  and  C_22 
REMARK    9  A    between atoms: N_13  and  C_22 
ROOT
HETATM    1  H           1     -35.754  -2.107 -14.065  0.00  0.00     0.163 HD
HETATM    2  C           1     -35.010  -0.739 -12.701  0.00  0.00     0.249 C 
HETATM    3  O           1     -34.272  -0.584 -11.758  0.00  0.00    -0.271 OA
HETATM    4  N           1     -35.136  -1.976 -13.274  0.00  0.00    -0.345 N 
ENDROOT
BRANCH   4   5
HETATM    5  C           1     -34.385  -3.099 -12.748  0.00  0.00     0.186 C 
BRANCH   5   6
HETATM    6  C           1     -35.094  -3.649 -11.516  0.00  0.00     0.045 C 
BRANCH   6   7
HETATM    7  C           1     -34.060  -4.170 -10.525  0.00  0.00     0.105 C 
BRANCH   7   8
HETATM    8  C           1     -34.072  -5.679 -10.535  0.00  0.00     0.215 C 
HETATM    9  O           1     -34.916  -6.281  -9.915  0.00  0.00    -0.274 OA
HETATM   10  N           1     -33.125  -6.366 -11.246  0.00  0.00    -0.370 N 
HETATM   11  H           1     -32.417  -5.862 -11.765  0.00  0.00     0.159 HD
HETATM   12  H           1     -33.132  -7.378 -11.252  0.00  0.00     0.159 HD
ENDBRANCH   7   8
ENDBRANCH   6   7
ENDBRANCH   5   6
BRANCH   5  13
HETATM   13  C           1     -34.293  -4.178 -13.798  0.00  0.00     0.196 C 
HETATM   14  O           1     -34.984  -5.215 -13.691  0.00  0.00    -0.646 OA
HETATM   15  O           1     -33.527  -4.037 -14.776  0.00  0.00    -0.646 OA
ENDBRANCH   5  13
ENDBRANCH   4   5
BRANCH   2  16
HETATM   16  C           1     -35.791   0.430 -13.248  0.00  0.00     0.284 C 
BRANCH  16  17
HETATM   17  C           1     -37.118  -0.064 -13.809  0.00  0.00     0.155 C 
BRANCH  17  18
HETATM   18  C           1     -37.057  -0.070 -15.317  0.00  0.00     0.175 C 
HETATM   19  O           1     -36.509  -1.021 -15.916  0.00  0.00    -0.648 OA
HETATM   20  O           1     -37.556   0.874 -15.967  0.00  0.00    -0.648 OA
ENDBRANCH  17  18
ENDBRANCH  16  17
BRANCH  16  21
HETATM   21  N           1     -35.003   1.092 -14.339  0.00  0.00    -0.066 N 
HETATM   22  H           1     -35.658   1.517 -15.034  0.00  0.00     0.275 HD
HETATM   23  H           1     -34.400   1.839 -13.927  0.00  0.00     0.275 HD
HETATM   24  H           1     -34.403   0.381 -14.815  0.00  0.00     0.275 HD
ENDBRANCH  16  21
ENDBRANCH   2  16
TORSDOF 9
ENDMDL
MODEL 6
REMARK VINA RESULT:      -5.8     10.320     12.240
REMARK  9 active torsions:
REMARK  status: ('A' for Active; 'I' for Inactive)
REMARK    1  A    between atoms: C_3  and  C_21 
REMARK    2  A    between atoms: C_3  and  C_4 
REMARK    3  A    between atoms: C_3  and  N_19 
REMARK    4  A    between atoms: C_5  and  C_22 
REMARK    5  A    between atoms: C_5  and  C_24 
REMARK    6  A    between atoms: C_7  and  C_8 
REMARK    7  A    between atoms: C_7  and  C_21 
REMARK       I    between atoms: C_8  and  N_9 
REMARK       I    between atoms: C_10  and  N_19 
REMARK    8  A    between atoms: C_10  and  C_22 
REMARK    9  A    between atoms: N_13  and  C_22 
ROOT
HETATM    1  H           1     -34.418  -0.071 -11.780  0.00  0.00     0.163 HD
HETATM    2  C           1     -36.132  -0.403 -12.892  0.00  0.00     0.249 C 
HETATM    3  O           1     -37.181  -1.000 -12.939  0.00  0.00    -0.271 OA
HETATM    4  N           1     -35.297  -0.571 -11.820  0.00  0.00    -0.345 N 
ENDROOT
BRANCH   4   5
HETATM    5  C           1     -35.672  -1.465 -10.742  0.00  0.00     0.186 C 
BRANCH   5   6
HETATM    6  C           1     -34.419  -2.093 -10.145  0.00  0.00     0.045 C 
BRANCH   6   7
HETATM    7  C           1     -33.554  -2.662 -11.263  0.00  0.00     0.105 C 
BRANCH   7   8
HETATM    8  C           1     -33.868  -4.127 -11.446  0.00  0.00     0.215 C 
HETATM    9  O           1     -33.828  -4.876 -10.500  0.00  0.00    -0.274 OA
HETATM   10  N           1     -34.198  -4.606 -12.686  0.00  0.00    -0.370 N 
HETATM   11  H           1     -34.232  -3.978 -13.479  0.00  0.00     0.159 HD
HETATM   12  H           1     -34.409  -5.588 -12.809  0.00  0.00     0.159 HD
ENDBRANCH   7   8
ENDBRANCH   6   7
ENDBRANCH   5   6
BRANCH   5  13
HETATM   13  C           1     -36.401  -0.687  -9.675  0.00  0.00     0.196 C 
HETATM   14  O           1     -37.642  -0.546  -9.743  0.00  0.00    -0.646 OA
HETATM   15  O           1     -35.767  -0.184  -8.722  0.00  0.00    -0.646 OA
ENDBRANCH   5  13
ENDBRANCH   4   5
BRANCH   2  16
HETATM   16  C           1     -35.742   0.526 -14.014  0.00  0.00     0.284 C 
BRANCH  16  17
HETATM   17  C           1     -35.513  -0.280 -15.285  0.00  0.00     0.155 C 
BRANCH  17  18
HETATM   18  C           1     -36.694  -0.109 -16.209  0.00  0.00     0.175 C 
HETATM   19  O           1     -37.508   0.822 -16.018  0.00  0.00    -0.648 OA
HETATM   20  O           1     -36.859  -0.895 -17.167  0.00  0.00    -0.648 OA
ENDBRANCH  17  18
ENDBRANCH  16  17
BRANCH  16  21
HETATM   21  N           1     -34.480   1.251 -13.648  0.00  0.00    -0.066 N 
HETATM   22  H           1     -33.677   0.582 -13.664  0.00  0.00     0.275 HD
HETATM   23  H           1     -34.309   2.019 -14.335  0.00  0.00     0.275 HD
HETATM   24  H           1     -34.578   1.656 -12.689  0.00  0.00     0.275 HD
ENDBRANCH  16  21
ENDBRANCH   2  16
TORSDOF 9
ENDMDL
MODEL 7
REMARK VINA RESULT:      -5.8      1.798      2.144
REMARK  9 active torsions:
REMARK  status: ('A' for Active; 'I' for Inactive)
REMARK    1  A    between atoms: C_3  and  C_21 
REMARK    2  A    between atoms: C_3  and  C_4 
REMARK    3  A    between atoms: C_3  and  N_19 
REMARK    4  A    between atoms: C_5  and  C_22 
REMARK    5  A    between atoms: C_5  and  C_24 
REMARK    6  A    between atoms: C_7  and  C_8 
REMARK    7  A    between atoms: C_7  and  C_21 
REMARK       I    between atoms: C_8  and  N_9 
REMARK       I    between atoms: C_10  and  N_19 
REMARK    8  A    between atoms: C_10  and  C_22 
REMARK    9  A    between atoms: N_13  and  C_22 
ROOT
HETATM    1  H           1     -28.292  -7.163 -20.417  0.00  0.00     0.163 HD
HETATM    2  C           1     -26.517  -6.701 -19.458  0.00  0.00     0.249 C 
HETATM    3  O           1     -26.017  -6.349 -18.416  0.00  0.00    -0.271 OA
HETATM    4  N           1     -27.873  -6.868 -19.544  0.00  0.00    -0.345 N 
ENDROOT
BRANCH   4   5
HETATM    5  C           1     -28.709  -6.621 -18.386  0.00  0.00     0.186 C 
BRANCH   5   6
HETATM    6  C           1     -29.272  -5.207 -18.460  0.00  0.00     0.045 C 
BRANCH   6   7
HETATM    7  C           1     -28.643  -4.352 -17.367  0.00  0.00     0.105 C 
BRANCH   7   8
HETATM    8  C           1     -28.705  -5.090 -16.052  0.00  0.00     0.215 C 
HETATM    9  O           1     -27.686  -5.380 -15.473  0.00  0.00    -0.274 OA
HETATM   10  N           1     -29.918  -5.429 -15.516  0.00  0.00    -0.370 N 
HETATM   11  H           1     -30.772  -5.186 -16.001  0.00  0.00     0.159 HD
HETATM   12  H           1     -29.961  -5.925 -14.634  0.00  0.00     0.159 HD
ENDBRANCH   7   8
ENDBRANCH   6   7
ENDBRANCH   5   6
BRANCH   5  13
HETATM   13  C           1     -29.844  -7.614 -18.365  0.00  0.00     0.196 C 
HETATM   14  O           1     -29.832  -8.593 -19.143  0.00  0.00    -0.646 OA
HETATM   15  O           1     -30.797  -7.460 -17.571  0.00  0.00    -0.646 OA
ENDBRANCH   5  13
ENDBRANCH   4   5
BRANCH   2  16
HETATM   16  C           1     -25.646  -6.957 -20.664  0.00  0.00     0.284 C 
BRANCH  16  17
HETATM   17  C           1     -24.378  -7.680 -20.231  0.00  0.00     0.155 C 
BRANCH  17  18
HETATM   18  C           1     -23.660  -8.209 -21.448  0.00  0.00     0.175 C 
HETATM   19  O           1     -24.220  -8.181 -22.566  0.00  0.00    -0.648 OA
HETATM   20  O           1     -22.505  -8.675 -21.340  0.00  0.00    -0.648 OA
ENDBRANCH  17  18
ENDBRANCH  16  17
BRANCH  16  21
HETATM   21  N           1     -25.283  -5.650 -21.304  0.00  0.00    -0.066 N 
HETATM   22  H           1     -24.624  -5.129 -20.683  0.00  0.00     0.275 HD
HETATM   23  H           1     -24.825  -5.831 -22.226  0.00  0.00     0.275 HD
HETATM   24  H           1     -26.149  -5.082 -21.450  0.00  0.00     0.275 HD
ENDBRANCH  16  21
ENDBRANCH   2  16
TORSDOF 9
ENDMDL
MODEL 8
REMARK VINA RESULT:      -5.6     13.535     15.016
REMARK  9 active torsions:
REMARK  status: ('A' for Active; 'I' for Inactive)
REMARK    1  A    between atoms: C_3  and  C_21 
REMARK    2  A    between atoms: C_3  and  C_4 
REMARK    3  A    between atoms: C_3  and  N_19 
REMARK    4  A    between atoms: C_5  and  C_22 
REMARK    5  A    between atoms: C_5  and  C_24 
REMARK    6  A    between atoms: C_7  and  C_8 
REMARK    7  A    between atoms: C_7  and  C_21 
REMARK       I    between atoms: C_8  and  N_9 
REMARK       I    between atoms: C_10  and  N_19 
REMARK    8  A    between atoms: C_10  and  C_22 
REMARK    9  A    between atoms: N_13  and  C_22 
ROOT
HETATM    1  H           1     -22.542  -6.774  -6.661  0.00  0.00     0.163 HD
HETATM    2  C           1     -21.741  -4.902  -7.029  0.00  0.00     0.249 C 
HETATM    3  O           1     -20.980  -4.054  -6.628  0.00  0.00    -0.271 OA
HETATM    4  N           1     -21.904  -6.064  -6.325  0.00  0.00    -0.345 N 
ENDROOT
BRANCH   4   5
HETATM    5  C           1     -21.163  -6.278  -5.097  0.00  0.00     0.186 C 
BRANCH   5   6
HETATM    6  C           1     -22.127  -6.685  -3.989  0.00  0.00     0.045 C 
BRANCH   6   7
HETATM    7  C           1     -21.692  -6.045  -2.677  0.00  0.00     0.105 C 
BRANCH   7   8
HETATM    8  C           1     -21.874  -7.033  -1.550  0.00  0.00     0.215 C 
HETATM    9  O           1     -22.722  -6.843  -0.711  0.00  0.00    -0.274 OA
HETATM   10  N           1     -21.078  -8.144  -1.481  0.00  0.00    -0.370 N 
HETATM   11  H           1     -20.368  -8.303  -2.184  0.00  0.00     0.159 HD
HETATM   12  H           1     -21.200  -8.807  -0.725  0.00  0.00     0.159 HD
ENDBRANCH   7   8
ENDBRANCH   6   7
ENDBRANCH   5   6
BRANCH   5  13
HETATM   13  C           1     -20.147  -7.372  -5.307  0.00  0.00     0.196 C 
HETATM   14  O           1     -19.530  -7.452  -6.392  0.00  0.00    -0.646 OA
HETATM   15  O           1     -19.920  -8.200  -4.398  0.00  0.00    -0.646 OA
ENDBRANCH   5  13
ENDBRANCH   4   5
BRANCH   2  16
HETATM   16  C           1     -22.513  -4.679  -8.307  0.00  0.00     0.284 C 
BRANCH  16  17
HETATM   17  C           1     -21.662  -3.874  -9.280  0.00  0.00     0.155 C 
BRANCH  17  18
HETATM   18  C           1     -22.324  -3.862 -10.636  0.00  0.00     0.175 C 
HETATM   19  O           1     -23.371  -3.201 -10.815  0.00  0.00    -0.648 OA
HETATM   20  O           1     -21.826  -4.510 -11.582  0.00  0.00    -0.648 OA
ENDBRANCH  17  18
ENDBRANCH  16  17
BRANCH  16  21
HETATM   21  N           1     -23.774  -3.926  -8.004  0.00  0.00    -0.066 N 
HETATM   22  H           1     -24.599  -4.492  -8.308  0.00  0.00     0.275 HD
HETATM   23  H           1     -23.833  -3.747  -6.977  0.00  0.00     0.275 HD
HETATM   24  H           1     -23.767  -3.016  -8.518  0.00  0.00     0.275 HD
ENDBRANCH  16  21
ENDBRANCH   2  16
TORSDOF 9
ENDMDL
MODEL 9
REMARK VINA RESULT:      -5.6     18.873     21.173
REMARK  9 active torsions:
REMARK  status: ('A' for Active; 'I' for Inactive)
REMARK    1  A    between atoms: C_3  and  C_21 
REMARK    2  A    between atoms: C_3  and  C_4 
REMARK    3  A    between atoms: C_3  and  N_19 
REMARK    4  A    between atoms: C_5  and  C_22 
REMARK    5  A    between atoms: C_5  and  C_24 
REMARK    6  A    between atoms: C_7  and  C_8 
REMARK    7  A    between atoms: C_7  and  C_21 
REMARK       I    between atoms: C_8  and  N_9 
REMARK       I    between atoms: C_10  and  N_19 
REMARK    8  A    between atoms: C_10  and  C_22 
REMARK    9  A    between atoms: N_13  and  C_22 
ROOT
HETATM    1  H           1     -11.773   6.014 -21.640  0.00  0.00     0.163 HD
HETATM    2  C           1     -11.575   3.966 -21.870  0.00  0.00     0.249 C 
HETATM    3  O           1     -10.910   2.998 -21.588  0.00  0.00    -0.271 OA
HETATM    4  N           1     -11.217   5.202 -21.403  0.00  0.00    -0.345 N 
ENDROOT
BRANCH   4   5
HETATM    5  C           1     -10.038   5.349 -20.571  0.00  0.00     0.186 C 
BRANCH   5   6
HETATM    6  C           1      -9.287   6.611 -20.976  0.00  0.00     0.045 C 
BRANCH   6   7
HETATM    7  C           1     -10.274   7.759 -21.144  0.00  0.00     0.105 C 
BRANCH   7   8
HETATM    8  C           1      -9.860   8.912 -20.262  0.00  0.00     0.215 C 
HETATM    9  O           1      -9.195   9.812 -20.716  0.00  0.00    -0.274 OA
HETATM   10  N           1     -10.238   8.936 -18.947  0.00  0.00    -0.370 N 
HETATM   11  H           1     -10.796   8.182 -18.566  0.00  0.00     0.159 HD
HETATM   12  H           1      -9.961   9.709 -18.355  0.00  0.00     0.159 HD
ENDBRANCH   7   8
ENDBRANCH   6   7
ENDBRANCH   5   6
BRANCH   5  13
HETATM   13  C           1     -10.455   5.454 -19.125  0.00  0.00     0.196 C 
HETATM   14  O           1      -9.620   5.793 -18.258  0.00  0.00    -0.646 OA
HETATM   15  O           1     -11.633   5.201 -18.793  0.00  0.00    -0.646 OA
ENDBRANCH   5  13
ENDBRANCH   4   5
BRANCH   2  16
HETATM   16  C           1     -12.801   3.813 -22.737  0.00  0.00     0.284 C 
BRANCH  16  17
HETATM   17  C           1     -13.493   5.162 -22.882  0.00  0.00     0.155 C 
BRANCH  17  18
HETATM   18  C           1     -14.643   5.246 -21.908  0.00  0.00     0.175 C 
HETATM   19  O           1     -14.423   5.497 -20.703  0.00  0.00    -0.648 OA
HETATM   20  O           1     -15.814   5.066 -22.306  0.00  0.00    -0.648 OA
ENDBRANCH  17  18
ENDBRANCH  16  17
BRANCH  16  21
HETATM   21  N           1     -13.743   2.834 -22.102  0.00  0.00    -0.066 N 
HETATM   22  H           1     -13.207   2.186 -21.482  0.00  0.00     0.275 HD
HETATM   23  H           1     -14.451   3.352 -21.535  0.00  0.00     0.275 HD
HETATM   24  H           1     -14.227   2.284 -22.847  0.00  0.00     0.275 HD
ENDBRANCH  16  21
ENDBRANCH   2  16
TORSDOF 9
ENDMDL
