MODEL 1
REMARK VINA RESULT:      -5.9      0.000      0.000
REMARK  5 active torsions:
REMARK  status: ('A' for Active; 'I' for Inactive)
REMARK    1  A    between atoms: C_1  and  C_7 
REMARK    2  A    between atoms: C_4  and  O_5 
REMARK    3  A    between atoms: C_4  and  C_7 
REMARK    4  A    between atoms: C_7  and  N_13 
REMARK       I    between atoms: N_13  and  C_15 
REMARK    5  A    between atoms: C_15  and  C_19 
ROOT
HETATM    1  H           1     -20.253  -5.066  -5.266  0.00  0.00     0.255 HD
HETATM    2  H           1     -19.302  -7.037  -5.244  0.00  0.00     0.274 HD
HETATM    3  H           1     -18.951  -4.836  -6.345  0.00  0.00     0.275 HD
HETATM    4  H           1     -20.630  -8.005  -5.704  0.00  0.00     0.254 HD
HETATM    5  H           1     -19.193  -6.357  -5.613  0.00  0.00     0.275 HD
HETATM    6  C           1     -22.443  -6.262  -5.580  0.00  0.00     0.004 C 
HETATM    7  C           1     -21.592  -6.916  -6.662  0.00  0.00     0.062 C 
HETATM    8  C           1     -20.545  -5.925  -7.153  0.00  0.00     0.274 C 
HETATM    9  C           1     -21.553  -5.846  -4.417  0.00  0.00     0.047 C 
HETATM   10  N           1     -19.670  -5.514  -6.007  0.00  0.00    -0.067 N 
HETATM   11  N           1     -20.020  -7.718  -4.907  0.00  0.00    -0.080 N 
HETATM   12  C           1     -20.858  -7.074  -3.843  0.00  0.00     0.229 C 
HETATM   13  H           1     -19.543  -8.561  -4.513  0.00  0.00     0.274 HD
ENDROOT
BRANCH   8  14
HETATM   14  C           1     -21.233  -4.707  -7.722  0.00  0.00     0.249 C 
HETATM   15  N           1     -21.889  -4.789  -8.920  0.00  0.00    -0.343 N 
HETATM   16  H           1     -21.914  -5.666  -9.424  0.00  0.00     0.163 HD
HETATM   17  O           1     -21.202  -3.660  -7.120  0.00  0.00    -0.271 OA
BRANCH  15  18
HETATM   18  C           1     -22.549  -3.619  -9.466  0.00  0.00     0.214 C 
BRANCH  18  19
HETATM   19  C           1     -24.033  -3.876  -9.560  0.00  0.00     0.199 C 
HETATM   20  O           1     -24.836  -2.919  -9.544  0.00  0.00    -0.646 OA
HETATM   21  O           1     -24.459  -5.048  -9.654  0.00  0.00    -0.646 OA
ENDBRANCH  18  19
BRANCH  18  22
HETATM   22  C           1     -21.994  -3.327 -10.855  0.00  0.00     0.147 C 
HETATM   23  C           1     -20.551  -3.807 -10.936  0.00  0.00     0.042 C 
BRANCH  22  24
HETATM   24  O           1     -22.765  -3.996 -11.815  0.00  0.00    -0.393 OA
HETATM   25  H           1     -22.552  -3.617 -12.651  0.00  0.00     0.210 HD
ENDBRANCH  22  24
ENDBRANCH  18  22
ENDBRANCH  15  18
ENDBRANCH   8  14
TORSDOF 5
ENDMDL
MODEL 2
REMARK VINA RESULT:      -5.9      1.751      2.508
REMARK  5 active torsions:
REMARK  status: ('A' for Active; 'I' for Inactive)
REMARK    1  A    between atoms: C_1  and  C_7 
REMARK    2  A    between atoms: C_4  and  O_5 
REMARK    3  A    between atoms: C_4  and  C_7 
REMARK    4  A    between atoms: C_7  and  N_13 
REMARK       I    between atoms: N_13  and  C_15 
REMARK    5  A    between atoms: C_15  and  C_19 
ROOT
HETATM    1  H           1     -22.522  -6.228  -6.324  0.00  0.00     0.255 HD
HETATM    2  H           1     -22.260  -5.208  -4.405  0.00  0.00     0.274 HD
HETATM    3  H           1     -23.344  -4.757  -6.597  0.00  0.00     0.275 HD
HETATM    4  H           1     -20.556  -5.227  -4.298  0.00  0.00     0.254 HD
HETATM    5  H           1     -22.586  -5.045  -5.097  0.00  0.00     0.275 HD
HETATM    6  C           1     -20.059  -6.735  -6.251  0.00  0.00     0.004 C 
HETATM    7  C           1     -20.061  -5.238  -5.966  0.00  0.00     0.062 C 
HETATM    8  C           1     -21.257  -4.591  -6.651  0.00  0.00     0.274 C 
HETATM    9  C           1     -21.345  -7.355  -5.720  0.00  0.00     0.047 C 
HETATM   10  N           1     -22.523  -5.202  -6.128  0.00  0.00    -0.067 N 
HETATM   11  N           1     -21.439  -5.651  -3.935  0.00  0.00    -0.080 N 
HETATM   12  C           1     -21.436  -7.125  -4.217  0.00  0.00     0.229 C 
HETATM   13  H           1     -21.502  -5.494  -2.903  0.00  0.00     0.274 HD
ENDROOT
BRANCH   8  14
HETATM   14  C           1     -21.168  -4.819  -8.141  0.00  0.00     0.249 C 
HETATM   15  N           1     -22.217  -4.475  -8.949  0.00  0.00    -0.343 N 
HETATM   16  H           1     -23.053  -4.068  -8.548  0.00  0.00     0.163 HD
HETATM   17  O           1     -20.171  -5.305  -8.619  0.00  0.00    -0.271 OA
BRANCH  15  18
HETATM   18  C           1     -22.132  -4.694 -10.380  0.00  0.00     0.214 C 
BRANCH  18  19
HETATM   19  C           1     -21.513  -3.485 -11.037  0.00  0.00     0.199 C 
HETATM   20  O           1     -22.218  -2.486 -11.298  0.00  0.00    -0.646 OA
HETATM   21  O           1     -20.295  -3.482 -11.322  0.00  0.00    -0.646 OA
ENDBRANCH  18  19
BRANCH  18  22
HETATM   22  C           1     -23.530  -4.919 -10.943  0.00  0.00     0.147 C 
HETATM   23  C           1     -24.519  -4.016 -10.218  0.00  0.00     0.042 C 
BRANCH  22  24
HETATM   24  O           1     -23.536  -4.617 -12.312  0.00  0.00    -0.393 OA
HETATM   25  H           1     -23.412  -5.430 -12.772  0.00  0.00     0.210 HD
ENDBRANCH  22  24
ENDBRANCH  18  22
ENDBRANCH  15  18
ENDBRANCH   8  14
TORSDOF 5
ENDMDL
MODEL 3
REMARK VINA RESULT:      -5.5      1.468      2.071
REMARK  5 active torsions:
REMARK  status: ('A' for Active; 'I' for Inactive)
REMARK    1  A    between atoms: C_1  and  C_7 
REMARK    2  A    between atoms: C_4  and  O_5 
REMARK    3  A    between atoms: C_4  and  C_7 
REMARK    4  A    between atoms: C_7  and  N_13 
REMARK       I    between atoms: N_13  and  C_15 
REMARK    5  A    between atoms: C_15  and  C_19 
ROOT
HETATM    1  H           1     -20.921  -6.531  -7.761  0.00  0.00     0.255 HD
HETATM    2  H           1     -21.075  -7.436  -5.774  0.00  0.00     0.274 HD
HETATM    3  H           1     -22.608  -6.740  -7.603  0.00  0.00     0.275 HD
HETATM    4  H           1     -20.272  -6.246  -4.851  0.00  0.00     0.254 HD
HETATM    5  H           1     -21.568  -7.202  -6.332  0.00  0.00     0.275 HD
HETATM    6  C           1     -19.382  -4.829  -6.732  0.00  0.00     0.004 C 
HETATM    7  C           1     -20.556  -4.790  -5.761  0.00  0.00     0.062 C 
HETATM    8  C           1     -21.840  -5.132  -6.503  0.00  0.00     0.274 C 
HETATM    9  C           1     -19.265  -6.224  -7.332  0.00  0.00     0.047 C 
HETATM   10  N           1     -21.725  -6.505  -7.095  0.00  0.00    -0.067 N 
HETATM   11  N           1     -20.193  -7.202  -5.264  0.00  0.00    -0.080 N 
HETATM   12  C           1     -19.038  -7.239  -6.219  0.00  0.00     0.229 C 
HETATM   13  H           1     -20.036  -7.899  -4.501  0.00  0.00     0.274 HD
ENDROOT
BRANCH   8  14
HETATM   14  C           1     -22.067  -4.127  -7.607  0.00  0.00     0.249 C 
HETATM   15  N           1     -22.381  -4.555  -8.868  0.00  0.00    -0.343 N 
HETATM   16  H           1     -22.462  -5.545  -9.061  0.00  0.00     0.163 HD
HETATM   17  O           1     -21.970  -2.945  -7.376  0.00  0.00    -0.271 OA
BRANCH  15  18
HETATM   18  C           1     -22.599  -3.589  -9.928  0.00  0.00     0.214 C 
BRANCH  18  19
HETATM   19  C           1     -23.774  -4.022 -10.769  0.00  0.00     0.199 C 
HETATM   20  O           1     -23.800  -5.170 -11.263  0.00  0.00    -0.646 OA
HETATM   21  O           1     -24.722  -3.233 -10.973  0.00  0.00    -0.646 OA
ENDBRANCH  18  19
BRANCH  18  22
HETATM   22  C           1     -21.352  -3.505 -10.801  0.00  0.00     0.147 C 
HETATM   23  C           1     -20.457  -4.705 -10.522  0.00  0.00     0.042 C 
BRANCH  22  24
HETATM   24  O           1     -21.727  -3.505 -12.151  0.00  0.00    -0.393 OA
HETATM   25  H           1     -21.969  -4.389 -12.368  0.00  0.00     0.210 HD
ENDBRANCH  22  24
ENDBRANCH  18  22
ENDBRANCH  15  18
ENDBRANCH   8  14
TORSDOF 5
ENDMDL
MODEL 4
REMARK VINA RESULT:      -5.3      4.870      7.002
REMARK  5 active torsions:
REMARK  status: ('A' for Active; 'I' for Inactive)
REMARK    1  A    between atoms: C_1  and  C_7 
REMARK    2  A    between atoms: C_4  and  O_5 
REMARK    3  A    between atoms: C_4  and  C_7 
REMARK    4  A    between atoms: C_7  and  N_13 
REMARK       I    between atoms: N_13  and  C_15 
REMARK    5  A    between atoms: C_15  and  C_19 
ROOT
HETATM    1  H           1     -20.195  -8.939  -0.896  0.00  0.00     0.255 HD
HETATM    2  H           1     -19.789 -10.694   0.347  0.00  0.00     0.274 HD
HETATM    3  H           1     -19.252  -9.898  -1.947  0.00  0.00     0.275 HD
HETATM    4  H           1     -21.388 -11.158   0.723  0.00  0.00     0.254 HD
HETATM    5  H           1     -19.632 -10.465  -0.384  0.00  0.00     0.275 HD
HETATM    6  C           1     -22.602  -9.156  -0.202  0.00  0.00     0.004 C 
HETATM    7  C           1     -22.294 -10.581  -0.646  0.00  0.00     0.062 C 
HETATM    8  C           1     -21.230 -10.554  -1.735  0.00  0.00     0.274 C 
HETATM    9  C           1     -21.336  -8.508   0.341  0.00  0.00     0.047 C 
HETATM   10  N           1     -19.983  -9.915  -1.200  0.00  0.00    -0.067 N 
HETATM   11  N           1     -20.519 -10.713   1.094  0.00  0.00    -0.080 N 
HETATM   12  C           1     -20.825  -9.311   1.530  0.00  0.00     0.229 C 
HETATM   13  H           1     -20.169 -11.263   1.911  0.00  0.00     0.274 HD
ENDROOT
BRANCH   8  14
HETATM   14  C           1     -21.735  -9.758  -2.915  0.00  0.00     0.249 C 
HETATM   15  N           1     -21.213  -8.522  -3.180  0.00  0.00    -0.343 N 
HETATM   16  H           1     -20.487  -8.141  -2.586  0.00  0.00     0.163 HD
HETATM   17  O           1     -22.602 -10.213  -3.622  0.00  0.00    -0.271 OA
BRANCH  15  18
HETATM   18  C           1     -21.699  -7.758  -4.313  0.00  0.00     0.214 C 
BRANCH  18  19
HETATM   19  C           1     -20.672  -7.789  -5.418  0.00  0.00     0.199 C 
HETATM   20  O           1     -19.519  -8.213  -5.188  0.00  0.00    -0.646 OA
HETATM   21  O           1     -20.975  -7.391  -6.564  0.00  0.00    -0.646 OA
ENDBRANCH  18  19
BRANCH  18  22
HETATM   22  C           1     -21.941  -6.315  -3.884  0.00  0.00     0.147 C 
HETATM   23  C           1     -21.936  -6.231  -2.364  0.00  0.00     0.042 C 
BRANCH  22  24
HETATM   24  O           1     -20.927  -5.499  -4.402  0.00  0.00    -0.393 OA
HETATM   25  H           1     -20.107  -5.869  -4.121  0.00  0.00     0.210 HD
ENDBRANCH  22  24
ENDBRANCH  18  22
ENDBRANCH  15  18
ENDBRANCH   8  14
TORSDOF 5
ENDMDL
MODEL 5
REMARK VINA RESULT:      -5.2      2.850      5.877
REMARK  5 active torsions:
REMARK  status: ('A' for Active; 'I' for Inactive)
REMARK    1  A    between atoms: C_1  and  C_7 
REMARK    2  A    between atoms: C_4  and  O_5 
REMARK    3  A    between atoms: C_4  and  C_7 
REMARK    4  A    between atoms: C_7  and  N_13 
REMARK       I    between atoms: N_13  and  C_15 
REMARK    5  A    between atoms: C_15  and  C_19 
ROOT
HETATM    1  H           1     -21.109  -5.906  -8.677  0.00  0.00     0.255 HD
HETATM    2  H           1     -20.199  -4.692 -10.255  0.00  0.00     0.274 HD
HETATM    3  H           1     -19.522  -6.532  -8.725  0.00  0.00     0.275 HD
HETATM    4  H           1     -20.483  -3.133  -9.620  0.00  0.00     0.254 HD
HETATM    5  H           1     -19.968  -5.255  -9.764  0.00  0.00     0.275 HD
HETATM    6  C           1     -21.990  -3.760  -7.704  0.00  0.00     0.004 C 
HETATM    7  C           1     -20.520  -3.412  -7.903  0.00  0.00     0.062 C 
HETATM    8  C           1     -19.677  -4.673  -7.774  0.00  0.00     0.274 C 
HETATM    9  C           1     -22.421  -4.769  -8.761  0.00  0.00     0.047 C 
HETATM   10  N           1     -20.102  -5.667  -8.814  0.00  0.00    -0.067 N 
HETATM   11  N           1     -20.777  -3.826 -10.344  0.00  0.00    -0.080 N 
HETATM   12  C           1     -22.224  -4.168 -10.146  0.00  0.00     0.229 C 
HETATM   13  H           1     -20.643  -3.414 -11.295  0.00  0.00     0.274 HD
ENDROOT
BRANCH   8  14
HETATM   14  C           1     -19.871  -5.270  -6.400  0.00  0.00     0.249 C 
HETATM   15  N           1     -20.273  -6.571  -6.270  0.00  0.00    -0.343 N 
HETATM   16  H           1     -20.440  -7.134  -7.095  0.00  0.00     0.163 HD
HETATM   17  O           1     -19.672  -4.597  -5.417  0.00  0.00    -0.271 OA
BRANCH  15  18
HETATM   18  C           1     -20.459  -7.144  -4.951  0.00  0.00     0.214 C 
BRANCH  18  19
HETATM   19  C           1     -20.134  -8.617  -4.992  0.00  0.00     0.199 C 
HETATM   20  O           1     -20.815  -9.388  -5.703  0.00  0.00    -0.646 OA
HETATM   21  O           1     -19.184  -9.067  -4.315  0.00  0.00    -0.646 OA
ENDBRANCH  18  19
BRANCH  18  22
HETATM   22  C           1     -21.907  -6.954  -4.516  0.00  0.00     0.147 C 
HETATM   23  C           1     -21.945  -6.488  -3.067  0.00  0.00     0.042 C 
BRANCH  22  24
HETATM   24  O           1     -22.518  -5.993  -5.333  0.00  0.00    -0.393 OA
HETATM   25  H           1     -22.975  -6.460  -6.011  0.00  0.00     0.210 HD
ENDBRANCH  22  24
ENDBRANCH  18  22
ENDBRANCH  15  18
ENDBRANCH   8  14
TORSDOF 5
ENDMDL
MODEL 6
REMARK VINA RESULT:      -5.2      3.246      6.444
REMARK  5 active torsions:
REMARK  status: ('A' for Active; 'I' for Inactive)
REMARK    1  A    between atoms: C_1  and  C_7 
REMARK    2  A    between atoms: C_4  and  O_5 
REMARK    3  A    between atoms: C_4  and  C_7 
REMARK    4  A    between atoms: C_7  and  N_13 
REMARK       I    between atoms: N_13  and  C_15 
REMARK    5  A    between atoms: C_15  and  C_19 
ROOT
HETATM    1  H           1     -20.549  -3.364  -7.251  0.00  0.00     0.255 HD
HETATM    2  H           1     -22.214  -3.060  -8.638  0.00  0.00     0.274 HD
HETATM    3  H           1     -21.759  -2.753  -6.213  0.00  0.00     0.275 HD
HETATM    4  H           1     -22.352  -4.637  -9.275  0.00  0.00     0.254 HD
HETATM    5  H           1     -22.091  -2.979  -7.871  0.00  0.00     0.275 HD
HETATM    6  C           1     -20.272  -5.644  -8.275  0.00  0.00     0.004 C 
HETATM    7  C           1     -21.767  -5.634  -7.975  0.00  0.00     0.062 C 
HETATM    8  C           1     -22.035  -4.755  -6.762  0.00  0.00     0.274 C 
HETATM    9  C           1     -19.804  -4.224  -8.564  0.00  0.00     0.047 C 
HETATM   10  N           1     -21.573  -3.357  -7.046  0.00  0.00    -0.067 N 
HETATM   11  N           1     -22.030  -3.663  -9.471  0.00  0.00    -0.080 N 
HETATM   12  C           1     -20.559  -3.674  -9.766  0.00  0.00     0.229 C 
HETATM   13  H           1     -22.548  -3.285 -10.297  0.00  0.00     0.274 HD
ENDROOT
BRANCH   8  14
HETATM   14  C           1     -21.287  -5.300  -5.569  0.00  0.00     0.249 C 
HETATM   15  N           1     -21.719  -6.443  -4.954  0.00  0.00    -0.343 N 
HETATM   16  H           1     -22.540  -6.924  -5.299  0.00  0.00     0.163 HD
HETATM   17  O           1     -20.307  -4.725  -5.157  0.00  0.00    -0.271 OA
BRANCH  15  18
HETATM   18  C           1     -21.000  -6.965  -3.808  0.00  0.00     0.214 C 
BRANCH  18  19
HETATM   19  C           1     -20.496  -8.352  -4.121  0.00  0.00     0.199 C 
HETATM   20  O           1     -19.274  -8.604  -4.049  0.00  0.00    -0.646 OA
HETATM   21  O           1     -21.300  -9.250  -4.454  0.00  0.00    -0.646 OA
ENDBRANCH  18  19
BRANCH  18  22
HETATM   22  C           1     -21.936  -7.024  -2.607  0.00  0.00     0.147 C 
HETATM   23  C           1     -21.193  -7.611  -1.414  0.00  0.00     0.042 C 
BRANCH  22  24
HETATM   24  O           1     -22.375  -5.731  -2.294  0.00  0.00    -0.393 OA
HETATM   25  H           1     -22.883  -5.798  -1.503  0.00  0.00     0.210 HD
ENDBRANCH  22  24
ENDBRANCH  18  22
ENDBRANCH  15  18
ENDBRANCH   8  14
TORSDOF 5
ENDMDL
MODEL 7
REMARK VINA RESULT:      -5.2      3.429      6.627
REMARK  5 active torsions:
REMARK  status: ('A' for Active; 'I' for Inactive)
REMARK    1  A    between atoms: C_1  and  C_7 
REMARK    2  A    between atoms: C_4  and  O_5 
REMARK    3  A    between atoms: C_4  and  C_7 
REMARK    4  A    between atoms: C_7  and  N_13 
REMARK       I    between atoms: N_13  and  C_15 
REMARK    5  A    between atoms: C_15  and  C_19 
ROOT
HETATM    1  H           1     -20.784  -6.380  -8.054  0.00  0.00     0.255 HD
HETATM    2  H           1     -19.212  -4.921  -8.496  0.00  0.00     0.274 HD
HETATM    3  H           1     -19.378  -7.235  -7.601  0.00  0.00     0.275 HD
HETATM    4  H           1     -19.758  -3.612  -7.546  0.00  0.00     0.254 HD
HETATM    5  H           1     -19.253  -5.640  -8.193  0.00  0.00     0.275 HD
HETATM    6  C           1     -22.012  -4.520  -6.889  0.00  0.00     0.004 C 
HETATM    7  C           1     -20.629  -4.398  -6.262  0.00  0.00     0.062 C 
HETATM    8  C           1     -19.964  -5.768  -6.227  0.00  0.00     0.274 C 
HETATM    9  C           1     -21.880  -5.056  -8.308  0.00  0.00     0.047 C 
HETATM   10  N           1     -19.836  -6.296  -7.625  0.00  0.00    -0.067 N 
HETATM   11  N           1     -19.668  -3.981  -8.519  0.00  0.00    -0.080 N 
HETATM   12  C           1     -21.030  -4.101  -9.135  0.00  0.00     0.229 C 
HETATM   13  H           1     -19.085  -3.325  -9.087  0.00  0.00     0.274 HD
ENDROOT
BRANCH   8  14
HETATM   14  C           1     -20.806  -6.716  -5.407  0.00  0.00     0.249 C 
HETATM   15  N           1     -20.936  -6.524  -4.059  0.00  0.00    -0.343 N 
HETATM   16  H           1     -20.467  -5.746  -3.611  0.00  0.00     0.163 HD
HETATM   17  O           1     -21.364  -7.644  -5.942  0.00  0.00    -0.271 OA
BRANCH  15  18
HETATM   18  C           1     -21.744  -7.435  -3.271  0.00  0.00     0.214 C 
BRANCH  18  19
HETATM   19  C           1     -22.136  -6.767  -1.977  0.00  0.00     0.199 C 
HETATM   20  O           1     -22.048  -5.526  -1.861  0.00  0.00    -0.646 OA
HETATM   21  O           1     -22.549  -7.456  -1.018  0.00  0.00    -0.646 OA
ENDBRANCH  18  19
BRANCH  18  22
HETATM   22  C           1     -20.941  -8.695  -2.971  0.00  0.00     0.147 C 
HETATM   23  C           1     -19.813  -8.359  -2.004  0.00  0.00     0.042 C 
BRANCH  22  24
HETATM   24  O           1     -21.781  -9.657  -2.395  0.00  0.00    -0.393 OA
HETATM   25  H           1     -21.669 -10.450  -2.890  0.00  0.00     0.210 HD
ENDBRANCH  22  24
ENDBRANCH  18  22
ENDBRANCH  15  18
ENDBRANCH   8  14
TORSDOF 5
ENDMDL
MODEL 8
REMARK VINA RESULT:      -5.0      5.329      7.837
REMARK  5 active torsions:
REMARK  status: ('A' for Active; 'I' for Inactive)
REMARK    1  A    between atoms: C_1  and  C_7 
REMARK    2  A    between atoms: C_4  and  O_5 
REMARK    3  A    between atoms: C_4  and  C_7 
REMARK    4  A    between atoms: C_7  and  N_13 
REMARK       I    between atoms: N_13  and  C_15 
REMARK    5  A    between atoms: C_15  and  C_19 
ROOT
HETATM    1  H           1     -21.250 -12.040  -0.562  0.00  0.00     0.255 HD
HETATM    2  H           1     -22.349 -13.662  -1.537  0.00  0.00     0.274 HD
HETATM    3  H           1     -20.259 -12.369  -1.912  0.00  0.00     0.275 HD
HETATM    4  H           1     -23.860 -12.899  -1.752  0.00  0.00     0.254 HD
HETATM    5  H           1     -21.702 -13.248  -1.678  0.00  0.00     0.275 HD
HETATM    6  C           1     -23.441 -10.816  -0.401  0.00  0.00     0.004 C 
HETATM    7  C           1     -23.433 -11.216  -1.872  0.00  0.00     0.062 C 
HETATM    8  C           1     -21.996 -11.294  -2.370  0.00  0.00     0.274 C 
HETATM    9  C           1     -22.677 -11.854   0.411  0.00  0.00     0.047 C 
HETATM   10  N           1     -21.245 -12.315  -1.569  0.00  0.00    -0.067 N 
HETATM   11  N           1     -23.336 -13.610  -1.195  0.00  0.00    -0.080 N 
HETATM   12  C           1     -23.343 -13.214   0.252  0.00  0.00     0.229 C 
HETATM   13  H           1     -23.793 -14.543  -1.304  0.00  0.00     0.274 HD
ENDROOT
BRANCH   8  14
HETATM   14  C           1     -21.335  -9.946  -2.213  0.00  0.00     0.249 C 
HETATM   15  N           1     -21.852  -8.852  -2.851  0.00  0.00    -0.343 N 
HETATM   16  H           1     -22.678  -8.946  -3.429  0.00  0.00     0.163 HD
HETATM   17  O           1     -20.349  -9.834  -1.524  0.00  0.00    -0.271 OA
BRANCH  15  18
HETATM   18  C           1     -21.217  -7.557  -2.701  0.00  0.00     0.214 C 
BRANCH  18  19
HETATM   19  C           1     -22.015  -6.714  -1.737  0.00  0.00     0.199 C 
HETATM   20  O           1     -22.110  -5.481  -1.916  0.00  0.00    -0.646 OA
HETATM   21  O           1     -22.583  -7.250  -0.760  0.00  0.00    -0.646 OA
ENDBRANCH  18  19
BRANCH  18  22
HETATM   22  C           1     -21.156  -6.862  -4.056  0.00  0.00     0.147 C 
HETATM   23  C           1     -20.621  -7.832  -5.100  0.00  0.00     0.042 C 
BRANCH  22  24
HETATM   24  O           1     -22.442  -6.441  -4.422  0.00  0.00    -0.393 OA
HETATM   25  H           1     -22.652  -6.877  -5.231  0.00  0.00     0.210 HD
ENDBRANCH  22  24
ENDBRANCH  18  22
ENDBRANCH  15  18
ENDBRANCH   8  14
TORSDOF 5
ENDMDL
MODEL 9
REMARK VINA RESULT:      -5.0      4.308      7.428
REMARK  5 active torsions:
REMARK  status: ('A' for Active; 'I' for Inactive)
REMARK    1  A    between atoms: C_1  and  C_7 
REMARK    2  A    between atoms: C_4  and  O_5 
REMARK    3  A    between atoms: C_4  and  C_7 
REMARK    4  A    between atoms: C_7  and  N_13 
REMARK       I    between atoms: N_13  and  C_15 
REMARK    5  A    between atoms: C_15  and  C_19 
ROOT
HETATM    1  H           1     -21.704  -5.236  -4.842  0.00  0.00     0.255 HD
HETATM    2  H           1     -22.851  -5.069  -6.699  0.00  0.00     0.274 HD
HETATM    3  H           1     -23.069  -6.201  -4.496  0.00  0.00     0.275 HD
HETATM    4  H           1     -21.678  -5.616  -7.813  0.00  0.00     0.254 HD
HETATM    5  H           1     -22.921  -5.447  -6.019  0.00  0.00     0.275 HD
HETATM    6  C           1     -19.690  -5.707  -6.272  0.00  0.00     0.004 C 
HETATM    7  C           1     -20.701  -6.689  -6.853  0.00  0.00     0.062 C 
HETATM    8  C           1     -21.678  -7.114  -5.767  0.00  0.00     0.274 C 
HETATM    9  C           1     -20.421  -4.482  -5.739  0.00  0.00     0.047 C 
HETATM   10  N           1     -22.397  -5.908  -5.241  0.00  0.00    -0.067 N 
HETATM   11  N           1     -22.180  -4.777  -7.446  0.00  0.00    -0.080 N 
HETATM   12  C           1     -21.184  -3.812  -6.873  0.00  0.00     0.229 C 
HETATM   13  H           1     -22.704  -4.316  -8.224  0.00  0.00     0.274 HD
ENDROOT
BRANCH   8  14
HETATM   14  C           1     -20.922  -7.779  -4.641  0.00  0.00     0.249 C 
HETATM   15  N           1     -21.463  -7.820  -3.385  0.00  0.00    -0.343 N 
HETATM   16  H           1     -22.370  -7.406  -3.210  0.00  0.00     0.163 HD
HETATM   17  O           1     -19.840  -8.273  -4.849  0.00  0.00    -0.271 OA
BRANCH  15  18
HETATM   18  C           1     -20.737  -8.458  -2.304  0.00  0.00     0.214 C 
BRANCH  18  19
HETATM   19  C           1     -21.108  -9.919  -2.243  0.00  0.00     0.199 C 
HETATM   20  O           1     -22.274 -10.280  -2.511  0.00  0.00    -0.646 OA
HETATM   21  O           1     -20.248 -10.770  -1.924  0.00  0.00    -0.646 OA
ENDBRANCH  18  19
BRANCH  18  22
HETATM   22  C           1     -21.099  -7.786  -0.984  0.00  0.00     0.147 C 
HETATM   23  C           1     -22.243  -6.807  -1.212  0.00  0.00     0.042 C 
BRANCH  22  24
HETATM   24  O           1     -21.495  -8.761  -0.058  0.00  0.00    -0.393 OA
HETATM   25  H           1     -20.742  -9.302   0.108  0.00  0.00     0.210 HD
ENDBRANCH  22  24
ENDBRANCH  18  22
ENDBRANCH  15  18
ENDBRANCH   8  14
TORSDOF 5
ENDMDL
