MODEL 1
REMARK VINA RESULT:      -8.2      0.000      0.000
REMARK  11 active torsions:
REMARK  status: ('A' for Active; 'I' for Inactive)
REMARK    1  A    between atoms: O_2  and  P_32 
REMARK    2  A    between atoms: C_3  and  C_6 
REMARK       I    between atoms: C_4  and  N_5 
REMARK    3  A    between atoms: C_4  and  C_18 
REMARK    4  A    between atoms: N_5  and  C_7 
REMARK    5  A    between atoms: C_6  and  C_7 
REMARK    6  A    between atoms: C_7  and  C_13 
REMARK    7  A    between atoms: C_9  and  O_16 
REMARK    8  A    between atoms: O_16  and  P_32 
REMARK    9  A    between atoms: C_18  and  C_24 
REMARK   10  A    between atoms: C_18  and  N_19 
REMARK   11  A    between atoms: C_23  and  C_24 
ROOT
HETATM    1  C           1     -21.112  -7.976  -5.450  0.00  0.00     0.189 C 
ENDROOT
BRANCH   1   2
HETATM    2  N           1     -22.011  -7.947  -4.313  0.00  0.00    -0.344 N 
HETATM    3  C           1     -21.552  -7.548  -3.087  0.00  0.00     0.249 C 
HETATM    4  O           1     -21.606  -6.382  -2.773  0.00  0.00    -0.271 OA
HETATM    5  H           1     -22.979  -8.222  -4.426  0.00  0.00     0.163 HD
BRANCH   3   6
HETATM    6  C           1     -20.980  -8.562  -2.127  0.00  0.00     0.278 C 
BRANCH   6   7
HETATM    7  C           1     -21.670  -8.430  -0.777  0.00  0.00     0.081 C 
BRANCH   7   8
HETATM    8  C           1     -22.100  -9.783  -0.301  0.00  0.00    -0.056 A 
HETATM    9  C           1     -23.433 -10.175  -0.424  0.00  0.00     0.007 A 
HETATM   10  C           1     -23.832 -11.436   0.019  0.00  0.00     0.001 A 
HETATM   11  C           1     -22.899 -12.304   0.586  0.00  0.00     0.000 A 
HETATM   12  C           1     -21.567 -11.913   0.709  0.00  0.00     0.001 A 
HETATM   13  C           1     -21.167 -10.651   0.266  0.00  0.00     0.007 A 
ENDBRANCH   7   8
ENDBRANCH   6   7
BRANCH   6  14
HETATM   14  N           1     -19.509  -8.318  -1.963  0.00  0.00    -0.066 N 
HETATM   15  H           1     -19.296  -8.139  -0.956  0.00  0.00     0.275 HD
HETATM   16  H           1     -18.978  -9.157  -2.288  0.00  0.00     0.275 HD
HETATM   17  H           1     -19.228  -7.487  -2.532  0.00  0.00     0.275 HD
ENDBRANCH   6  14
ENDBRANCH   3   6
ENDBRANCH   1   2
BRANCH   1  18
HETATM   18  C           1     -20.348  -6.661  -5.526  0.00  0.00     0.074 C 
BRANCH  18  19
HETATM   19  C           1     -20.955  -5.790  -6.581  0.00  0.00    -0.056 A 
HETATM   20  C           1     -22.207  -5.211  -6.371  0.00  0.00     0.010 A 
HETATM   21  C           1     -22.773  -4.400  -7.355  0.00  0.00     0.038 A 
HETATM   22  C           1     -22.089  -4.167  -8.548  0.00  0.00     0.081 A 
HETATM   23  C           1     -20.838  -4.747  -8.757  0.00  0.00     0.038 A 
HETATM   24  C           1     -20.271  -5.559  -7.775  0.00  0.00     0.010 A 
BRANCH  22  25
HETATM   25  O           1     -22.639  -3.380  -9.502  0.00  0.00    -0.247 OA
BRANCH  25  26
HETATM   26  P           1     -23.542  -4.086 -10.640  0.00  0.00     0.411 P 
HETATM   27  O           1     -22.768  -4.176 -11.899  0.00  0.00    -0.624 OA
HETATM   28  O           1     -23.922  -5.445 -10.196  0.00  0.00    -0.624 OA
BRANCH  26  29
HETATM   29  O           1     -24.875  -3.208 -10.889  0.00  0.00    -0.300 OA
HETATM   30  H           1     -24.726  -2.765 -11.706  0.00  0.00     0.223 HD
ENDBRANCH  26  29
ENDBRANCH  25  26
ENDBRANCH  22  25
ENDBRANCH  18  19
ENDBRANCH   1  18
BRANCH   1  31
HETATM   31  C           1     -20.137  -9.116  -5.290  0.00  0.00     0.197 C 
HETATM   32  O           1     -18.970  -8.892  -4.897  0.00  0.00    -0.646 OA
HETATM   33  O           1     -20.493 -10.285  -5.551  0.00  0.00    -0.646 OA
ENDBRANCH   1  31
TORSDOF 11
ENDMDL
MODEL 2
REMARK VINA RESULT:      -8.1      2.935      4.485
REMARK  11 active torsions:
REMARK  status: ('A' for Active; 'I' for Inactive)
REMARK    1  A    between atoms: O_2  and  P_32 
REMARK    2  A    between atoms: C_3  and  C_6 
REMARK       I    between atoms: C_4  and  N_5 
REMARK    3  A    between atoms: C_4  and  C_18 
REMARK    4  A    between atoms: N_5  and  C_7 
REMARK    5  A    between atoms: C_6  and  C_7 
REMARK    6  A    between atoms: C_7  and  C_13 
REMARK    7  A    between atoms: C_9  and  O_16 
REMARK    8  A    between atoms: O_16  and  P_32 
REMARK    9  A    between atoms: C_18  and  C_24 
REMARK   10  A    between atoms: C_18  and  N_19 
REMARK   11  A    between atoms: C_23  and  C_24 
ROOT
HETATM    1  C           1     -18.938 -10.398  -2.752  0.00  0.00     0.189 C 
ENDROOT
BRANCH   1   2
HETATM    2  N           1     -19.397 -11.583  -2.053  0.00  0.00    -0.344 N 
HETATM    3  C           1     -20.514 -12.245  -2.489  0.00  0.00     0.249 C 
HETATM    4  O           1     -20.410 -13.134  -3.300  0.00  0.00    -0.271 OA
HETATM    5  H           1     -18.893 -11.920  -1.243  0.00  0.00     0.163 HD
BRANCH   3   6
HETATM    6  C           1     -21.874 -11.864  -1.957  0.00  0.00     0.278 C 
BRANCH   6   7
HETATM    7  C           1     -21.853 -11.902  -0.435  0.00  0.00     0.081 C 
BRANCH   7   8
HETATM    8  C           1     -21.951 -10.508   0.101  0.00  0.00    -0.056 A 
HETATM    9  C           1     -20.952 -10.010   0.938  0.00  0.00     0.007 A 
HETATM   10  C           1     -21.044  -8.711   1.436  0.00  0.00     0.001 A 
HETATM   11  C           1     -22.134  -7.909   1.098  0.00  0.00     0.000 A 
HETATM   12  C           1     -23.133  -8.406   0.262  0.00  0.00     0.001 A 
HETATM   13  C           1     -23.041  -9.706  -0.237  0.00  0.00     0.007 A 
ENDBRANCH   7   8
ENDBRANCH   6   7
BRANCH   6  14
HETATM   14  N           1     -22.897 -12.835  -2.467  0.00  0.00    -0.066 N 
HETATM   15  H           1     -22.617 -13.169  -3.417  0.00  0.00     0.275 HD
HETATM   16  H           1     -22.960 -13.650  -1.816  0.00  0.00     0.275 HD
HETATM   17  H           1     -23.828 -12.363  -2.522  0.00  0.00     0.275 HD
ENDBRANCH   6  14
ENDBRANCH   3   6
ENDBRANCH   1   2
BRANCH   1  18
HETATM   18  C           1     -19.413  -9.156  -2.012  0.00  0.00     0.074 C 
BRANCH  18  19
HETATM   19  C           1     -20.225  -8.303  -2.935  0.00  0.00    -0.056 A 
HETATM   20  C           1     -20.255  -8.587  -4.301  0.00  0.00     0.010 A 
HETATM   21  C           1     -21.012  -7.792  -5.162  0.00  0.00     0.038 A 
HETATM   22  C           1     -21.738  -6.713  -4.658  0.00  0.00     0.081 A 
HETATM   23  C           1     -21.707  -6.429  -3.293  0.00  0.00     0.038 A 
HETATM   24  C           1     -20.950  -7.223  -2.432  0.00  0.00     0.010 A 
BRANCH  22  25
HETATM   25  O           1     -22.472  -5.941  -5.494  0.00  0.00    -0.247 OA
BRANCH  25  26
HETATM   26  P           1     -21.691  -5.086  -6.620  0.00  0.00     0.411 P 
HETATM   27  O           1     -20.583  -4.335  -5.989  0.00  0.00    -0.624 OA
HETATM   28  O           1     -21.144  -6.003  -7.645  0.00  0.00    -0.624 OA
BRANCH  26  29
HETATM   29  O           1     -22.716  -4.051  -7.316  0.00  0.00    -0.300 OA
HETATM   30  H           1     -23.561  -4.269  -6.962  0.00  0.00     0.223 HD
ENDBRANCH  26  29
ENDBRANCH  25  26
ENDBRANCH  22  25
ENDBRANCH  18  19
ENDBRANCH   1  18
BRANCH   1  31
HETATM   31  C           1     -17.430 -10.404  -2.812  0.00  0.00     0.197 C 
HETATM   32  O           1     -16.798  -9.325  -2.774  0.00  0.00    -0.646 OA
HETATM   33  O           1     -16.812 -11.486  -2.901  0.00  0.00    -0.646 OA
ENDBRANCH   1  31
TORSDOF 11
ENDMDL
MODEL 3
REMARK VINA RESULT:      -7.8      3.991      9.267
REMARK  11 active torsions:
REMARK  status: ('A' for Active; 'I' for Inactive)
REMARK    1  A    between atoms: O_2  and  P_32 
REMARK    2  A    between atoms: C_3  and  C_6 
REMARK       I    between atoms: C_4  and  N_5 
REMARK    3  A    between atoms: C_4  and  C_18 
REMARK    4  A    between atoms: N_5  and  C_7 
REMARK    5  A    between atoms: C_6  and  C_7 
REMARK    6  A    between atoms: C_7  and  C_13 
REMARK    7  A    between atoms: C_9  and  O_16 
REMARK    8  A    between atoms: O_16  and  P_32 
REMARK    9  A    between atoms: C_18  and  C_24 
REMARK   10  A    between atoms: C_18  and  N_19 
REMARK   11  A    between atoms: C_23  and  C_24 
ROOT
HETATM    1  C           1     -19.917  -7.892  -5.255  0.00  0.00     0.189 C 
ENDROOT
BRANCH   1   2
HETATM    2  N           1     -19.756  -7.006  -6.391  0.00  0.00    -0.344 N 
HETATM    3  C           1     -20.242  -5.728  -6.337  0.00  0.00     0.249 C 
HETATM    4  O           1     -19.542  -4.832  -5.926  0.00  0.00    -0.271 OA
HETATM    5  H           1     -19.286  -7.333  -7.226  0.00  0.00     0.163 HD
BRANCH   3   6
HETATM    6  C           1     -21.652  -5.435  -6.789  0.00  0.00     0.278 C 
BRANCH   6   7
HETATM    7  C           1     -21.711  -4.042  -7.401  0.00  0.00     0.081 C 
BRANCH   7   8
HETATM    8  C           1     -21.708  -4.151  -8.894  0.00  0.00    -0.056 A 
HETATM    9  C           1     -20.510  -4.044  -9.599  0.00  0.00     0.007 A 
HETATM   10  C           1     -20.508  -4.146 -10.990  0.00  0.00     0.001 A 
HETATM   11  C           1     -21.704  -4.356 -11.676  0.00  0.00     0.000 A 
HETATM   12  C           1     -22.903  -4.464 -10.972  0.00  0.00     0.001 A 
HETATM   13  C           1     -22.905  -4.361  -9.580  0.00  0.00     0.007 A 
ENDBRANCH   7   8
ENDBRANCH   6   7
BRANCH   6  14
HETATM   14  N           1     -22.578  -5.503  -5.610  0.00  0.00    -0.066 N 
HETATM   15  H           1     -22.752  -6.502  -5.362  0.00  0.00     0.275 HD
HETATM   16  H           1     -22.142  -5.012  -4.796  0.00  0.00     0.275 HD
HETATM   17  H           1     -23.482  -5.039  -5.851  0.00  0.00     0.275 HD
ENDBRANCH   6  14
ENDBRANCH   3   6
ENDBRANCH   1   2
BRANCH   1  18
HETATM   18  C           1     -21.271  -8.582  -5.337  0.00  0.00     0.074 C 
BRANCH  18  19
HETATM   19  C           1     -21.598  -9.202  -4.014  0.00  0.00    -0.056 A 
HETATM   20  C           1     -21.402  -8.477  -2.838  0.00  0.00     0.010 A 
HETATM   21  C           1     -21.707  -9.054  -1.605  0.00  0.00     0.038 A 
HETATM   22  C           1     -22.207 -10.355  -1.547  0.00  0.00     0.081 A 
HETATM   23  C           1     -22.402 -11.079  -2.723  0.00  0.00     0.038 A 
HETATM   24  C           1     -22.097 -10.503  -3.956  0.00  0.00     0.010 A 
BRANCH  22  25
HETATM   25  O           1     -22.502 -10.915  -0.350  0.00  0.00    -0.247 OA
BRANCH  25  26
HETATM   26  P           1     -21.297 -11.586   0.491  0.00  0.00     0.411 P 
HETATM   27  O           1     -20.685 -10.567   1.374  0.00  0.00    -0.624 OA
HETATM   28  O           1     -21.827 -12.697   1.313  0.00  0.00    -0.624 OA
BRANCH  26  29
HETATM   29  O           1     -20.181 -12.155  -0.529  0.00  0.00    -0.300 OA
HETATM   30  H           1     -20.123 -13.075  -0.338  0.00  0.00     0.223 HD
ENDBRANCH  26  29
ENDBRANCH  25  26
ENDBRANCH  22  25
ENDBRANCH  18  19
ENDBRANCH   1  18
BRANCH   1  31
HETATM   31  C           1     -18.821  -8.929  -5.267  0.00  0.00     0.197 C 
HETATM   32  O           1     -18.192  -9.188  -4.217  0.00  0.00    -0.646 OA
HETATM   33  O           1     -18.540  -9.529  -6.327  0.00  0.00    -0.646 OA
ENDBRANCH   1  31
TORSDOF 11
ENDMDL
MODEL 4
REMARK VINA RESULT:      -7.6      4.078      8.419
REMARK  11 active torsions:
REMARK  status: ('A' for Active; 'I' for Inactive)
REMARK    1  A    between atoms: O_2  and  P_32 
REMARK    2  A    between atoms: C_3  and  C_6 
REMARK       I    between atoms: C_4  and  N_5 
REMARK    3  A    between atoms: C_4  and  C_18 
REMARK    4  A    between atoms: N_5  and  C_7 
REMARK    5  A    between atoms: C_6  and  C_7 
REMARK    6  A    between atoms: C_7  and  C_13 
REMARK    7  A    between atoms: C_9  and  O_16 
REMARK    8  A    between atoms: O_16  and  P_32 
REMARK    9  A    between atoms: C_18  and  C_24 
REMARK   10  A    between atoms: C_18  and  N_19 
REMARK   11  A    between atoms: C_23  and  C_24 
ROOT
HETATM    1  C           1     -20.698  -8.529  -2.946  0.00  0.00     0.189 C 
ENDROOT
BRANCH   1   2
HETATM    2  N           1     -20.841  -7.095  -3.115  0.00  0.00    -0.344 N 
HETATM    3  C           1     -21.330  -6.590  -4.289  0.00  0.00     0.249 C 
HETATM    4  O           1     -22.519  -6.418  -4.423  0.00  0.00    -0.271 OA
HETATM    5  H           1     -20.578  -6.469  -2.365  0.00  0.00     0.163 HD
BRANCH   3   6
HETATM    6  C           1     -20.387  -6.247  -5.416  0.00  0.00     0.278 C 
BRANCH   6   7
HETATM    7  C           1     -20.420  -4.746  -5.668  0.00  0.00     0.081 C 
BRANCH   7   8
HETATM    8  C           1     -20.848  -4.485  -7.078  0.00  0.00    -0.056 A 
HETATM    9  C           1     -22.196  -4.280  -7.372  0.00  0.00     0.007 A 
HETATM   10  C           1     -22.593  -4.038  -8.687  0.00  0.00     0.001 A 
HETATM   11  C           1     -21.643  -4.000  -9.708  0.00  0.00     0.000 A 
HETATM   12  C           1     -20.296  -4.204  -9.415  0.00  0.00     0.001 A 
HETATM   13  C           1     -19.897  -4.447  -8.099  0.00  0.00     0.007 A 
ENDBRANCH   7   8
ENDBRANCH   6   7
BRANCH   6  14
HETATM   14  N           1     -20.811  -6.972  -6.659  0.00  0.00    -0.066 N 
HETATM   15  H           1     -20.581  -7.987  -6.565  0.00  0.00     0.275 HD
HETATM   16  H           1     -21.841  -6.859  -6.794  0.00  0.00     0.275 HD
HETATM   17  H           1     -20.307  -6.573  -7.483  0.00  0.00     0.275 HD
ENDBRANCH   6  14
ENDBRANCH   3   6
ENDBRANCH   1   2
BRANCH   1  18
HETATM   18  C           1     -19.375  -8.829  -2.255  0.00  0.00     0.074 C 
BRANCH  18  19
HETATM   19  C           1     -18.371  -9.277  -3.270  0.00  0.00    -0.056 A 
HETATM   20  C           1     -17.029  -9.409  -2.912  0.00  0.00     0.010 A 
HETATM   21  C           1     -16.092  -9.826  -3.858  0.00  0.00     0.038 A 
HETATM   22  C           1     -16.497 -10.110  -5.162  0.00  0.00     0.081 A 
HETATM   23  C           1     -17.838  -9.977  -5.520  0.00  0.00     0.038 A 
HETATM   24  C           1     -18.775  -9.560  -4.575  0.00  0.00     0.010 A 
BRANCH  22  25
HETATM   25  O           1     -15.587 -10.514  -6.081  0.00  0.00    -0.247 OA
BRANCH  25  26
HETATM   26  P           1     -15.408 -12.101  -6.324  0.00  0.00     0.411 P 
HETATM   27  O           1     -14.026 -12.378  -6.774  0.00  0.00    -0.624 OA
HETATM   28  O           1     -15.671 -12.827  -5.062  0.00  0.00    -0.624 OA
BRANCH  26  29
HETATM   29  O           1     -16.452 -12.592  -7.455  0.00  0.00    -0.300 OA
HETATM   30  H           1     -17.220 -12.064  -7.323  0.00  0.00     0.223 HD
ENDBRANCH  26  29
ENDBRANCH  25  26
ENDBRANCH  22  25
ENDBRANCH  18  19
ENDBRANCH   1  18
BRANCH   1  31
HETATM   31  C           1     -21.836  -9.051  -2.105  0.00  0.00     0.197 C 
HETATM   32  O           1     -22.245  -8.390  -1.125  0.00  0.00    -0.646 OA
HETATM   33  O           1     -22.370 -10.146  -2.386  0.00  0.00    -0.646 OA
ENDBRANCH   1  31
TORSDOF 11
ENDMDL
MODEL 5
REMARK VINA RESULT:      -7.6     13.295     15.574
REMARK  11 active torsions:
REMARK  status: ('A' for Active; 'I' for Inactive)
REMARK    1  A    between atoms: O_2  and  P_32 
REMARK    2  A    between atoms: C_3  and  C_6 
REMARK       I    between atoms: C_4  and  N_5 
REMARK    3  A    between atoms: C_4  and  C_18 
REMARK    4  A    between atoms: N_5  and  C_7 
REMARK    5  A    between atoms: C_6  and  C_7 
REMARK    6  A    between atoms: C_7  and  C_13 
REMARK    7  A    between atoms: C_9  and  O_16 
REMARK    8  A    between atoms: O_16  and  P_32 
REMARK    9  A    between atoms: C_18  and  C_24 
REMARK   10  A    between atoms: C_18  and  N_19 
REMARK   11  A    between atoms: C_23  and  C_24 
ROOT
HETATM    1  C           1     -32.321  -4.688 -16.476  0.00  0.00     0.189 C 
ENDROOT
BRANCH   1   2
HETATM    2  N           1     -33.757  -4.860 -16.372  0.00  0.00    -0.344 N 
HETATM    3  C           1     -34.484  -4.057 -15.536  0.00  0.00     0.249 C 
HETATM    4  O           1     -34.944  -3.017 -15.946  0.00  0.00    -0.271 OA
HETATM    5  H           1     -34.222  -5.575 -16.918  0.00  0.00     0.163 HD
BRANCH   3   6
HETATM    6  C           1     -34.712  -4.468 -14.102  0.00  0.00     0.278 C 
BRANCH   6   7
HETATM    7  C           1     -33.521  -4.041 -13.255  0.00  0.00     0.081 C 
BRANCH   7   8
HETATM    8  C           1     -33.979  -3.090 -12.192  0.00  0.00    -0.056 A 
HETATM    9  C           1     -33.262  -2.976 -11.002  0.00  0.00     0.007 A 
HETATM   10  C           1     -33.689  -2.090 -10.013  0.00  0.00     0.001 A 
HETATM   11  C           1     -34.834  -1.319 -10.214  0.00  0.00     0.000 A 
HETATM   12  C           1     -35.552  -1.433 -11.404  0.00  0.00     0.001 A 
HETATM   13  C           1     -35.125  -2.319 -12.394  0.00  0.00     0.007 A 
ENDBRANCH   7   8
ENDBRANCH   6   7
BRANCH   6  14
HETATM   14  N           1     -34.867  -5.959 -14.030  0.00  0.00    -0.066 N 
HETATM   15  H           1     -35.572  -6.200 -13.298  0.00  0.00     0.275 HD
HETATM   16  H           1     -35.188  -6.321 -14.956  0.00  0.00     0.275 HD
HETATM   17  H           1     -33.948  -6.393 -13.787  0.00  0.00     0.275 HD
ENDBRANCH   6  14
ENDBRANCH   3   6
ENDBRANCH   1   2
BRANCH   1  18
HETATM   18  C           1     -31.711  -5.909 -17.149  0.00  0.00     0.074 C 
BRANCH  18  19
HETATM   19  C           1     -30.219  -5.841 -17.052  0.00  0.00    -0.056 A 
HETATM   20  C           1     -29.612  -5.579 -15.824  0.00  0.00     0.010 A 
HETATM   21  C           1     -28.221  -5.515 -15.733  0.00  0.00     0.038 A 
HETATM   22  C           1     -27.437  -5.712 -16.870  0.00  0.00     0.081 A 
HETATM   23  C           1     -28.045  -5.972 -18.098  0.00  0.00     0.038 A 
HETATM   24  C           1     -29.435  -6.036 -18.190  0.00  0.00     0.010 A 
BRANCH  22  25
HETATM   25  O           1     -26.087  -5.649 -16.782  0.00  0.00    -0.247 OA
BRANCH  25  26
HETATM   26  P           1     -25.334  -6.747 -15.869  0.00  0.00     0.411 P 
HETATM   27  O           1     -26.313  -7.754 -15.401  0.00  0.00    -0.624 OA
HETATM   28  O           1     -24.282  -7.416 -16.667  0.00  0.00    -0.624 OA
BRANCH  26  29
HETATM   29  O           1     -24.661  -6.017 -14.596  0.00  0.00    -0.300 OA
HETATM   30  H           1     -25.081  -5.175 -14.547  0.00  0.00     0.223 HD
ENDBRANCH  26  29
ENDBRANCH  25  26
ENDBRANCH  22  25
ENDBRANCH  18  19
ENDBRANCH   1  18
BRANCH   1  31
HETATM   31  C           1     -32.021  -3.458 -17.297  0.00  0.00     0.197 C 
HETATM   32  O           1     -30.876  -2.956 -17.277  0.00  0.00    -0.646 OA
HETATM   33  O           1     -32.917  -2.939 -17.997  0.00  0.00    -0.646 OA
ENDBRANCH   1  31
TORSDOF 11
ENDMDL
MODEL 6
REMARK VINA RESULT:      -7.5      3.954      9.319
REMARK  11 active torsions:
REMARK  status: ('A' for Active; 'I' for Inactive)
REMARK    1  A    between atoms: O_2  and  P_32 
REMARK    2  A    between atoms: C_3  and  C_6 
REMARK       I    between atoms: C_4  and  N_5 
REMARK    3  A    between atoms: C_4  and  C_18 
REMARK    4  A    between atoms: N_5  and  C_7 
REMARK    5  A    between atoms: C_6  and  C_7 
REMARK    6  A    between atoms: C_7  and  C_13 
REMARK    7  A    between atoms: C_9  and  O_16 
REMARK    8  A    between atoms: O_16  and  P_32 
REMARK    9  A    between atoms: C_18  and  C_24 
REMARK   10  A    between atoms: C_18  and  N_19 
REMARK   11  A    between atoms: C_23  and  C_24 
ROOT
HETATM    1  C           1     -21.733  -7.734  -5.035  0.00  0.00     0.189 C 
ENDROOT
BRANCH   1   2
HETATM    2  N           1     -21.314  -7.413  -6.385  0.00  0.00    -0.344 N 
HETATM    3  C           1     -20.241  -6.588  -6.590  0.00  0.00     0.249 C 
HETATM    4  O           1     -19.130  -7.055  -6.682  0.00  0.00    -0.271 OA
HETATM    5  H           1     -21.816  -7.797  -7.176  0.00  0.00     0.163 HD
BRANCH   3   6
HETATM    6  C           1     -20.444  -5.097  -6.703  0.00  0.00     0.278 C 
BRANCH   6   7
HETATM    7  C           1     -19.719  -4.577  -7.936  0.00  0.00     0.081 C 
BRANCH   7   8
HETATM    8  C           1     -20.702  -4.376  -9.047  0.00  0.00    -0.056 A 
HETATM    9  C           1     -22.053  -4.182  -8.756  0.00  0.00     0.007 A 
HETATM   10  C           1     -22.969  -3.995  -9.792  0.00  0.00     0.001 A 
HETATM   11  C           1     -22.534  -4.002 -11.117  0.00  0.00     0.000 A 
HETATM   12  C           1     -21.185  -4.195 -11.408  0.00  0.00     0.001 A 
HETATM   13  C           1     -20.268  -4.383 -10.373  0.00  0.00     0.007 A 
ENDBRANCH   7   8
ENDBRANCH   6   7
BRANCH   6  14
HETATM   14  N           1     -19.894  -4.426  -5.479  0.00  0.00    -0.066 N 
HETATM   15  H           1     -19.780  -3.404  -5.665  0.00  0.00     0.275 HD
HETATM   16  H           1     -20.553  -4.564  -4.680  0.00  0.00     0.275 HD
HETATM   17  H           1     -18.966  -4.843  -5.241  0.00  0.00     0.275 HD
ENDBRANCH   6  14
ENDBRANCH   3   6
ENDBRANCH   1   2
BRANCH   1  18
HETATM   18  C           1     -20.517  -8.119  -4.204  0.00  0.00     0.074 C 
BRANCH  18  19
HETATM   19  C           1     -20.885  -9.218  -3.257  0.00  0.00    -0.056 A 
HETATM   20  C           1     -20.417  -9.191  -1.943  0.00  0.00     0.010 A 
HETATM   21  C           1     -20.760 -10.215  -1.060  0.00  0.00     0.038 A 
HETATM   22  C           1     -21.570 -11.266  -1.490  0.00  0.00     0.081 A 
HETATM   23  C           1     -22.036 -11.293  -2.805  0.00  0.00     0.038 A 
HETATM   24  C           1     -21.694 -10.269  -3.688  0.00  0.00     0.010 A 
BRANCH  22  25
HETATM   25  O           1     -21.902 -12.261  -0.633  0.00  0.00    -0.247 OA
BRANCH  25  26
HETATM   26  P           1     -23.421 -12.316  -0.087  0.00  0.00     0.411 P 
HETATM   27  O           1     -24.242 -13.147  -0.996  0.00  0.00    -0.624 OA
HETATM   28  O           1     -23.436 -12.907   1.270  0.00  0.00    -0.624 OA
BRANCH  26  29
HETATM   29  O           1     -24.026 -10.820  -0.030  0.00  0.00    -0.300 OA
HETATM   30  H           1     -23.924 -10.550   0.866  0.00  0.00     0.223 HD
ENDBRANCH  26  29
ENDBRANCH  25  26
ENDBRANCH  22  25
ENDBRANCH  18  19
ENDBRANCH   1  18
BRANCH   1  31
HETATM   31  C           1     -22.405  -6.532  -4.417  0.00  0.00     0.197 C 
HETATM   32  O           1     -21.889  -5.966  -3.429  0.00  0.00    -0.646 OA
HETATM   33  O           1     -23.479  -6.104  -4.893  0.00  0.00    -0.646 OA
ENDBRANCH   1  31
TORSDOF 11
ENDMDL
MODEL 7
REMARK VINA RESULT:      -7.5      5.743      8.888
REMARK  11 active torsions:
REMARK  status: ('A' for Active; 'I' for Inactive)
REMARK    1  A    between atoms: O_2  and  P_32 
REMARK    2  A    between atoms: C_3  and  C_6 
REMARK       I    between atoms: C_4  and  N_5 
REMARK    3  A    between atoms: C_4  and  C_18 
REMARK    4  A    between atoms: N_5  and  C_7 
REMARK    5  A    between atoms: C_6  and  C_7 
REMARK    6  A    between atoms: C_7  and  C_13 
REMARK    7  A    between atoms: C_9  and  O_16 
REMARK    8  A    between atoms: O_16  and  P_32 
REMARK    9  A    between atoms: C_18  and  C_24 
REMARK   10  A    between atoms: C_18  and  N_19 
REMARK   11  A    between atoms: C_23  and  C_24 
ROOT
HETATM    1  C           1     -21.646 -11.594  -4.370  0.00  0.00     0.189 C 
ENDROOT
BRANCH   1   2
HETATM    2  N           1     -20.755 -10.520  -4.766  0.00  0.00    -0.344 N 
HETATM    3  C           1     -19.489 -10.456  -4.250  0.00  0.00     0.249 C 
HETATM    4  O           1     -18.578 -11.013  -4.817  0.00  0.00    -0.271 OA
HETATM    5  H           1     -21.070  -9.818  -5.423  0.00  0.00     0.163 HD
BRANCH   3   6
HETATM    6  C           1     -19.230  -9.692  -2.975  0.00  0.00     0.278 C 
BRANCH   6   7
HETATM    7  C           1     -20.065  -8.419  -2.967  0.00  0.00     0.081 C 
BRANCH   7   8
HETATM    8  C           1     -20.851  -8.346  -1.695  0.00  0.00    -0.056 A 
HETATM    9  C           1     -20.555  -9.210  -0.641  0.00  0.00     0.007 A 
HETATM   10  C           1     -21.288  -9.141   0.544  0.00  0.00     0.001 A 
HETATM   11  C           1     -22.317  -8.208   0.675  0.00  0.00     0.000 A 
HETATM   12  C           1     -22.613  -7.344  -0.378  0.00  0.00     0.001 A 
HETATM   13  C           1     -21.880  -7.412  -1.564  0.00  0.00     0.007 A 
ENDBRANCH   7   8
ENDBRANCH   6   7
BRANCH   6  14
HETATM   14  N           1     -17.775  -9.335  -2.895  0.00  0.00    -0.066 N 
HETATM   15  H           1     -17.306  -9.943  -2.186  0.00  0.00     0.275 HD
HETATM   16  H           1     -17.328  -9.481  -3.829  0.00  0.00     0.275 HD
HETATM   17  H           1     -17.677  -8.333  -2.617  0.00  0.00     0.275 HD
ENDBRANCH   6  14
ENDBRANCH   3   6
ENDBRANCH   1   2
BRANCH   1  18
HETATM   18  C           1     -22.825 -11.016  -3.599  0.00  0.00     0.074 C 
BRANCH  18  19
HETATM   19  C           1     -22.824 -11.560  -2.204  0.00  0.00    -0.056 A 
HETATM   20  C           1     -23.836 -11.197  -1.315  0.00  0.00     0.010 A 
HETATM   21  C           1     -23.836 -11.704  -0.015  0.00  0.00     0.038 A 
HETATM   22  C           1     -22.824 -12.571   0.397  0.00  0.00     0.081 A 
HETATM   23  C           1     -21.812 -12.932  -0.493  0.00  0.00     0.038 A 
HETATM   24  C           1     -21.812 -12.427  -1.793  0.00  0.00     0.010 A 
BRANCH  22  25
HETATM   25  O           1     -22.823 -13.062   1.659  0.00  0.00    -0.247 OA
BRANCH  25  26
HETATM   26  P           1     -23.254 -14.604   1.874  0.00  0.00     0.411 P 
HETATM   27  O           1     -24.037 -14.728   3.124  0.00  0.00    -0.624 OA
HETATM   28  O           1     -24.080 -15.050   0.729  0.00  0.00    -0.624 OA
BRANCH  26  29
HETATM   29  O           1     -21.930 -15.523   1.973  0.00  0.00    -0.300 OA
HETATM   30  H           1     -22.242 -16.408   1.906  0.00  0.00     0.223 HD
ENDBRANCH  26  29
ENDBRANCH  25  26
ENDBRANCH  22  25
ENDBRANCH  18  19
ENDBRANCH   1  18
BRANCH   1  31
HETATM   31  C           1     -22.150 -12.308  -5.600  0.00  0.00     0.197 C 
HETATM   32  O           1     -21.628 -12.081  -6.714  0.00  0.00    -0.646 OA
HETATM   33  O           1     -23.091 -13.125  -5.507  0.00  0.00    -0.646 OA
ENDBRANCH   1  31
TORSDOF 11
ENDMDL
MODEL 8
REMARK VINA RESULT:      -7.5      1.584      2.806
REMARK  11 active torsions:
REMARK  status: ('A' for Active; 'I' for Inactive)
REMARK    1  A    between atoms: O_2  and  P_32 
REMARK    2  A    between atoms: C_3  and  C_6 
REMARK       I    between atoms: C_4  and  N_5 
REMARK    3  A    between atoms: C_4  and  C_18 
REMARK    4  A    between atoms: N_5  and  C_7 
REMARK    5  A    between atoms: C_6  and  C_7 
REMARK    6  A    between atoms: C_7  and  C_13 
REMARK    7  A    between atoms: C_9  and  O_16 
REMARK    8  A    between atoms: O_16  and  P_32 
REMARK    9  A    between atoms: C_18  and  C_24 
REMARK   10  A    between atoms: C_18  and  N_19 
REMARK   11  A    between atoms: C_23  and  C_24 
ROOT
HETATM    1  C           1     -20.673  -7.076  -4.258  0.00  0.00     0.189 C 
ENDROOT
BRANCH   1   2
HETATM    2  N           1     -19.982  -8.343  -4.113  0.00  0.00    -0.344 N 
HETATM    3  C           1     -20.398  -9.435  -4.825  0.00  0.00     0.249 C 
HETATM    4  O           1     -19.934  -9.654  -5.919  0.00  0.00    -0.271 OA
HETATM    5  H           1     -19.193  -8.420  -3.483  0.00  0.00     0.163 HD
BRANCH   3   6
HETATM    6  C           1     -21.436 -10.365  -4.246  0.00  0.00     0.278 C 
BRANCH   6   7
HETATM    7  C           1     -20.950 -10.897  -2.905  0.00  0.00     0.081 C 
BRANCH   7   8
HETATM    8  C           1     -22.076 -10.871  -1.919  0.00  0.00    -0.056 A 
HETATM    9  C           1     -23.035 -11.884  -1.928  0.00  0.00     0.007 A 
HETATM   10  C           1     -24.084 -11.859  -1.009  0.00  0.00     0.001 A 
HETATM   11  C           1     -24.174 -10.820  -0.081  0.00  0.00     0.000 A 
HETATM   12  C           1     -23.216  -9.808  -0.072  0.00  0.00     0.001 A 
HETATM   13  C           1     -22.166  -9.832  -0.992  0.00  0.00     0.007 A 
ENDBRANCH   7   8
ENDBRANCH   6   7
BRANCH   6  14
HETATM   14  N           1     -21.658 -11.511  -5.188  0.00  0.00    -0.066 N 
HETATM   15  H           1     -22.673 -11.760  -5.200  0.00  0.00     0.275 HD
HETATM   16  H           1     -21.355 -11.236  -6.150  0.00  0.00     0.275 HD
HETATM   17  H           1     -21.100 -12.336  -4.871  0.00  0.00     0.275 HD
ENDBRANCH   6  14
ENDBRANCH   3   6
ENDBRANCH   1   2
BRANCH   1  18
HETATM   18  C           1     -21.764  -7.211  -5.310  0.00  0.00     0.074 C 
BRANCH  18  19
HETATM   19  C           1     -21.571  -6.170  -6.369  0.00  0.00    -0.056 A 
HETATM   20  C           1     -22.564  -5.218  -6.600  0.00  0.00     0.010 A 
HETATM   21  C           1     -22.384  -4.248  -7.587  0.00  0.00     0.038 A 
HETATM   22  C           1     -21.211  -4.230  -8.342  0.00  0.00     0.081 A 
HETATM   23  C           1     -20.219  -5.183  -8.110  0.00  0.00     0.038 A 
HETATM   24  C           1     -20.399  -6.152  -7.124  0.00  0.00     0.010 A 
BRANCH  22  25
HETATM   25  O           1     -21.037  -3.289  -9.300  0.00  0.00    -0.247 OA
BRANCH  25  26
HETATM   26  P           1     -21.355  -3.696 -10.830  0.00  0.00     0.411 P 
HETATM   27  O           1     -22.363  -4.779 -10.853  0.00  0.00    -0.624 OA
HETATM   28  O           1     -21.880  -2.518 -11.556  0.00  0.00    -0.624 OA
BRANCH  26  29
HETATM   29  O           1     -19.999  -4.207 -11.542  0.00  0.00    -0.300 OA
HETATM   30  H           1     -20.008  -3.810 -12.396  0.00  0.00     0.223 HD
ENDBRANCH  26  29
ENDBRANCH  25  26
ENDBRANCH  22  25
ENDBRANCH  18  19
ENDBRANCH   1  18
BRANCH   1  31
HETATM   31  C           1     -21.291  -6.686  -2.938  0.00  0.00     0.197 C 
HETATM   32  O           1     -20.779  -7.080  -1.867  0.00  0.00    -0.646 OA
HETATM   33  O           1     -22.315  -5.971  -2.914  0.00  0.00    -0.646 OA
ENDBRANCH   1  31
TORSDOF 11
ENDMDL
MODEL 9
REMARK VINA RESULT:      -7.4      3.791      7.960
REMARK  11 active torsions:
REMARK  status: ('A' for Active; 'I' for Inactive)
REMARK    1  A    between atoms: O_2  and  P_32 
REMARK    2  A    between atoms: C_3  and  C_6 
REMARK       I    between atoms: C_4  and  N_5 
REMARK    3  A    between atoms: C_4  and  C_18 
REMARK    4  A    between atoms: N_5  and  C_7 
REMARK    5  A    between atoms: C_6  and  C_7 
REMARK    6  A    between atoms: C_7  and  C_13 
REMARK    7  A    between atoms: C_9  and  O_16 
REMARK    8  A    between atoms: O_16  and  P_32 
REMARK    9  A    between atoms: C_18  and  C_24 
REMARK   10  A    between atoms: C_18  and  N_19 
REMARK   11  A    between atoms: C_23  and  C_24 
ROOT
HETATM    1  C           1     -21.415  -7.797  -2.434  0.00  0.00     0.189 C 
ENDROOT
BRANCH   1   2
HETATM    2  N           1     -21.435  -6.451  -2.973  0.00  0.00    -0.344 N 
HETATM    3  C           1     -21.688  -6.250  -4.303  0.00  0.00     0.249 C 
HETATM    4  O           1     -22.824  -6.094  -4.685  0.00  0.00    -0.271 OA
HETATM    5  H           1     -21.262  -5.660  -2.366  0.00  0.00     0.163 HD
BRANCH   3   6
HETATM    6  C           1     -20.549  -6.223  -5.293  0.00  0.00     0.278 C 
BRANCH   6   7
HETATM    7  C           1     -20.238  -4.782  -5.672  0.00  0.00     0.081 C 
BRANCH   7   8
HETATM    8  C           1     -20.677  -4.529  -7.081  0.00  0.00    -0.056 A 
HETATM    9  C           1     -21.978  -4.098  -7.339  0.00  0.00     0.007 A 
HETATM   10  C           1     -22.387  -3.863  -8.652  0.00  0.00     0.001 A 
HETATM   11  C           1     -21.494  -4.059  -9.706  0.00  0.00     0.000 A 
HETATM   12  C           1     -20.194  -4.489  -9.448  0.00  0.00     0.001 A 
HETATM   13  C           1     -19.785  -4.725  -8.135  0.00  0.00     0.007 A 
ENDBRANCH   7   8
ENDBRANCH   6   7
BRANCH   6  14
HETATM   14  N           1     -20.939  -6.990  -6.522  0.00  0.00    -0.066 N 
HETATM   15  H           1     -20.106  -7.498  -6.894  0.00  0.00     0.275 HD
HETATM   16  H           1     -21.688  -7.678  -6.281  0.00  0.00     0.275 HD
HETATM   17  H           1     -21.297  -6.327  -7.247  0.00  0.00     0.275 HD
ENDBRANCH   6  14
ENDBRANCH   3   6
ENDBRANCH   1   2
BRANCH   1  18
HETATM   18  C           1     -19.975  -8.220  -2.180  0.00  0.00     0.074 C 
BRANCH  18  19
HETATM   19  C           1     -19.605  -9.325  -3.120  0.00  0.00    -0.056 A 
HETATM   20  C           1     -18.707  -9.083  -4.159  0.00  0.00     0.010 A 
HETATM   21  C           1     -18.362 -10.112  -5.036  0.00  0.00     0.038 A 
HETATM   22  C           1     -18.915 -11.383  -4.874  0.00  0.00     0.081 A 
HETATM   23  C           1     -19.814 -11.623  -3.834  0.00  0.00     0.038 A 
HETATM   24  C           1     -20.159 -10.595  -2.958  0.00  0.00     0.010 A 
BRANCH  22  25
HETATM   25  O           1     -18.580 -12.381  -5.725  0.00  0.00    -0.247 OA
BRANCH  25  26
HETATM   26  P           1     -19.502 -12.605  -7.032  0.00  0.00     0.411 P 
HETATM   27  O           1     -18.701 -12.352  -8.250  0.00  0.00    -0.624 OA
HETATM   28  O           1     -20.003 -13.997  -7.051  0.00  0.00    -0.624 OA
BRANCH  26  29
HETATM   29  O           1     -20.752 -11.583  -6.988  0.00  0.00    -0.300 OA
HETATM   30  H           1     -21.044 -11.592  -6.093  0.00  0.00     0.223 HD
ENDBRANCH  26  29
ENDBRANCH  25  26
ENDBRANCH  22  25
ENDBRANCH  18  19
ENDBRANCH   1  18
BRANCH   1  31
HETATM   31  C           1     -22.187  -7.831  -1.138  0.00  0.00     0.197 C 
HETATM   32  O           1     -22.307  -8.905  -0.508  0.00  0.00    -0.646 OA
HETATM   33  O           1     -22.707  -6.785  -0.692  0.00  0.00    -0.646 OA
ENDBRANCH   1  31
TORSDOF 11
ENDMDL
