MODEL 1
REMARK VINA RESULT:      -6.2      0.000      0.000
REMARK  9 active torsions:
REMARK  status: ('A' for Active; 'I' for Inactive)
REMARK    1  A    between atoms: C_4  and  C_25 
REMARK    2  A    between atoms: C_4  and  C_5 
REMARK    3  A    between atoms: C_5  and  Se_6 
REMARK    4  A    between atoms: N_8  and  C_25 
REMARK    5  A    between atoms: C_12  and  C_13 
REMARK    6  A    between atoms: C_12  and  C_17 
REMARK    7  A    between atoms: C_13  and  C_15 
REMARK    8  A    between atoms: C_13  and  N_23 
REMARK       I    between atoms: N_23  and  C_24 
REMARK    9  A    between atoms: C_24  and  C_25 
ROOT
HETATM    1  O           1     -32.926  -1.892 -10.819  0.00  0.00    -0.271 OA
HETATM    2  H           1     -35.447  -1.535  -9.587  0.00  0.00     0.163 HD
HETATM    3  N           1     -35.107  -1.505 -10.539  0.00  0.00    -0.344 N 
HETATM    4  C           1     -34.058  -2.300 -10.916  0.00  0.00     0.249 C 
ENDROOT
BRANCH   3   5
HETATM    5  C           1     -35.731  -0.622 -11.505  0.00  0.00     0.191 C 
BRANCH   5   6
HETATM    6  C           1     -35.805  -1.320 -12.857  0.00  0.00     0.094 C 
BRANCH   6   7
HETATM    7  C           1     -35.866  -0.296 -13.947  0.00  0.00     0.028 A 
HETATM    8  C           1     -37.002   0.036 -14.644  0.00  0.00     0.114 A 
HETATM    9  N           1     -36.606   1.000 -15.530  0.00  0.00    -0.360 N 
HETATM   10  H           1     -37.217   1.488 -16.231  0.00  0.00     0.166 HD
HETATM   11  C           1     -35.270   1.209 -15.338  0.00  0.00     0.180 A 
HETATM   12  N           1     -34.795   0.438 -14.386  0.00  0.00    -0.354 N 
ATOM     13  HN          1     -33.834   0.396 -14.046  1.00  0.00     0.166 HD
ENDBRANCH   6   7
ENDBRANCH   5   6
BRANCH   5  14
HETATM   14  C           1     -37.124  -0.274 -11.041  0.00  0.00     0.197 C 
HETATM   15  O           1     -37.326   0.787 -10.411  0.00  0.00    -0.646 OA
HETATM   16  O           1     -38.075  -1.047 -11.285  0.00  0.00    -0.646 OA
ENDBRANCH   5  14
ENDBRANCH   3   5
BRANCH   4  17
HETATM   17  C           1     -34.317  -3.688 -11.451  0.00  0.00     0.274 C 
BRANCH  17  18
HETATM   18  C           1     -34.194  -4.700 -10.319  0.00  0.00     0.042 C 
BRANCH  18  19
HETATM   19  C           1     -33.998  -6.094 -10.901  0.00  0.00     0.003 C 
BRANCH  19  20
HETATM   20 Se           1     -34.986  -7.390  -9.833  0.00  0.00     0.000 Se
HETATM   21  C           1     -33.688  -8.824 -10.077  0.00  0.00     0.000 C 
ENDBRANCH  19  20
ENDBRANCH  18  19
ENDBRANCH  17  18
BRANCH  17  22
HETATM   22  N           1     -33.311  -4.007 -12.516  0.00  0.00    -0.067 N 
HETATM   23  H           1     -32.379  -4.178 -12.076  0.00  0.00     0.275 HD
HETATM   24  H           1     -33.240  -3.204 -13.180  0.00  0.00     0.275 HD
HETATM   25  H           1     -33.612  -4.863 -13.036  0.00  0.00     0.275 HD
ENDBRANCH  17  22
ENDBRANCH   4  17
TORSDOF 9
ENDMDL
MODEL 2
REMARK VINA RESULT:      -5.8     13.501     15.783
REMARK  9 active torsions:
REMARK  status: ('A' for Active; 'I' for Inactive)
REMARK    1  A    between atoms: C_4  and  C_25 
REMARK    2  A    between atoms: C_4  and  C_5 
REMARK    3  A    between atoms: C_5  and  Se_6 
REMARK    4  A    between atoms: N_8  and  C_25 
REMARK    5  A    between atoms: C_12  and  C_13 
REMARK    6  A    between atoms: C_12  and  C_17 
REMARK    7  A    between atoms: C_13  and  C_15 
REMARK    8  A    between atoms: C_13  and  N_23 
REMARK       I    between atoms: N_23  and  C_24 
REMARK    9  A    between atoms: C_24  and  C_25 
ROOT
HETATM    1  O           1     -23.508  -6.064  -5.001  0.00  0.00    -0.271 OA
HETATM    2  H           1     -21.881  -7.847  -6.477  0.00  0.00     0.163 HD
HETATM    3  N           1     -21.841  -6.861  -6.254  0.00  0.00    -0.344 N 
HETATM    4  C           1     -22.351  -6.405  -5.069  0.00  0.00     0.249 C 
ENDROOT
BRANCH   3   5
HETATM    5  C           1     -21.242  -5.930  -7.192  0.00  0.00     0.191 C 
BRANCH   5   6
HETATM    6  C           1     -21.833  -4.543  -6.976  0.00  0.00     0.094 C 
BRANCH   6   7
HETATM    7  C           1     -22.592  -4.127  -8.197  0.00  0.00     0.028 A 
HETATM    8  C           1     -22.028  -3.909  -9.430  0.00  0.00     0.114 A 
HETATM    9  N           1     -23.072  -3.550 -10.239  0.00  0.00    -0.360 N 
HETATM   10  H           1     -23.012  -3.308 -11.259  0.00  0.00     0.166 HD
HETATM   11  C           1     -24.205  -3.565  -9.476  0.00  0.00     0.180 A 
HETATM   12  N           1     -23.945  -3.910  -8.236  0.00  0.00    -0.354 N 
ATOM     13  HN          1     -24.609  -3.999  -7.466  1.00  0.00     0.166 HD
ENDBRANCH   6   7
ENDBRANCH   5   6
BRANCH   5  14
HETATM   14  C           1     -19.751  -5.883  -6.969  0.00  0.00     0.197 C 
HETATM   15  O           1     -19.151  -4.786  -6.982  0.00  0.00    -0.646 OA
HETATM   16  O           1     -19.115  -6.941  -6.773  0.00  0.00    -0.646 OA
ENDBRANCH   5  14
ENDBRANCH   3   5
BRANCH   4  17
HETATM   17  C           1     -21.469  -6.330  -3.846  0.00  0.00     0.274 C 
BRANCH  17  18
HETATM   18  C           1     -20.791  -7.676  -3.626  0.00  0.00     0.042 C 
BRANCH  18  19
HETATM   19  C           1     -21.383  -8.348  -2.394  0.00  0.00     0.003 C 
BRANCH  19  20
HETATM   20 Se           1     -20.194  -9.772  -1.795  0.00  0.00     0.000 Se
HETATM   21  C           1     -21.104 -10.037  -0.091  0.00  0.00     0.000 C 
ENDBRANCH  19  20
ENDBRANCH  18  19
ENDBRANCH  17  18
BRANCH  17  22
HETATM   22  N           1     -22.305  -5.991  -2.648  0.00  0.00    -0.067 N 
HETATM   23  H           1     -22.012  -5.062  -2.270  0.00  0.00     0.275 HD
HETATM   24  H           1     -22.175  -6.723  -1.914  0.00  0.00     0.275 HD
HETATM   25  H           1     -23.312  -5.951  -2.925  0.00  0.00     0.275 HD
ENDBRANCH  17  22
ENDBRANCH   4  17
TORSDOF 9
ENDMDL
MODEL 3
REMARK VINA RESULT:      -5.7     15.284     17.639
REMARK  9 active torsions:
REMARK  status: ('A' for Active; 'I' for Inactive)
REMARK    1  A    between atoms: C_4  and  C_25 
REMARK    2  A    between atoms: C_4  and  C_5 
REMARK    3  A    between atoms: C_5  and  Se_6 
REMARK    4  A    between atoms: N_8  and  C_25 
REMARK    5  A    between atoms: C_12  and  C_13 
REMARK    6  A    between atoms: C_12  and  C_17 
REMARK    7  A    between atoms: C_13  and  C_15 
REMARK    8  A    between atoms: C_13  and  N_23 
REMARK       I    between atoms: N_23  and  C_24 
REMARK    9  A    between atoms: C_24  and  C_25 
ROOT
HETATM    1  O           1     -19.657  -6.524  -7.418  0.00  0.00    -0.271 OA
HETATM    2  H           1     -21.839  -8.015  -6.409  0.00  0.00     0.163 HD
HETATM    3  N           1     -21.036  -7.558  -5.998  0.00  0.00    -0.344 N 
HETATM    4  C           1     -20.519  -6.430  -6.577  0.00  0.00     0.249 C 
ENDROOT
BRANCH   3   5
HETATM    5  C           1     -20.431  -8.098  -4.796  0.00  0.00     0.191 C 
BRANCH   5   6
HETATM    6  C           1     -21.517  -8.670  -3.895  0.00  0.00     0.094 C 
BRANCH   6   7
HETATM    7  C           1     -21.823  -7.697  -2.799  0.00  0.00     0.028 A 
HETATM    8  C           1     -22.012  -6.349  -2.982  0.00  0.00     0.114 A 
HETATM    9  N           1     -22.262  -5.853  -1.732  0.00  0.00    -0.360 N 
HETATM   10  H           1     -22.454  -4.849  -1.489  0.00  0.00     0.166 HD
HETATM   11  C           1     -22.215  -6.901  -0.858  0.00  0.00     0.180 A 
HETATM   12  N           1     -21.951  -8.030  -1.476  0.00  0.00    -0.354 N 
ATOM     13  HN          1     -21.861  -8.957  -1.059  1.00  0.00     0.166 HD
ENDBRANCH   6   7
ENDBRANCH   5   6
BRANCH   5  14
HETATM   14  C           1     -19.459  -9.190  -5.169  0.00  0.00     0.197 C 
HETATM   15  O           1     -19.829 -10.133  -5.902  0.00  0.00    -0.646 OA
HETATM   16  O           1     -18.284  -9.152  -4.744  0.00  0.00    -0.646 OA
ENDBRANCH   5  14
ENDBRANCH   3   5
BRANCH   4  17
HETATM   17  C           1     -21.029  -5.070  -6.167  0.00  0.00     0.274 C 
BRANCH  17  18
HETATM   18  C           1     -21.181  -4.191  -7.401  0.00  0.00     0.042 C 
BRANCH  18  19
HETATM   19  C           1     -22.592  -4.335  -7.958  0.00  0.00     0.003 C 
BRANCH  19  20
HETATM   20 Se           1     -22.536  -4.243  -9.904  0.00  0.00     0.000 Se
HETATM   21  C           1     -20.591  -4.308 -10.014  0.00  0.00     0.000 C 
ENDBRANCH  19  20
ENDBRANCH  18  19
ENDBRANCH  17  18
BRANCH  17  22
HETATM   22  N           1     -20.052  -4.437  -5.220  0.00  0.00    -0.067 N 
HETATM   23  H           1     -19.563  -5.181  -4.673  0.00  0.00     0.275 HD
HETATM   24  H           1     -20.563  -3.803  -4.566  0.00  0.00     0.275 HD
HETATM   25  H           1     -19.349  -3.885  -5.762  0.00  0.00     0.275 HD
ENDBRANCH  17  22
ENDBRANCH   4  17
TORSDOF 9
ENDMDL
MODEL 4
REMARK VINA RESULT:      -5.6     15.043     18.272
REMARK  9 active torsions:
REMARK  status: ('A' for Active; 'I' for Inactive)
REMARK    1  A    between atoms: C_4  and  C_25 
REMARK    2  A    between atoms: C_4  and  C_5 
REMARK    3  A    between atoms: C_5  and  Se_6 
REMARK    4  A    between atoms: N_8  and  C_25 
REMARK    5  A    between atoms: C_12  and  C_13 
REMARK    6  A    between atoms: C_12  and  C_17 
REMARK    7  A    between atoms: C_13  and  C_15 
REMARK    8  A    between atoms: C_13  and  N_23 
REMARK       I    between atoms: N_23  and  C_24 
REMARK    9  A    between atoms: C_24  and  C_25 
ROOT
HETATM    1  O           1     -22.767  -6.154  -4.588  0.00  0.00    -0.271 OA
HETATM    2  H           1     -21.064  -5.715  -2.371  0.00  0.00     0.163 HD
HETATM    3  N           1     -21.319  -6.521  -2.928  0.00  0.00    -0.344 N 
HETATM    4  C           1     -21.626  -6.368  -4.253  0.00  0.00     0.249 C 
ENDROOT
BRANCH   3   5
HETATM    5  C           1     -21.359  -7.837  -2.321  0.00  0.00     0.191 C 
BRANCH   5   6
HETATM    6  C           1     -19.947  -8.267  -1.947  0.00  0.00     0.094 C 
BRANCH   6   7
HETATM    7  C           1     -19.409  -9.188  -2.997  0.00  0.00     0.028 A 
HETATM    8  C           1     -18.075  -9.447  -3.199  0.00  0.00     0.114 A 
HETATM    9  N           1     -18.039 -10.329  -4.244  0.00  0.00    -0.360 N 
HETATM   10  H           1     -17.178 -10.748  -4.674  0.00  0.00     0.166 HD
HETATM   11  C           1     -19.329 -10.563  -4.627  0.00  0.00     0.180 A 
HETATM   12  N           1     -20.179  -9.886  -3.890  0.00  0.00    -0.354 N 
ATOM     13  HN          1     -21.197  -9.881  -3.965  1.00  0.00     0.166 HD
ENDBRANCH   6   7
ENDBRANCH   5   6
BRANCH   5  14
HETATM   14  C           1     -22.217  -7.792  -1.081  0.00  0.00     0.197 C 
HETATM   15  O           1     -22.410  -8.833  -0.415  0.00  0.00    -0.646 OA
HETATM   16  O           1     -22.737  -6.715  -0.720  0.00  0.00    -0.646 OA
ENDBRANCH   5  14
ENDBRANCH   3   5
BRANCH   4  17
HETATM   17  C           1     -20.539  -6.465  -5.295  0.00  0.00     0.274 C 
BRANCH  17  18
HETATM   18  C           1     -20.341  -5.105  -5.952  0.00  0.00     0.042 C 
BRANCH  18  19
HETATM   19  C           1     -20.676  -5.203  -7.435  0.00  0.00     0.003 C 
BRANCH  19  20
HETATM   20 Se           1     -22.356  -4.278  -7.785  0.00  0.00     0.000 Se
HETATM   21  C           1     -21.994  -3.994  -9.679  0.00  0.00     0.000 C 
ENDBRANCH  19  20
ENDBRANCH  18  19
ENDBRANCH  17  18
BRANCH  17  22
HETATM   22  N           1     -20.935  -7.469  -6.337  0.00  0.00    -0.067 N 
HETATM   23  H           1     -20.085  -7.972  -6.678  0.00  0.00     0.275 HD
HETATM   24  H           1     -21.394  -6.978  -7.137  0.00  0.00     0.275 HD
HETATM   25  H           1     -21.603  -8.157  -5.922  0.00  0.00     0.275 HD
ENDBRANCH  17  22
ENDBRANCH   4  17
TORSDOF 9
ENDMDL
MODEL 5
REMARK VINA RESULT:      -5.6     13.786     15.550
REMARK  9 active torsions:
REMARK  status: ('A' for Active; 'I' for Inactive)
REMARK    1  A    between atoms: C_4  and  C_25 
REMARK    2  A    between atoms: C_4  and  C_5 
REMARK    3  A    between atoms: C_5  and  Se_6 
REMARK    4  A    between atoms: N_8  and  C_25 
REMARK    5  A    between atoms: C_12  and  C_13 
REMARK    6  A    between atoms: C_12  and  C_17 
REMARK    7  A    between atoms: C_13  and  C_15 
REMARK    8  A    between atoms: C_13  and  N_23 
REMARK       I    between atoms: N_23  and  C_24 
REMARK    9  A    between atoms: C_24  and  C_25 
ROOT
HETATM    1  O           1     -20.684  -5.351  -4.673  0.00  0.00    -0.271 OA
HETATM    2  H           1     -23.115  -4.713  -5.974  0.00  0.00     0.163 HD
HETATM    3  N           1     -22.278  -5.220  -6.232  0.00  0.00    -0.344 N 
HETATM    4  C           1     -21.571  -5.904  -5.280  0.00  0.00     0.249 C 
ENDROOT
BRANCH   3   5
HETATM    5  C           1     -21.829  -5.224  -7.610  0.00  0.00     0.191 C 
BRANCH   5   6
HETATM    6  C           1     -22.416  -4.021  -8.338  0.00  0.00     0.094 C 
BRANCH   6   7
HETATM    7  C           1     -22.391  -4.269  -9.815  0.00  0.00     0.028 A 
HETATM    8  C           1     -23.400  -4.877 -10.521  0.00  0.00     0.114 A 
HETATM    9  N           1     -22.964  -4.897 -11.817  0.00  0.00    -0.360 N 
HETATM   10  H           1     -23.482  -5.291 -12.641  0.00  0.00     0.166 HD
HETATM   11  C           1     -21.730  -4.310 -11.843  0.00  0.00     0.180 A 
HETATM   12  N           1     -21.358  -3.921 -10.645  0.00  0.00    -0.354 N 
ATOM     13  HN          1     -20.487  -3.458 -10.388  1.00  0.00     0.166 HD
ENDBRANCH   6   7
ENDBRANCH   5   6
BRANCH   5  14
HETATM   14  C           1     -20.322  -5.149  -7.647  0.00  0.00     0.197 C 
HETATM   15  O           1     -19.752  -4.036  -7.676  0.00  0.00    -0.646 OA
HETATM   16  O           1     -19.645  -6.199  -7.651  0.00  0.00    -0.646 OA
ENDBRANCH   5  14
ENDBRANCH   3   5
BRANCH   4  17
HETATM   17  C           1     -21.901  -7.347  -4.986  0.00  0.00     0.274 C 
BRANCH  17  18
HETATM   18  C           1     -21.531  -7.669  -3.544  0.00  0.00     0.042 C 
BRANCH  18  19
HETATM   19  C           1     -21.587  -9.176  -3.329  0.00  0.00     0.003 C 
BRANCH  19  20
HETATM   20 Se           1     -20.146  -9.717  -2.133  0.00  0.00     0.000 Se
HETATM   21  C           1     -18.721  -9.291  -3.394  0.00  0.00     0.000 C 
ENDBRANCH  19  20
ENDBRANCH  18  19
ENDBRANCH  17  18
BRANCH  17  22
HETATM   22  N           1     -21.122  -8.235  -5.911  0.00  0.00    -0.067 N 
HETATM   23  H           1     -20.204  -8.475  -5.473  0.00  0.00     0.275 HD
HETATM   24  H           1     -20.958  -7.737  -6.814  0.00  0.00     0.275 HD
HETATM   25  H           1     -21.663  -9.111  -6.089  0.00  0.00     0.275 HD
ENDBRANCH  17  22
ENDBRANCH   4  17
TORSDOF 9
ENDMDL
MODEL 6
REMARK VINA RESULT:      -5.3     25.067     26.774
REMARK  9 active torsions:
REMARK  status: ('A' for Active; 'I' for Inactive)
REMARK    1  A    between atoms: C_4  and  C_25 
REMARK    2  A    between atoms: C_4  and  C_5 
REMARK    3  A    between atoms: C_5  and  Se_6 
REMARK    4  A    between atoms: N_8  and  C_25 
REMARK    5  A    between atoms: C_12  and  C_13 
REMARK    6  A    between atoms: C_12  and  C_17 
REMARK    7  A    between atoms: C_13  and  C_15 
REMARK    8  A    between atoms: C_13  and  N_23 
REMARK       I    between atoms: N_23  and  C_24 
REMARK    9  A    between atoms: C_24  and  C_25 
ROOT
HETATM    1  O           1     -12.821   6.294 -19.558  0.00  0.00    -0.271 OA
HETATM    2  H           1     -12.614   7.701 -22.004  0.00  0.00     0.163 HD
HETATM    3  N           1     -12.185   7.788 -21.092  0.00  0.00    -0.344 N 
HETATM    4  C           1     -11.970   6.672 -20.328  0.00  0.00     0.249 C 
ENDROOT
BRANCH   3   5
HETATM    5  C           1     -11.798   9.093 -20.593  0.00  0.00     0.191 C 
BRANCH   5   6
HETATM    6  C           1     -12.103   9.178 -19.103  0.00  0.00     0.094 C 
BRANCH   6   7
HETATM    7  C           1     -13.270  10.088 -18.881  0.00  0.00     0.028 A 
HETATM    8  C           1     -13.674  11.067 -19.757  0.00  0.00     0.114 A 
HETATM    9  N           1     -14.761  11.647 -19.164  0.00  0.00    -0.360 N 
HETATM   10  H           1     -15.331  12.439 -19.552  0.00  0.00     0.166 HD
HETATM   11  C           1     -14.969  11.008 -17.975  0.00  0.00     0.180 A 
HETATM   12  N           1     -14.082  10.060 -17.778  0.00  0.00    -0.354 N 
ATOM     13  HN          1     -14.012   9.436 -16.974  1.00  0.00     0.166 HD
ENDBRANCH   6   7
ENDBRANCH   5   6
BRANCH   5  14
HETATM   14  C           1     -10.321   9.298 -20.817  0.00  0.00     0.197 C 
HETATM   15  O           1      -9.515   9.128 -19.876  0.00  0.00    -0.646 OA
HETATM   16  O           1      -9.902   9.641 -21.944  0.00  0.00    -0.646 OA
ENDBRANCH   5  14
ENDBRANCH   3   5
BRANCH   4  17
HETATM   17  C           1     -10.671   5.913 -20.449  0.00  0.00     0.274 C 
BRANCH  17  18
HETATM   18  C           1     -10.964   4.435 -20.669  0.00  0.00     0.042 C 
BRANCH  18  19
HETATM   19  C           1     -10.947   4.130 -22.161  0.00  0.00     0.003 C 
BRANCH  19  20
HETATM   20 Se           1     -12.775   3.908 -22.801  0.00  0.00     0.000 Se
HETATM   21  C           1     -13.309   2.713 -21.356  0.00  0.00     0.000 C 
ENDBRANCH  19  20
ENDBRANCH  18  19
ENDBRANCH  17  18
BRANCH  17  22
HETATM   22  N           1      -9.876   6.082 -19.188  0.00  0.00    -0.067 N 
HETATM   23  H           1      -9.899   5.193 -18.640  0.00  0.00     0.275 HD
HETATM   24  H           1     -10.288   6.854 -18.618  0.00  0.00     0.275 HD
HETATM   25  H           1      -8.886   6.316 -19.429  0.00  0.00     0.275 HD
ENDBRANCH  17  22
ENDBRANCH   4  17
TORSDOF 9
ENDMDL
MODEL 7
REMARK VINA RESULT:      -5.2     14.781     16.753
REMARK  9 active torsions:
REMARK  status: ('A' for Active; 'I' for Inactive)
REMARK    1  A    between atoms: C_4  and  C_25 
REMARK    2  A    between atoms: C_4  and  C_5 
REMARK    3  A    between atoms: C_5  and  Se_6 
REMARK    4  A    between atoms: N_8  and  C_25 
REMARK    5  A    between atoms: C_12  and  C_13 
REMARK    6  A    between atoms: C_12  and  C_17 
REMARK    7  A    between atoms: C_13  and  C_15 
REMARK    8  A    between atoms: C_13  and  N_23 
REMARK       I    between atoms: N_23  and  C_24 
REMARK    9  A    between atoms: C_24  and  C_25 
ROOT
HETATM    1  O           1     -21.289  -5.504  -2.696  0.00  0.00    -0.271 OA
HETATM    2  H           1     -23.480  -6.408  -4.241  0.00  0.00     0.163 HD
HETATM    3  N           1     -22.474  -6.496  -4.307  0.00  0.00    -0.344 N 
HETATM    4  C           1     -21.714  -6.530  -3.170  0.00  0.00     0.249 C 
ENDROOT
BRANCH   3   5
HETATM    5  C           1     -21.838  -6.587  -5.607  0.00  0.00     0.191 C 
BRANCH   5   6
HETATM    6  C           1     -21.006  -5.334  -5.853  0.00  0.00     0.094 C 
BRANCH   6   7
HETATM    7  C           1     -21.354  -4.756  -7.189  0.00  0.00     0.028 A 
HETATM    8  C           1     -20.595  -4.904  -8.325  0.00  0.00     0.114 A 
HETATM    9  N           1     -21.276  -4.223  -9.297  0.00  0.00    -0.360 N 
HETATM   10  H           1     -20.987  -4.121 -10.301  0.00  0.00     0.166 HD
HETATM   11  C           1     -22.399  -3.702  -8.722  0.00  0.00     0.180 A 
HETATM   12  N           1     -22.473  -4.008  -7.447  0.00  0.00    -0.354 N 
ATOM     13  HN          1     -23.206  -3.745  -6.788  1.00  0.00     0.166 HD
ENDBRANCH   6   7
ENDBRANCH   5   6
BRANCH   5  14
HETATM   14  C           1     -20.944  -7.801  -5.645  0.00  0.00     0.197 C 
HETATM   15  O           1     -19.701  -7.665  -5.600  0.00  0.00    -0.646 OA
HETATM   16  O           1     -21.445  -8.943  -5.724  0.00  0.00    -0.646 OA
ENDBRANCH   5  14
ENDBRANCH   3   5
BRANCH   4  17
HETATM   17  C           1     -21.407  -7.851  -2.506  0.00  0.00     0.274 C 
BRANCH  17  18
HETATM   18  C           1     -21.949  -7.843  -1.083  0.00  0.00     0.042 C 
BRANCH  18  19
HETATM   19  C           1     -22.414  -9.244  -0.707  0.00  0.00     0.003 C 
BRANCH  19  20
HETATM   20 Se           1     -21.146 -10.037   0.543  0.00  0.00     0.000 Se
HETATM   21  C           1     -20.362 -11.247  -0.769  0.00  0.00     0.000 C 
ENDBRANCH  19  20
ENDBRANCH  18  19
ENDBRANCH  17  18
BRANCH  17  22
HETATM   22  N           1     -19.922  -8.060  -2.473  0.00  0.00    -0.067 N 
HETATM   23  H           1     -19.715  -9.081  -2.392  0.00  0.00     0.275 HD
HETATM   24  H           1     -19.519  -7.556  -1.652  0.00  0.00     0.275 HD
HETATM   25  H           1     -19.498  -7.687  -3.353  0.00  0.00     0.275 HD
ENDBRANCH  17  22
ENDBRANCH   4  17
TORSDOF 9
ENDMDL
MODEL 8
REMARK VINA RESULT:      -5.2     17.162     19.493
REMARK  9 active torsions:
REMARK  status: ('A' for Active; 'I' for Inactive)
REMARK    1  A    between atoms: C_4  and  C_25 
REMARK    2  A    between atoms: C_4  and  C_5 
REMARK    3  A    between atoms: C_5  and  Se_6 
REMARK    4  A    between atoms: N_8  and  C_25 
REMARK    5  A    between atoms: C_12  and  C_13 
REMARK    6  A    between atoms: C_12  and  C_17 
REMARK    7  A    between atoms: C_13  and  C_15 
REMARK    8  A    between atoms: C_13  and  N_23 
REMARK       I    between atoms: N_23  and  C_24 
REMARK    9  A    between atoms: C_24  and  C_25 
ROOT
HETATM    1  O           1     -19.213 -10.429  -4.640  0.00  0.00    -0.271 OA
HETATM    2  H           1     -19.130  -7.612  -4.882  0.00  0.00     0.163 HD
HETATM    3  N           1     -19.666  -8.265  -4.325  0.00  0.00    -0.344 N 
HETATM    4  C           1     -19.106  -9.452  -3.937  0.00  0.00     0.249 C 
ENDROOT
BRANCH   3   5
HETATM    5  C           1     -21.026  -7.944  -3.938  0.00  0.00     0.191 C 
BRANCH   5   6
HETATM    6  C           1     -21.004  -7.052  -2.704  0.00  0.00     0.094 C 
BRANCH   6   7
HETATM    7  C           1     -21.750  -7.720  -1.591  0.00  0.00     0.028 A 
HETATM    8  C           1     -21.895  -9.079  -1.454  0.00  0.00     0.114 A 
HETATM    9  N           1     -22.636  -9.244  -0.316  0.00  0.00    -0.360 N 
HETATM   10  H           1     -22.942 -10.159   0.098  0.00  0.00     0.166 HD
HETATM   11  C           1     -22.904  -8.001   0.181  0.00  0.00     0.180 A 
HETATM   12  N           1     -22.381  -7.059  -0.570  0.00  0.00    -0.354 N 
ATOM     13  HN          1     -22.432  -6.051  -0.423  1.00  0.00     0.166 HD
ENDBRANCH   6   7
ENDBRANCH   5   6
BRANCH   5  14
HETATM   14  C           1     -21.712  -7.221  -5.071  0.00  0.00     0.197 C 
HETATM   15  O           1     -21.377  -7.450  -6.254  0.00  0.00    -0.646 OA
HETATM   16  O           1     -22.614  -6.392  -4.826  0.00  0.00    -0.646 OA
ENDBRANCH   5  14
ENDBRANCH   3   5
BRANCH   4  17
HETATM   17  C           1     -18.352  -9.541  -2.632  0.00  0.00     0.274 C 
BRANCH  17  18
HETATM   18  C           1     -16.858  -9.409  -2.898  0.00  0.00     0.042 C 
BRANCH  18  19
HETATM   19  C           1     -16.142 -10.662  -2.412  0.00  0.00     0.003 C 
BRANCH  19  20
HETATM   20 Se           1     -15.372 -11.605  -3.934  0.00  0.00     0.000 Se
HETATM   21  C           1     -15.650 -10.139  -5.189  0.00  0.00     0.000 C 
ENDBRANCH  19  20
ENDBRANCH  18  19
ENDBRANCH  17  18
BRANCH  17  22
HETATM   22  N           1     -18.629 -10.865  -1.985  0.00  0.00    -0.067 N 
HETATM   23  H           1     -18.060 -11.607  -2.452  0.00  0.00     0.275 HD
HETATM   24  H           1     -19.644 -11.094  -2.081  0.00  0.00     0.275 HD
HETATM   25  H           1     -18.376 -10.818  -0.972  0.00  0.00     0.275 HD
ENDBRANCH  17  22
ENDBRANCH   4  17
TORSDOF 9
ENDMDL
MODEL 9
REMARK VINA RESULT:      -5.2     15.983     19.023
REMARK  9 active torsions:
REMARK  status: ('A' for Active; 'I' for Inactive)
REMARK    1  A    between atoms: C_4  and  C_25 
REMARK    2  A    between atoms: C_4  and  C_5 
REMARK    3  A    between atoms: C_5  and  Se_6 
REMARK    4  A    between atoms: N_8  and  C_25 
REMARK    5  A    between atoms: C_12  and  C_13 
REMARK    6  A    between atoms: C_12  and  C_17 
REMARK    7  A    between atoms: C_13  and  C_15 
REMARK    8  A    between atoms: C_13  and  N_23 
REMARK       I    between atoms: N_23  and  C_24 
REMARK    9  A    between atoms: C_24  and  C_25 
ROOT
HETATM    1  O           1     -22.327  -5.985  -2.530  0.00  0.00    -0.271 OA
HETATM    2  H           1     -20.271  -7.248  -1.052  0.00  0.00     0.163 HD
HETATM    3  N           1     -21.134  -7.555  -1.481  0.00  0.00    -0.344 N 
HETATM    4  C           1     -21.591  -6.939  -2.615  0.00  0.00     0.249 C 
ENDROOT
BRANCH   3   5
HETATM    5  C           1     -21.886  -8.648  -0.896  0.00  0.00     0.191 C 
BRANCH   5   6
HETATM    6  C           1     -21.013  -9.896  -0.849  0.00  0.00     0.094 C 
BRANCH   6   7
HETATM    7  C           1     -21.852 -11.080  -0.484  0.00  0.00     0.028 A 
HETATM    8  C           1     -22.927 -11.530  -1.212  0.00  0.00     0.114 A 
HETATM    9  N           1     -23.392 -12.617  -0.524  0.00  0.00    -0.360 N 
HETATM   10  H           1     -24.211 -13.216  -0.791  0.00  0.00     0.166 HD
HETATM   11  C           1     -22.594 -12.779   0.573  0.00  0.00     0.180 A 
HETATM   12  N           1     -21.654 -11.863   0.623  0.00  0.00    -0.354 N 
ATOM     13  HN          1     -20.931 -11.758   1.335  1.00  0.00     0.166 HD
ENDBRANCH   6   7
ENDBRANCH   5   6
BRANCH   5  14
HETATM   14  C           1     -22.307  -8.275   0.503  0.00  0.00     0.197 C 
HETATM   15  O           1     -23.509  -8.031   0.750  0.00  0.00    -0.646 OA
HETATM   16  O           1     -21.456  -8.207   1.415  0.00  0.00    -0.646 OA
ENDBRANCH   5  14
ENDBRANCH   3   5
BRANCH   4  17
HETATM   17  C           1     -21.174  -7.451  -3.973  0.00  0.00     0.274 C 
BRANCH  17  18
HETATM   18  C           1     -21.650  -6.484  -5.049  0.00  0.00     0.042 C 
BRANCH  18  19
HETATM   19  C           1     -20.460  -5.705  -5.595  0.00  0.00     0.003 C 
BRANCH  19  20
HETATM   20 Se           1     -20.667  -5.464  -7.518  0.00  0.00     0.000 Se
HETATM   21  C           1     -21.486  -3.701  -7.373  0.00  0.00     0.000 C 
ENDBRANCH  19  20
ENDBRANCH  18  19
ENDBRANCH  17  18
BRANCH  17  22
HETATM   22  N           1     -21.788  -8.800  -4.207  0.00  0.00    -0.067 N 
HETATM   23  H           1     -22.821  -8.742  -4.067  0.00  0.00     0.275 HD
HETATM   24  H           1     -21.382  -9.488  -3.534  0.00  0.00     0.275 HD
HETATM   25  H           1     -21.586  -9.109  -5.185  0.00  0.00     0.275 HD
ENDBRANCH  17  22
ENDBRANCH   4  17
TORSDOF 9
ENDMDL
