MODEL 1
REMARK VINA RESULT:      -6.0      0.000      0.000
REMARK  9 active torsions:
REMARK  status: ('A' for Active; 'I' for Inactive)
REMARK    1  A    between atoms: Se_7  and  C_8 
REMARK    2  A    between atoms: C_8  and  C_9 
REMARK    3  A    between atoms: C_9  and  C_10 
REMARK    4  A    between atoms: C_10  and  C_11 
REMARK    5  A    between atoms: C_10  and  N_23 
REMARK    6  A    between atoms: N_16  and  C_21 
REMARK       I    between atoms: N_18  and  C_19 
REMARK    7  A    between atoms: C_19  and  C_20 
REMARK    8  A    between atoms: C_20  and  C_21 
REMARK    9  A    between atoms: C_21  and  C_22 
REMARK       I    between atoms: C_22  and  N_23 
ROOT
HETATM    1  H           1     -27.754  -6.841 -18.522  0.00  0.00     0.163 HD
HETATM    2  O           1     -24.626  -6.616 -18.443  0.00  0.00    -0.271 OA
HETATM    3  C           1     -25.715  -6.912 -18.873  0.00  0.00     0.249 C 
HETATM    4  N           1     -26.841  -6.592 -18.162  0.00  0.00    -0.345 N 
ENDROOT
BRANCH   3   5
HETATM    5  C           1     -25.836  -7.636 -20.192  0.00  0.00     0.283 C 
BRANCH   5   6
HETATM    6  N           1     -27.262  -7.599 -20.653  0.00  0.00    -0.066 N 
HETATM    7  H           1     -27.596  -6.608 -20.675  0.00  0.00     0.275 HD
HETATM    8  H           1     -27.330  -8.009 -21.612  0.00  0.00     0.275 HD
HETATM    9  H           1     -27.857  -8.151 -19.993  0.00  0.00     0.275 HD
ENDBRANCH   5   6
BRANCH   5  10
HETATM   10  C           1     -24.951  -6.955 -21.227  0.00  0.00     0.145 C 
BRANCH  10  11
HETATM   11  C           1     -23.909  -7.928 -21.719  0.00  0.00     0.217 C 
HETATM   12  O           1     -23.824  -8.177 -22.899  0.00  0.00    -0.274 OA
HETATM   13  N           1     -23.059  -8.529 -20.830  0.00  0.00    -0.370 N 
HETATM   14  H           1     -22.361  -9.183 -21.161  0.00  0.00     0.159 HD
HETATM   15  H           1     -23.131  -8.321 -19.842  0.00  0.00     0.159 HD
ENDBRANCH  10  11
ENDBRANCH   5  10
ENDBRANCH   3   5
BRANCH   4  16
HETATM   16  C           1     -26.726  -5.897 -16.895  0.00  0.00     0.185 C 
BRANCH  16  17
HETATM   17  C           1     -27.919  -4.966 -16.718  0.00  0.00     0.036 C 
BRANCH  17  18
HETATM   18  C           1     -28.893  -5.164 -17.871  0.00  0.00     0.003 C 
BRANCH  18  19
HETATM   19 Se           1     -30.451  -6.152 -17.245  0.00  0.00     0.000 Se
HETATM   20  C           1     -31.520  -4.562 -16.885  0.00  0.00     0.000 C 
ENDBRANCH  18  19
ENDBRANCH  17  18
ENDBRANCH  16  17
BRANCH  16  21
HETATM   21  C           1     -26.702  -6.904 -15.772  0.00  0.00     0.196 C 
HETATM   22  O           1     -27.770  -7.270 -15.236  0.00  0.00    -0.646 OA
HETATM   23  O           1     -25.613  -7.373 -15.376  0.00  0.00    -0.646 OA
ENDBRANCH  16  21
ENDBRANCH   4  16
TORSDOF 9
ENDMDL
MODEL 2
REMARK VINA RESULT:      -5.8     11.034     12.525
REMARK  9 active torsions:
REMARK  status: ('A' for Active; 'I' for Inactive)
REMARK    1  A    between atoms: Se_7  and  C_8 
REMARK    2  A    between atoms: C_8  and  C_9 
REMARK    3  A    between atoms: C_9  and  C_10 
REMARK    4  A    between atoms: C_10  and  C_11 
REMARK    5  A    between atoms: C_10  and  N_23 
REMARK    6  A    between atoms: N_16  and  C_21 
REMARK       I    between atoms: N_18  and  C_19 
REMARK    7  A    between atoms: C_19  and  C_20 
REMARK    8  A    between atoms: C_20  and  C_21 
REMARK    9  A    between atoms: C_21  and  C_22 
REMARK       I    between atoms: C_22  and  N_23 
ROOT
HETATM    1  H           1     -35.090  -0.874 -11.314  0.00  0.00     0.163 HD
HETATM    2  O           1     -34.576  -2.983 -13.579  0.00  0.00    -0.271 OA
HETATM    3  C           1     -34.477  -2.460 -12.494  0.00  0.00     0.249 C 
HETATM    4  N           1     -35.173  -1.312 -12.222  0.00  0.00    -0.345 N 
ENDROOT
BRANCH   3   5
HETATM    5  C           1     -33.587  -3.070 -11.439  0.00  0.00     0.283 C 
BRANCH   5   6
HETATM    6  N           1     -33.188  -2.014 -10.452  0.00  0.00    -0.066 N 
HETATM    7  H           1     -34.034  -1.686  -9.933  0.00  0.00     0.275 HD
HETATM    8  H           1     -32.498  -2.413  -9.775  0.00  0.00     0.275 HD
HETATM    9  H           1     -32.755  -1.208 -10.958  0.00  0.00     0.275 HD
ENDBRANCH   5   6
BRANCH   5  10
HETATM   10  C           1     -34.341  -4.180 -10.719  0.00  0.00     0.145 C 
BRANCH  10  11
HETATM   11  C           1     -34.066  -5.499 -11.397  0.00  0.00     0.217 C 
HETATM   12  O           1     -33.172  -6.208 -11.000  0.00  0.00    -0.274 OA
HETATM   13  N           1     -34.831  -5.893 -12.462  0.00  0.00    -0.370 N 
HETATM   14  H           1     -34.645  -6.778 -12.918  0.00  0.00     0.159 HD
HETATM   15  H           1     -35.579  -5.299 -12.796  0.00  0.00     0.159 HD
ENDBRANCH  10  11
ENDBRANCH   5  10
ENDBRANCH   3   5
BRANCH   4  16
HETATM   16  C           1     -36.029  -0.725 -13.235  0.00  0.00     0.185 C 
BRANCH  16  17
HETATM   17  C           1     -37.178   0.014 -12.562  0.00  0.00     0.036 C 
BRANCH  17  18
HETATM   18  C           1     -37.396  -0.551 -11.164  0.00  0.00     0.003 C 
BRANCH  18  19
HETATM   19 Se           1     -37.120   0.854  -9.843  0.00  0.00     0.000 Se
HETATM   20  C           1     -37.473  -0.294  -8.308  0.00  0.00     0.000 C 
ENDBRANCH  18  19
ENDBRANCH  17  18
ENDBRANCH  16  17
BRANCH  16  21
HETATM   21  C           1     -35.227   0.242 -14.069  0.00  0.00     0.196 C 
HETATM   22  O           1     -34.942  -0.039 -15.253  0.00  0.00    -0.646 OA
HETATM   23  O           1     -34.847   1.327 -13.577  0.00  0.00    -0.646 OA
ENDBRANCH  16  21
ENDBRANCH   4  16
TORSDOF 9
ENDMDL
MODEL 3
REMARK VINA RESULT:      -5.7     10.879     12.360
REMARK  9 active torsions:
REMARK  status: ('A' for Active; 'I' for Inactive)
REMARK    1  A    between atoms: Se_7  and  C_8 
REMARK    2  A    between atoms: C_8  and  C_9 
REMARK    3  A    between atoms: C_9  and  C_10 
REMARK    4  A    between atoms: C_10  and  C_11 
REMARK    5  A    between atoms: C_10  and  N_23 
REMARK    6  A    between atoms: N_16  and  C_21 
REMARK       I    between atoms: N_18  and  C_19 
REMARK    7  A    between atoms: C_19  and  C_20 
REMARK    8  A    between atoms: C_20  and  C_21 
REMARK    9  A    between atoms: C_21  and  C_22 
REMARK       I    between atoms: C_22  and  N_23 
ROOT
HETATM    1  H           1     -35.807  -2.769 -12.744  0.00  0.00     0.163 HD
HETATM    2  O           1     -33.459  -2.198 -10.745  0.00  0.00    -0.271 OA
HETATM    3  C           1     -34.145  -2.829 -11.512  0.00  0.00     0.249 C 
HETATM    4  N           1     -35.232  -2.240 -12.102  0.00  0.00    -0.345 N 
ENDROOT
BRANCH   3   5
HETATM    5  C           1     -33.807  -4.267 -11.820  0.00  0.00     0.283 C 
BRANCH   5   6
HETATM    6  N           1     -32.398  -4.351 -12.326  0.00  0.00    -0.066 N 
HETATM    7  H           1     -32.333  -3.877 -13.256  0.00  0.00     0.275 HD
HETATM    8  H           1     -31.756  -3.878 -11.650  0.00  0.00     0.275 HD
HETATM    9  H           1     -32.122  -5.354 -12.427  0.00  0.00     0.275 HD
ENDBRANCH   5   6
BRANCH   5  10
HETATM   10  C           1     -33.941  -5.102 -10.554  0.00  0.00     0.145 C 
BRANCH  10  11
HETATM   11  C           1     -34.657  -6.391 -10.872  0.00  0.00     0.217 C 
HETATM   12  O           1     -34.894  -7.184  -9.992  0.00  0.00    -0.274 OA
HETATM   13  N           1     -35.037  -6.663 -12.159  0.00  0.00    -0.370 N 
HETATM   14  H           1     -35.517  -7.529 -12.372  0.00  0.00     0.159 HD
HETATM   15  H           1     -34.837  -6.000 -12.896  0.00  0.00     0.159 HD
ENDBRANCH  10  11
ENDBRANCH   5  10
ENDBRANCH   3   5
BRANCH   4  16
HETATM   16  C           1     -35.558  -0.858 -11.806  0.00  0.00     0.185 C 
BRANCH  16  17
HETATM   17  C           1     -36.166  -0.205 -13.040  0.00  0.00     0.036 C 
BRANCH  17  18
HETATM   18  C           1     -35.089   0.572 -13.786  0.00  0.00     0.003 C 
BRANCH  18  19
HETATM   19 Se           1     -35.758   1.090 -15.542  0.00  0.00     0.000 Se
HETATM   20  C           1     -37.463   0.168 -15.345  0.00  0.00     0.000 C 
ENDBRANCH  18  19
ENDBRANCH  17  18
ENDBRANCH  16  17
BRANCH  16  21
HETATM   21  C           1     -36.549  -0.809 -10.670  0.00  0.00     0.196 C 
HETATM   22  O           1     -37.745  -1.116 -10.869  0.00  0.00    -0.646 OA
HETATM   23  O           1     -36.176  -0.463  -9.528  0.00  0.00    -0.646 OA
ENDBRANCH  16  21
ENDBRANCH   4  16
TORSDOF 9
ENDMDL
MODEL 4
REMARK VINA RESULT:      -5.5     10.425     12.528
REMARK  9 active torsions:
REMARK  status: ('A' for Active; 'I' for Inactive)
REMARK    1  A    between atoms: Se_7  and  C_8 
REMARK    2  A    between atoms: C_8  and  C_9 
REMARK    3  A    between atoms: C_9  and  C_10 
REMARK    4  A    between atoms: C_10  and  C_11 
REMARK    5  A    between atoms: C_10  and  N_23 
REMARK    6  A    between atoms: N_16  and  C_21 
REMARK       I    between atoms: N_18  and  C_19 
REMARK    7  A    between atoms: C_19  and  C_20 
REMARK    8  A    between atoms: C_20  and  C_21 
REMARK    9  A    between atoms: C_21  and  C_22 
REMARK       I    between atoms: C_22  and  N_23 
ROOT
HETATM    1  H           1     -36.584  -2.415 -11.260  0.00  0.00     0.163 HD
HETATM    2  O           1     -33.627  -1.442 -10.870  0.00  0.00    -0.271 OA
HETATM    3  C           1     -34.553  -2.218 -10.918  0.00  0.00     0.249 C 
HETATM    4  N           1     -35.809  -1.766 -11.220  0.00  0.00    -0.345 N 
ENDROOT
BRANCH   3   5
HETATM    5  C           1     -34.324  -3.684 -10.643  0.00  0.00     0.283 C 
BRANCH   5   6
HETATM    6  N           1     -35.639  -4.405 -10.657  0.00  0.00    -0.066 N 
HETATM    7  H           1     -35.476  -5.425 -10.819  0.00  0.00     0.275 HD
HETATM    8  H           1     -36.119  -4.272  -9.738  0.00  0.00     0.275 HD
HETATM    9  H           1     -36.239  -4.022 -11.423  0.00  0.00     0.275 HD
ENDBRANCH   5   6
BRANCH   5  10
HETATM   10  C           1     -33.416  -4.266 -11.719  0.00  0.00     0.145 C 
BRANCH  10  11
HETATM   11  C           1     -34.215  -4.511 -12.975  0.00  0.00     0.217 C 
HETATM   12  O           1     -35.102  -5.332 -12.977  0.00  0.00    -0.274 OA
HETATM   13  N           1     -33.935  -3.804 -14.114  0.00  0.00    -0.370 N 
HETATM   14  H           1     -34.471  -3.970 -14.957  0.00  0.00     0.159 HD
HETATM   15  H           1     -33.192  -3.117 -14.113  0.00  0.00     0.159 HD
ENDBRANCH  10  11
ENDBRANCH   5  10
ENDBRANCH   3   5
BRANCH   4  16
HETATM   16  C           1     -36.030  -0.357 -11.484  0.00  0.00     0.185 C 
BRANCH  16  17
HETATM   17  C           1     -36.760  -0.198 -12.811  0.00  0.00     0.036 C 
BRANCH  17  18
HETATM   18  C           1     -35.790  -0.448 -13.958  0.00  0.00     0.003 C 
BRANCH  18  19
HETATM   19 Se           1     -36.678  -0.082 -15.653  0.00  0.00     0.000 Se
HETATM   20  C           1     -35.563  -1.302 -16.687  0.00  0.00     0.000 C 
ENDBRANCH  18  19
ENDBRANCH  17  18
ENDBRANCH  16  17
BRANCH  16  21
HETATM   21  C           1     -36.864   0.235 -10.375  0.00  0.00     0.196 C 
HETATM   22  O           1     -36.386   0.352  -9.226  0.00  0.00    -0.646 OA
HETATM   23  O           1     -38.034   0.611 -10.605  0.00  0.00    -0.646 OA
ENDBRANCH  16  21
ENDBRANCH   4  16
TORSDOF 9
ENDMDL
MODEL 5
REMARK VINA RESULT:      -5.3     11.912     13.833
REMARK  9 active torsions:
REMARK  status: ('A' for Active; 'I' for Inactive)
REMARK    1  A    between atoms: Se_7  and  C_8 
REMARK    2  A    between atoms: C_8  and  C_9 
REMARK    3  A    between atoms: C_9  and  C_10 
REMARK    4  A    between atoms: C_10  and  C_11 
REMARK    5  A    between atoms: C_10  and  N_23 
REMARK    6  A    between atoms: N_16  and  C_21 
REMARK       I    between atoms: N_18  and  C_19 
REMARK    7  A    between atoms: C_19  and  C_20 
REMARK    8  A    between atoms: C_20  and  C_21 
REMARK    9  A    between atoms: C_21  and  C_22 
REMARK       I    between atoms: C_22  and  N_23 
ROOT
HETATM    1  H           1     -22.035  -6.968  -6.954  0.00  0.00     0.163 HD
HETATM    2  O           1     -20.402  -4.358  -6.350  0.00  0.00    -0.271 OA
HETATM    3  C           1     -21.124  -5.109  -6.961  0.00  0.00     0.249 C 
HETATM    4  N           1     -21.430  -6.338  -6.441  0.00  0.00    -0.345 N 
ENDROOT
BRANCH   3   5
HETATM    5  C           1     -21.688  -4.694  -8.298  0.00  0.00     0.283 C 
BRANCH   5   6
HETATM    6  N           1     -22.675  -3.582  -8.100  0.00  0.00    -0.066 N 
HETATM    7  H           1     -22.410  -2.769  -8.701  0.00  0.00     0.275 HD
HETATM    8  H           1     -23.630  -3.913  -8.364  0.00  0.00     0.275 HD
HETATM    9  H           1     -22.672  -3.288  -7.097  0.00  0.00     0.275 HD
ENDBRANCH   5   6
BRANCH   5  10
HETATM   10  C           1     -20.557  -4.213  -9.198  0.00  0.00     0.145 C 
BRANCH  10  11
HETATM   11  C           1     -21.054  -4.102 -10.618  0.00  0.00     0.217 C 
HETATM   12  O           1     -22.103  -4.613 -10.933  0.00  0.00    -0.274 OA
HETATM   13  N           1     -20.317  -3.422 -11.550  0.00  0.00    -0.370 N 
HETATM   14  H           1     -20.651  -3.348 -12.503  0.00  0.00     0.159 HD
HETATM   15  H           1     -19.439  -2.994 -11.287  0.00  0.00     0.159 HD
ENDBRANCH  10  11
ENDBRANCH   5  10
ENDBRANCH   3   5
BRANCH   4  16
HETATM   16  C           1     -20.889  -6.738  -5.157  0.00  0.00     0.185 C 
BRANCH  16  17
HETATM   17  C           1     -21.983  -6.661  -4.100  0.00  0.00     0.036 C 
BRANCH  17  18
HETATM   18  C           1     -21.377  -6.220  -2.774  0.00  0.00     0.003 C 
BRANCH  18  19
HETATM   19 Se           1     -21.109  -7.776  -1.631  0.00  0.00     0.000 Se
HETATM   20  C           1     -22.546  -7.321  -0.396  0.00  0.00     0.000 C 
ENDBRANCH  18  19
ENDBRANCH  17  18
ENDBRANCH  16  17
BRANCH  16  21
HETATM   21  C           1     -20.376  -8.154  -5.248  0.00  0.00     0.196 C 
HETATM   22  O           1     -21.047  -9.026  -5.841  0.00  0.00    -0.646 OA
HETATM   23  O           1     -19.279  -8.456  -4.732  0.00  0.00    -0.646 OA
ENDBRANCH  16  21
ENDBRANCH   4  16
TORSDOF 9
ENDMDL
MODEL 6
REMARK VINA RESULT:      -5.3     10.926     12.981
REMARK  9 active torsions:
REMARK  status: ('A' for Active; 'I' for Inactive)
REMARK    1  A    between atoms: Se_7  and  C_8 
REMARK    2  A    between atoms: C_8  and  C_9 
REMARK    3  A    between atoms: C_9  and  C_10 
REMARK    4  A    between atoms: C_10  and  C_11 
REMARK    5  A    between atoms: C_10  and  N_23 
REMARK    6  A    between atoms: N_16  and  C_21 
REMARK       I    between atoms: N_18  and  C_19 
REMARK    7  A    between atoms: C_19  and  C_20 
REMARK    8  A    between atoms: C_20  and  C_21 
REMARK    9  A    between atoms: C_21  and  C_22 
REMARK       I    between atoms: C_22  and  N_23 
ROOT
HETATM    1  H           1     -22.788  -6.202  -7.310  0.00  0.00     0.163 HD
HETATM    2  O           1     -21.688  -3.268  -7.472  0.00  0.00    -0.271 OA
HETATM    3  C           1     -22.312  -4.249  -7.802  0.00  0.00     0.249 C 
HETATM    4  N           1     -22.266  -5.380  -7.033  0.00  0.00    -0.345 N 
ENDROOT
BRANCH   3   5
HETATM    5  C           1     -23.141  -4.227  -9.063  0.00  0.00     0.283 C 
BRANCH   5   6
HETATM    6  N           1     -24.451  -3.551  -8.787  0.00  0.00    -0.066 N 
HETATM    7  H           1     -25.045  -3.578  -9.647  0.00  0.00     0.275 HD
HETATM    8  H           1     -24.942  -4.047  -8.009  0.00  0.00     0.275 HD
HETATM    9  H           1     -24.279  -2.556  -8.514  0.00  0.00     0.275 HD
ENDBRANCH   5   6
BRANCH   5  10
HETATM   10  C           1     -22.394  -3.462 -10.148  0.00  0.00     0.145 C 
BRANCH  10  11
HETATM   11  C           1     -22.559  -4.170 -11.470  0.00  0.00     0.217 C 
HETATM   12  O           1     -23.591  -4.746 -11.722  0.00  0.00    -0.274 OA
HETATM   13  N           1     -21.539  -4.162 -12.383  0.00  0.00    -0.370 N 
HETATM   14  H           1     -21.649  -4.639 -13.269  0.00  0.00     0.159 HD
HETATM   15  H           1     -20.674  -3.681 -12.171  0.00  0.00     0.159 HD
ENDBRANCH  10  11
ENDBRANCH   5  10
ENDBRANCH   3   5
BRANCH   4  16
HETATM   16  C           1     -21.469  -5.402  -5.821  0.00  0.00     0.185 C 
BRANCH  16  17
HETATM   17  C           1     -22.007  -6.473  -4.880  0.00  0.00     0.036 C 
BRANCH  17  18
HETATM   18  C           1     -21.437  -6.255  -3.485  0.00  0.00     0.003 C 
BRANCH  18  19
HETATM   19 Se           1     -21.397  -7.951  -2.526  0.00  0.00     0.000 Se
HETATM   20  C           1     -19.927  -8.693  -3.568  0.00  0.00     0.000 C 
ENDBRANCH  18  19
ENDBRANCH  17  18
ENDBRANCH  16  17
BRANCH  16  21
HETATM   21  C           1     -20.035  -5.712  -6.170  0.00  0.00     0.196 C 
HETATM   22  O           1     -19.167  -4.815  -6.107  0.00  0.00    -0.646 OA
HETATM   23  O           1     -19.713  -6.867  -6.523  0.00  0.00    -0.646 OA
ENDBRANCH  16  21
ENDBRANCH   4  16
TORSDOF 9
ENDMDL
MODEL 7
REMARK VINA RESULT:      -5.1     12.125     14.298
REMARK  9 active torsions:
REMARK  status: ('A' for Active; 'I' for Inactive)
REMARK    1  A    between atoms: Se_7  and  C_8 
REMARK    2  A    between atoms: C_8  and  C_9 
REMARK    3  A    between atoms: C_9  and  C_10 
REMARK    4  A    between atoms: C_10  and  C_11 
REMARK    5  A    between atoms: C_10  and  N_23 
REMARK    6  A    between atoms: N_16  and  C_21 
REMARK       I    between atoms: N_18  and  C_19 
REMARK    7  A    between atoms: C_19  and  C_20 
REMARK    8  A    between atoms: C_20  and  C_21 
REMARK    9  A    between atoms: C_21  and  C_22 
REMARK       I    between atoms: C_22  and  N_23 
ROOT
HETATM    1  H           1     -22.733  -5.877  -6.019  0.00  0.00     0.163 HD
HETATM    2  O           1     -19.924  -4.484  -6.132  0.00  0.00    -0.271 OA
HETATM    3  C           1     -21.066  -4.726  -6.444  0.00  0.00     0.249 C 
HETATM    4  N           1     -21.777  -5.673  -5.757  0.00  0.00    -0.345 N 
ENDROOT
BRANCH   3   5
HETATM    5  C           1     -21.708  -3.986  -7.592  0.00  0.00     0.283 C 
BRANCH   5   6
HETATM    6  N           1     -20.824  -4.076  -8.800  0.00  0.00    -0.066 N 
HETATM    7  H           1     -21.134  -4.874  -9.400  0.00  0.00     0.275 HD
HETATM    8  H           1     -20.887  -3.187  -9.345  0.00  0.00     0.275 HD
HETATM    9  H           1     -19.835  -4.232  -8.498  0.00  0.00     0.275 HD
ENDBRANCH   5   6
BRANCH   5  10
HETATM   10  C           1     -23.061  -4.612  -7.906  0.00  0.00     0.145 C 
BRANCH  10  11
HETATM   11  C           1     -23.632  -3.981  -9.152  0.00  0.00     0.217 C 
HETATM   12  O           1     -23.212  -4.303 -10.238  0.00  0.00    -0.274 OA
HETATM   13  N           1     -24.625  -3.045  -9.052  0.00  0.00    -0.370 N 
HETATM   14  H           1     -25.007  -2.621  -9.888  0.00  0.00     0.159 HD
HETATM   15  H           1     -24.976  -2.775  -8.142  0.00  0.00     0.159 HD
ENDBRANCH  10  11
ENDBRANCH   5  10
ENDBRANCH   3   5
BRANCH   4  16
HETATM   16  C           1     -21.161  -6.385  -4.654  0.00  0.00     0.185 C 
BRANCH  16  17
HETATM   17  C           1     -22.199  -6.633  -3.568  0.00  0.00     0.036 C 
BRANCH  17  18
HETATM   18  C           1     -21.598  -6.307  -2.207  0.00  0.00     0.003 C 
BRANCH  18  19
HETATM   19 Se           1     -21.185  -7.962  -1.265  0.00  0.00     0.000 Se
HETATM   20  C           1     -22.660  -7.803  -0.000  0.00  0.00     0.000 C 
ENDBRANCH  18  19
ENDBRANCH  17  18
ENDBRANCH  16  17
BRANCH  16  21
HETATM   21  C           1     -20.623  -7.705  -5.148  0.00  0.00     0.196 C 
HETATM   22  O           1     -19.598  -8.197  -4.628  0.00  0.00    -0.646 OA
HETATM   23  O           1     -21.202  -8.308  -6.077  0.00  0.00    -0.646 OA
ENDBRANCH  16  21
ENDBRANCH   4  16
TORSDOF 9
ENDMDL
MODEL 8
REMARK VINA RESULT:      -5.1     12.772     15.032
REMARK  9 active torsions:
REMARK  status: ('A' for Active; 'I' for Inactive)
REMARK    1  A    between atoms: Se_7  and  C_8 
REMARK    2  A    between atoms: C_8  and  C_9 
REMARK    3  A    between atoms: C_9  and  C_10 
REMARK    4  A    between atoms: C_10  and  C_11 
REMARK    5  A    between atoms: C_10  and  N_23 
REMARK    6  A    between atoms: N_16  and  C_21 
REMARK       I    between atoms: N_18  and  C_19 
REMARK    7  A    between atoms: C_19  and  C_20 
REMARK    8  A    between atoms: C_20  and  C_21 
REMARK    9  A    between atoms: C_21  and  C_22 
REMARK       I    between atoms: C_22  and  N_23 
ROOT
HETATM    1  H           1     -19.950  -6.936  -4.980  0.00  0.00     0.163 HD
HETATM    2  O           1     -22.699  -5.568  -5.622  0.00  0.00    -0.271 OA
HETATM    3  C           1     -21.516  -5.795  -5.708  0.00  0.00     0.249 C 
HETATM    4  N           1     -20.941  -6.746  -4.908  0.00  0.00    -0.345 N 
ENDROOT
BRANCH   3   5
HETATM    5  C           1     -20.670  -5.030  -6.697  0.00  0.00     0.283 C 
BRANCH   5   6
HETATM    6  N           1     -20.524  -5.834  -7.955  0.00  0.00    -0.066 N 
HETATM    7  H           1     -20.187  -6.794  -7.717  0.00  0.00     0.275 HD
HETATM    8  H           1     -21.450  -5.900  -8.436  0.00  0.00     0.275 HD
HETATM    9  H           1     -19.834  -5.369  -8.587  0.00  0.00     0.275 HD
ENDBRANCH   5   6
BRANCH   5  10
HETATM   10  C           1     -21.343  -3.702  -7.019  0.00  0.00     0.145 C 
BRANCH  10  11
HETATM   11  C           1     -22.250  -3.873  -8.212  0.00  0.00     0.217 C 
HETATM   12  O           1     -21.802  -3.774  -9.331  0.00  0.00    -0.274 OA
HETATM   13  N           1     -23.580  -4.139  -8.029  0.00  0.00    -0.370 N 
HETATM   14  H           1     -24.189  -4.252  -8.830  0.00  0.00     0.159 HD
HETATM   15  H           1     -23.955  -4.221  -7.092  0.00  0.00     0.159 HD
ENDBRANCH  10  11
ENDBRANCH   5  10
ENDBRANCH   3   5
BRANCH   4  16
HETATM   16  C           1     -21.753  -7.481  -3.957  0.00  0.00     0.185 C 
BRANCH  16  17
HETATM   17  C           1     -21.323  -8.943  -3.947  0.00  0.00     0.036 C 
BRANCH  17  18
HETATM   18  C           1     -20.067  -9.108  -4.792  0.00  0.00     0.003 C 
BRANCH  18  19
HETATM   19 Se           1     -19.003 -10.584  -4.093  0.00  0.00     0.000 Se
HETATM   20  C           1     -17.925  -9.465  -2.916  0.00  0.00     0.000 C 
ENDBRANCH  18  19
ENDBRANCH  17  18
ENDBRANCH  16  17
BRANCH  16  21
HETATM   21  C           1     -21.569  -6.893  -2.580  0.00  0.00     0.196 C 
HETATM   22  O           1     -20.745  -7.398  -1.788  0.00  0.00    -0.646 OA
HETATM   23  O           1     -22.240  -5.898  -2.231  0.00  0.00    -0.646 OA
ENDBRANCH  16  21
ENDBRANCH   4  16
TORSDOF 9
ENDMDL
MODEL 9
REMARK VINA RESULT:      -5.0     12.422     14.910
REMARK  9 active torsions:
REMARK  status: ('A' for Active; 'I' for Inactive)
REMARK    1  A    between atoms: Se_7  and  C_8 
REMARK    2  A    between atoms: C_8  and  C_9 
REMARK    3  A    between atoms: C_9  and  C_10 
REMARK    4  A    between atoms: C_10  and  C_11 
REMARK    5  A    between atoms: C_10  and  N_23 
REMARK    6  A    between atoms: N_16  and  C_21 
REMARK       I    between atoms: N_18  and  C_19 
REMARK    7  A    between atoms: C_19  and  C_20 
REMARK    8  A    between atoms: C_20  and  C_21 
REMARK    9  A    between atoms: C_21  and  C_22 
REMARK       I    between atoms: C_22  and  N_23 
ROOT
HETATM    1  H           1     -22.628  -5.927  -4.927  0.00  0.00     0.163 HD
HETATM    2  O           1     -20.411  -7.934  -5.873  0.00  0.00    -0.271 OA
HETATM    3  C           1     -21.295  -7.490  -5.181  0.00  0.00     0.249 C 
HETATM    4  N           1     -21.887  -6.299  -5.507  0.00  0.00    -0.345 N 
ENDROOT
BRANCH   3   5
HETATM    5  C           1     -21.746  -8.246  -3.954  0.00  0.00     0.283 C 
BRANCH   5   6
HETATM    6  N           1     -21.420  -9.700  -4.117  0.00  0.00    -0.066 N 
HETATM    7  H           1     -20.446  -9.801  -4.482  0.00  0.00     0.275 HD
HETATM    8  H           1     -21.497 -10.180  -3.192  0.00  0.00     0.275 HD
HETATM    9  H           1     -22.091 -10.134  -4.792  0.00  0.00     0.275 HD
ENDBRANCH   5   6
BRANCH   5  10
HETATM   10  C           1     -21.026  -7.699  -2.728  0.00  0.00     0.145 C 
BRANCH  10  11
HETATM   11  C           1     -21.971  -6.833  -1.933  0.00  0.00     0.217 C 
HETATM   12  O           1     -22.383  -5.799  -2.402  0.00  0.00    -0.274 OA
HETATM   13  N           1     -22.362  -7.219  -0.679  0.00  0.00    -0.370 N 
HETATM   14  H           1     -22.995  -6.637  -0.144  0.00  0.00     0.159 HD
HETATM   15  H           1     -22.016  -8.085  -0.285  0.00  0.00     0.159 HD
ENDBRANCH  10  11
ENDBRANCH   5  10
ENDBRANCH   3   5
BRANCH   4  16
HETATM   16  C           1     -21.454  -5.572  -6.685  0.00  0.00     0.185 C 
BRANCH  16  17
HETATM   17  C           1     -22.523  -4.560  -7.077  0.00  0.00     0.036 C 
BRANCH  17  18
HETATM   18  C           1     -22.093  -3.833  -8.344  0.00  0.00     0.003 C 
BRANCH  18  19
HETATM   19 Se           1     -23.005  -4.611  -9.881  0.00  0.00     0.000 Se
HETATM   20  C           1     -24.534  -3.406  -9.790  0.00  0.00     0.000 C 
ENDBRANCH  18  19
ENDBRANCH  17  18
ENDBRANCH  16  17
BRANCH  16  21
HETATM   21  C           1     -20.164  -4.852  -6.383  0.00  0.00     0.196 C 
HETATM   22  O           1     -19.261  -4.796  -7.245  0.00  0.00    -0.646 OA
HETATM   23  O           1     -19.997  -4.309  -5.269  0.00  0.00    -0.646 OA
ENDBRANCH  16  21
ENDBRANCH   4  16
TORSDOF 9
ENDMDL
