MODEL 1
REMARK VINA RESULT:      -7.6      0.000      0.000
REMARK  10 active torsions:
REMARK  status: ('A' for Active; 'I' for Inactive)
REMARK    1  A    between atoms: C_1  and  C_2 
REMARK    2  A    between atoms: C_2  and  C_5 
REMARK    3  A    between atoms: C_2  and  N_22 
REMARK    4  A    between atoms: C_5  and  C_6 
REMARK    5  A    between atoms: C_6  and  C_30 
REMARK       I    between atoms: N_7  and  C_8 
REMARK       I    between atoms: C_8  and  N_9 
REMARK    6  A    between atoms: N_15  and  C_20 
REMARK    7  A    between atoms: C_18  and  C_19 
REMARK    8  A    between atoms: C_19  and  C_20 
REMARK    9  A    between atoms: C_20  and  C_21 
REMARK       I    between atoms: C_21  and  N_22 
REMARK   10  A    between atoms: N_25  and  C_30 
ROOT
HETATM    1  H           1     -32.352  -3.480 -14.317  0.00  0.00     0.163 HD
HETATM    2  C           1     -33.848  -4.468 -15.350  0.00  0.00     0.249 C 
HETATM    3  N           1     -33.284  -3.872 -14.256  0.00  0.00    -0.345 N 
HETATM    4  O           1     -34.959  -4.936 -15.278  0.00  0.00    -0.271 OA
ENDROOT
BRANCH   3   5
HETATM    5  C           1     -34.019  -3.801 -13.008  0.00  0.00     0.185 C 
BRANCH   5   6
HETATM    6  C           1     -34.611  -2.421 -12.852  0.00  0.00     0.196 C 
HETATM    7  O           1     -35.238  -1.898 -13.798  0.00  0.00    -0.646 OA
HETATM    8  O           1     -34.472  -1.801 -11.775  0.00  0.00    -0.646 OA
ENDBRANCH   5   6
BRANCH   5   9
HETATM    9  C           1     -33.078  -4.084 -11.845  0.00  0.00     0.038 C 
BRANCH   9  10
HETATM   10  C           1     -33.882  -4.579 -10.650  0.00  0.00     0.023 C 
BRANCH  10  11
HETATM   11  C           1     -34.737  -5.767 -11.070  0.00  0.00     0.138 C 
BRANCH  11  12
HETATM   12  N           1     -33.927  -6.992 -11.034  0.00  0.00    -0.227 N 
HETATM   13  C           1     -34.218  -7.920 -10.222  0.00  0.00     0.665 C 
HETATM   14  N           1     -35.206  -7.792  -9.441  0.00  0.00    -0.235 N 
HETATM   15  N           1     -33.501  -9.004 -10.190  0.00  0.00    -0.235 N 
HETATM   16  H           1     -35.785  -6.916  -9.468  0.00  0.00     0.174 HD
HETATM   17  H           1     -35.447  -8.560  -8.768  0.00  0.00     0.174 HD
HETATM   18  H           1     -32.685  -9.110 -10.834  0.00  0.00     0.174 HD
HETATM   19  H           1     -33.741  -9.770  -9.520  0.00  0.00     0.174 HD
HETATM   20  H           1     -33.108  -7.099 -11.680  0.00  0.00     0.177 HD
ENDBRANCH  11  12
ENDBRANCH  10  11
ENDBRANCH   9  10
ENDBRANCH   5   9
ENDBRANCH   3   5
BRANCH   2  21
HETATM   21  C           1     -33.082  -4.543 -16.649  0.00  0.00     0.280 C 
BRANCH  21  22
HETATM   22  N           1     -33.465  -3.384 -17.522  0.00  0.00    -0.066 N 
HETATM   23  H           1     -34.056  -3.725 -18.314  0.00  0.00     0.275 HD
HETATM   24  H           1     -32.602  -2.933 -17.900  0.00  0.00     0.275 HD
HETATM   25  H           1     -34.004  -2.687 -16.960  0.00  0.00     0.275 HD
ENDBRANCH  21  22
BRANCH  21  26
HETATM   26  C           1     -31.588  -4.488 -16.363  0.00  0.00     0.101 C 
BRANCH  26  27
HETATM   27  C           1     -30.893  -5.570 -17.129  0.00  0.00     0.028 A 
HETATM   28  N           1     -31.365  -6.850 -17.275  0.00  0.00    -0.355 N 
HETATM   29  C           1     -30.468  -7.468 -18.008  0.00  0.00     0.180 A 
ATOM     30  HN          1     -32.228  -7.238 -16.895  1.00  0.00     0.166 HD
HETATM   31  N           1     -29.436  -6.639 -18.343  0.00  0.00    -0.360 N 
HETATM   32  H           1     -28.597  -6.893 -18.921  0.00  0.00     0.166 HD
HETATM   33  C           1     -29.695  -5.416 -17.786  0.00  0.00     0.114 A 
ENDBRANCH  26  27
ENDBRANCH  21  26
ENDBRANCH   2  21
TORSDOF 10
ENDMDL
MODEL 2
REMARK VINA RESULT:      -7.5      3.855      6.907
REMARK  10 active torsions:
REMARK  status: ('A' for Active; 'I' for Inactive)
REMARK    1  A    between atoms: C_1  and  C_2 
REMARK    2  A    between atoms: C_2  and  C_5 
REMARK    3  A    between atoms: C_2  and  N_22 
REMARK    4  A    between atoms: C_5  and  C_6 
REMARK    5  A    between atoms: C_6  and  C_30 
REMARK       I    between atoms: N_7  and  C_8 
REMARK       I    between atoms: C_8  and  N_9 
REMARK    6  A    between atoms: N_15  and  C_20 
REMARK    7  A    between atoms: C_18  and  C_19 
REMARK    8  A    between atoms: C_19  and  C_20 
REMARK    9  A    between atoms: C_20  and  C_21 
REMARK       I    between atoms: C_21  and  N_22 
REMARK   10  A    between atoms: N_25  and  C_30 
ROOT
HETATM    1  H           1     -36.747  -2.713 -11.386  0.00  0.00     0.163 HD
HETATM    2  C           1     -34.763  -2.982 -11.910  0.00  0.00     0.249 C 
HETATM    3  N           1     -35.881  -2.246 -11.629  0.00  0.00    -0.345 N 
HETATM    4  O           1     -33.730  -2.426 -12.200  0.00  0.00    -0.271 OA
ENDROOT
BRANCH   3   5
HETATM    5  C           1     -35.828  -0.797 -11.679  0.00  0.00     0.185 C 
BRANCH   5   6
HETATM    6  C           1     -36.640  -0.225 -10.543  0.00  0.00     0.196 C 
HETATM    7  O           1     -36.270  -0.396  -9.361  0.00  0.00    -0.646 OA
HETATM    8  O           1     -37.684   0.419 -10.784  0.00  0.00    -0.646 OA
ENDBRANCH   5   6
BRANCH   5   9
HETATM    9  C           1     -36.399  -0.313 -13.005  0.00  0.00     0.038 C 
BRANCH   9  10
HETATM   10  C           1     -35.456   0.714 -13.620  0.00  0.00     0.023 C 
BRANCH  10  11
HETATM   11  C           1     -35.502   0.600 -15.137  0.00  0.00     0.138 C 
BRANCH  11  12
HETATM   12  N           1     -34.876  -0.662 -15.554  0.00  0.00    -0.227 N 
HETATM   13  C           1     -35.359  -1.320 -16.523  0.00  0.00     0.665 C 
HETATM   14  N           1     -36.382  -0.889 -17.132  0.00  0.00    -0.235 N 
HETATM   15  N           1     -34.807  -2.437 -16.891  0.00  0.00    -0.235 N 
HETATM   16  H           1     -36.829   0.014 -16.834  0.00  0.00     0.174 HD
HETATM   17  H           1     -36.783  -1.433 -17.935  0.00  0.00     0.174 HD
HETATM   18  H           1     -33.963  -2.793 -16.388  0.00  0.00     0.174 HD
HETATM   19  H           1     -35.205  -2.979 -17.690  0.00  0.00     0.174 HD
HETATM   20  H           1     -34.029  -1.020 -15.049  0.00  0.00     0.177 HD
ENDBRANCH  11  12
ENDBRANCH  10  11
ENDBRANCH   9  10
ENDBRANCH   5   9
ENDBRANCH   3   5
BRANCH   2  21
HETATM   21  C           1     -34.818  -4.490 -11.859  0.00  0.00     0.280 C 
BRANCH  21  22
HETATM   22  N           1     -34.687  -5.042 -13.248  0.00  0.00    -0.066 N 
HETATM   23  H           1     -33.675  -5.102 -13.504  0.00  0.00     0.275 HD
HETATM   24  H           1     -35.180  -4.413 -13.920  0.00  0.00     0.275 HD
HETATM   25  H           1     -35.113  -5.995 -13.285  0.00  0.00     0.275 HD
ENDBRANCH  21  22
BRANCH  21  26
HETATM   26  C           1     -33.677  -5.012 -10.996  0.00  0.00     0.101 C 
BRANCH  26  27
HETATM   27  C           1     -34.018  -6.380 -10.493  0.00  0.00     0.028 A 
HETATM   28  N           1     -33.233  -7.492 -10.666  0.00  0.00    -0.355 N 
HETATM   29  C           1     -33.885  -8.471 -10.082  0.00  0.00     0.180 A 
ATOM     30  HN          1     -32.335  -7.547 -11.146  1.00  0.00     0.166 HD
HETATM   31  N           1     -35.060  -8.035  -9.538  0.00  0.00    -0.360 N 
HETATM   32  H           1     -35.759  -8.621  -9.018  0.00  0.00     0.166 HD
HETATM   33  C           1     -35.158  -6.695  -9.794  0.00  0.00     0.114 A 
ENDBRANCH  26  27
ENDBRANCH  21  26
ENDBRANCH   2  21
TORSDOF 10
ENDMDL
MODEL 3
REMARK VINA RESULT:      -6.9     13.638     14.712
REMARK  10 active torsions:
REMARK  status: ('A' for Active; 'I' for Inactive)
REMARK    1  A    between atoms: C_1  and  C_2 
REMARK    2  A    between atoms: C_2  and  C_5 
REMARK    3  A    between atoms: C_2  and  N_22 
REMARK    4  A    between atoms: C_5  and  C_6 
REMARK    5  A    between atoms: C_6  and  C_30 
REMARK       I    between atoms: N_7  and  C_8 
REMARK       I    between atoms: C_8  and  N_9 
REMARK    6  A    between atoms: N_15  and  C_20 
REMARK    7  A    between atoms: C_18  and  C_19 
REMARK    8  A    between atoms: C_19  and  C_20 
REMARK    9  A    between atoms: C_20  and  C_21 
REMARK       I    between atoms: C_21  and  N_22 
REMARK   10  A    between atoms: N_25  and  C_30 
ROOT
HETATM    1  H           1     -22.051  -6.582  -6.564  0.00  0.00     0.163 HD
HETATM    2  C           1     -20.822  -4.960  -6.191  0.00  0.00     0.249 C 
HETATM    3  N           1     -21.411  -6.160  -5.902  0.00  0.00    -0.345 N 
HETATM    4  O           1     -20.058  -4.456  -5.403  0.00  0.00    -0.271 OA
ENDROOT
BRANCH   3   5
HETATM    5  C           1     -21.120  -6.828  -4.649  0.00  0.00     0.185 C 
BRANCH   5   6
HETATM    6  C           1     -21.064  -8.319  -4.875  0.00  0.00     0.196 C 
HETATM    7  O           1     -21.131  -8.779  -6.036  0.00  0.00    -0.646 OA
HETATM    8  O           1     -20.951  -9.095  -3.901  0.00  0.00    -0.646 OA
ENDBRANCH   5   6
BRANCH   5   9
HETATM    9  C           1     -22.212  -6.509  -3.637  0.00  0.00     0.038 C 
BRANCH   9  10
HETATM   10  C           1     -21.579  -6.000  -2.348  0.00  0.00     0.023 C 
BRANCH  10  11
HETATM   11  C           1     -22.299  -6.610  -1.153  0.00  0.00     0.138 C 
BRANCH  11  12
HETATM   12  N           1     -22.086  -8.064  -1.142  0.00  0.00    -0.227 N 
HETATM   13  C           1     -22.693  -8.787  -0.296  0.00  0.00     0.665 C 
HETATM   14  N           1     -23.482  -8.256   0.540  0.00  0.00    -0.235 N 
HETATM   15  N           1     -22.505 -10.073  -0.286  0.00  0.00    -0.235 N 
HETATM   16  H           1     -23.633  -7.216   0.531  0.00  0.00     0.174 HD
HETATM   17  H           1     -23.984  -8.854   1.241  0.00  0.00     0.174 HD
HETATM   18  H           1     -21.854 -10.511  -0.976  0.00  0.00     0.174 HD
HETATM   19  H           1     -23.005 -10.669   0.411  0.00  0.00     0.174 HD
HETATM   20  H           1     -21.433  -8.505  -1.834  0.00  0.00     0.177 HD
ENDBRANCH  11  12
ENDBRANCH  10  11
ENDBRANCH   9  10
ENDBRANCH   5   9
ENDBRANCH   3   5
BRANCH   2  21
HETATM   21  C           1     -21.125  -4.264  -7.496  0.00  0.00     0.280 C 
BRANCH  21  22
HETATM   22  N           1     -19.847  -3.770  -8.108  0.00  0.00    -0.066 N 
HETATM   23  H           1     -19.885  -2.730  -8.201  0.00  0.00     0.275 HD
HETATM   24  H           1     -19.725  -4.200  -9.052  0.00  0.00     0.275 HD
HETATM   25  H           1     -19.042  -4.037  -7.497  0.00  0.00     0.275 HD
ENDBRANCH  21  22
BRANCH  21  26
HETATM   26  C           1     -21.798  -5.242  -8.450  0.00  0.00     0.101 C 
BRANCH  26  27
HETATM   27  C           1     -22.962  -4.572  -9.112  0.00  0.00     0.028 A 
HETATM   28  N           1     -23.819  -3.702  -8.488  0.00  0.00    -0.355 N 
HETATM   29  C           1     -24.685  -3.348  -9.410  0.00  0.00     0.180 A 
ATOM     30  HN          1     -23.790  -3.394  -7.516  1.00  0.00     0.166 HD
HETATM   31  N           1     -24.421  -3.955 -10.604  0.00  0.00    -0.360 N 
HETATM   32  H           1     -24.965  -3.838 -11.495  0.00  0.00     0.166 HD
HETATM   33  C           1     -23.317  -4.744 -10.429  0.00  0.00     0.114 A 
ENDBRANCH  26  27
ENDBRANCH  21  26
ENDBRANCH   2  21
TORSDOF 10
ENDMDL
MODEL 4
REMARK VINA RESULT:      -6.4     13.828     15.063
REMARK  10 active torsions:
REMARK  status: ('A' for Active; 'I' for Inactive)
REMARK    1  A    between atoms: C_1  and  C_2 
REMARK    2  A    between atoms: C_2  and  C_5 
REMARK    3  A    between atoms: C_2  and  N_22 
REMARK    4  A    between atoms: C_5  and  C_6 
REMARK    5  A    between atoms: C_6  and  C_30 
REMARK       I    between atoms: N_7  and  C_8 
REMARK       I    between atoms: C_8  and  N_9 
REMARK    6  A    between atoms: N_15  and  C_20 
REMARK    7  A    between atoms: C_18  and  C_19 
REMARK    8  A    between atoms: C_19  and  C_20 
REMARK    9  A    between atoms: C_20  and  C_21 
REMARK       I    between atoms: C_21  and  N_22 
REMARK   10  A    between atoms: N_25  and  C_30 
ROOT
HETATM    1  H           1     -19.974  -6.378  -4.975  0.00  0.00     0.163 HD
HETATM    2  C           1     -21.816  -5.740  -5.670  0.00  0.00     0.249 C 
HETATM    3  N           1     -20.977  -6.498  -4.900  0.00  0.00    -0.345 N 
HETATM    4  O           1     -23.012  -5.883  -5.582  0.00  0.00    -0.271 OA
ENDROOT
BRANCH   3   5
HETATM    5  C           1     -21.523  -7.475  -3.978  0.00  0.00     0.185 C 
BRANCH   5   6
HETATM    6  C           1     -21.572  -6.883  -2.591  0.00  0.00     0.196 C 
HETATM    7  O           1     -22.355  -5.942  -2.339  0.00  0.00    -0.646 OA
HETATM    8  O           1     -20.827  -7.335  -1.693  0.00  0.00    -0.646 OA
ENDBRANCH   5   6
BRANCH   5   9
HETATM    9  C           1     -20.641  -8.716  -3.970  0.00  0.00     0.038 C 
BRANCH   9  10
HETATM   10  C           1     -21.474  -9.935  -4.346  0.00  0.00     0.023 C 
BRANCH  10  11
HETATM   11  C           1     -22.233 -10.428  -3.122  0.00  0.00     0.138 C 
BRANCH  11  12
HETATM   12  N           1     -21.298 -10.603  -2.002  0.00  0.00    -0.227 N 
HETATM   13  C           1     -21.630 -10.236  -0.835  0.00  0.00     0.665 C 
HETATM   14  N           1     -22.769  -9.718  -0.635  0.00  0.00    -0.235 N 
HETATM   15  N           1     -20.803 -10.389   0.156  0.00  0.00    -0.235 N 
HETATM   16  H           1     -23.437  -9.594  -1.436  0.00  0.00     0.174 HD
HETATM   17  H           1     -23.045  -9.414   0.331  0.00  0.00     0.174 HD
HETATM   18  H           1     -19.864 -10.816  -0.010  0.00  0.00     0.174 HD
HETATM   19  H           1     -21.077 -10.087   1.117  0.00  0.00     0.174 HD
HETATM   20  H           1     -20.355 -11.031  -2.167  0.00  0.00     0.177 HD
ENDBRANCH  11  12
ENDBRANCH  10  11
ENDBRANCH   9  10
ENDBRANCH   5   9
ENDBRANCH   3   5
BRANCH   2  21
HETATM   21  C           1     -21.247  -4.723  -6.631  0.00  0.00     0.280 C 
BRANCH  21  22
HETATM   22  N           1     -19.804  -4.479  -6.303  0.00  0.00    -0.066 N 
HETATM   23  H           1     -19.618  -3.451  -6.292  0.00  0.00     0.275 HD
HETATM   24  H           1     -19.202  -4.934  -7.025  0.00  0.00     0.275 HD
HETATM   25  H           1     -19.587  -4.883  -5.364  0.00  0.00     0.275 HD
ENDBRANCH  21  22
BRANCH  21  26
HETATM   26  C           1     -21.362  -5.249  -8.055  0.00  0.00     0.101 C 
BRANCH  26  27
HETATM   27  C           1     -22.434  -4.497  -8.781  0.00  0.00     0.028 A 
HETATM   28  N           1     -23.625  -4.107  -8.225  0.00  0.00    -0.355 N 
HETATM   29  C           1     -24.268  -3.483  -9.185  0.00  0.00     0.180 A 
ATOM     30  HN          1     -23.944  -4.266  -7.269  1.00  0.00     0.166 HD
HETATM   31  N           1     -23.539  -3.456 -10.340  0.00  0.00    -0.360 N 
HETATM   32  H           1     -23.830  -3.018 -11.249  0.00  0.00     0.166 HD
HETATM   33  C           1     -22.358  -4.102 -10.095  0.00  0.00     0.114 A 
ENDBRANCH  26  27
ENDBRANCH  21  26
ENDBRANCH   2  21
TORSDOF 10
ENDMDL
MODEL 5
REMARK VINA RESULT:      -6.3     14.595     15.917
REMARK  10 active torsions:
REMARK  status: ('A' for Active; 'I' for Inactive)
REMARK    1  A    between atoms: C_1  and  C_2 
REMARK    2  A    between atoms: C_2  and  C_5 
REMARK    3  A    between atoms: C_2  and  N_22 
REMARK    4  A    between atoms: C_5  and  C_6 
REMARK    5  A    between atoms: C_6  and  C_30 
REMARK       I    between atoms: N_7  and  C_8 
REMARK       I    between atoms: C_8  and  N_9 
REMARK    6  A    between atoms: N_15  and  C_20 
REMARK    7  A    between atoms: C_18  and  C_19 
REMARK    8  A    between atoms: C_19  and  C_20 
REMARK    9  A    between atoms: C_20  and  C_21 
REMARK       I    between atoms: C_21  and  N_22 
REMARK   10  A    between atoms: N_25  and  C_30 
ROOT
HETATM    1  H           1     -21.310  -8.213  -4.178  0.00  0.00     0.163 HD
HETATM    2  C           1     -20.590  -7.123  -5.783  0.00  0.00     0.249 C 
HETATM    3  N           1     -20.535  -8.093  -4.819  0.00  0.00    -0.345 N 
HETATM    4  O           1     -19.666  -6.978  -6.548  0.00  0.00    -0.271 OA
ENDROOT
BRANCH   3   5
HETATM    5  C           1     -19.368  -8.947  -4.714  0.00  0.00     0.185 C 
BRANCH   5   6
HETATM    6  C           1     -19.675 -10.294  -5.321  0.00  0.00     0.196 C 
HETATM    7  O           1     -18.869 -11.240  -5.186  0.00  0.00    -0.646 OA
HETATM    8  O           1     -20.736 -10.463  -5.961  0.00  0.00    -0.646 OA
ENDBRANCH   5   6
BRANCH   5   9
HETATM    9  C           1     -18.996  -9.124  -3.248  0.00  0.00     0.038 C 
BRANCH   9  10
HETATM   10  C           1     -20.261  -9.334  -2.426  0.00  0.00     0.023 C 
BRANCH  10  11
HETATM   11  C           1     -20.388  -8.220  -1.396  0.00  0.00     0.138 C 
BRANCH  11  12
HETATM   12  N           1     -21.479  -8.536  -0.463  0.00  0.00    -0.227 N 
HETATM   13  C           1     -22.448  -7.732  -0.325  0.00  0.00     0.665 C 
HETATM   14  N           1     -22.476  -6.655  -0.991  0.00  0.00    -0.235 N 
HETATM   15  N           1     -23.413  -8.011   0.500  0.00  0.00    -0.235 N 
HETATM   16  H           1     -21.696  -6.430  -1.657  0.00  0.00     0.174 HD
HETATM   17  H           1     -23.279  -5.988  -0.876  0.00  0.00     0.174 HD
HETATM   18  H           1     -23.390  -8.900   1.049  0.00  0.00     0.174 HD
HETATM   19  H           1     -24.212  -7.348   0.614  0.00  0.00     0.174 HD
HETATM   20  H           1     -21.457  -9.429   0.089  0.00  0.00     0.177 HD
ENDBRANCH  11  12
ENDBRANCH  10  11
ENDBRANCH   9  10
ENDBRANCH   5   9
ENDBRANCH   3   5
BRANCH   2  21
HETATM   21  C           1     -21.805  -6.234  -5.891  0.00  0.00     0.280 C 
BRANCH  21  22
HETATM   22  N           1     -22.489  -6.159  -4.559  0.00  0.00    -0.066 N 
HETATM   23  H           1     -22.867  -5.195  -4.415  0.00  0.00     0.275 HD
HETATM   24  H           1     -21.803  -6.380  -3.803  0.00  0.00     0.275 HD
HETATM   25  H           1     -23.274  -6.848  -4.530  0.00  0.00     0.275 HD
ENDBRANCH  21  22
BRANCH  21  26
HETATM   26  C           1     -21.376  -4.837  -6.320  0.00  0.00     0.101 C 
BRANCH  26  27
HETATM   27  C           1     -22.118  -4.446  -7.561  0.00  0.00     0.028 A 
HETATM   28  N           1     -23.468  -4.214  -7.621  0.00  0.00    -0.355 N 
HETATM   29  C           1     -23.710  -3.901  -8.874  0.00  0.00     0.180 A 
ATOM     30  HN          1     -24.141  -4.271  -6.857  1.00  0.00     0.166 HD
HETATM   31  N           1     -22.569  -3.921  -9.624  0.00  0.00    -0.360 N 
HETATM   32  H           1     -22.496  -3.708 -10.650  0.00  0.00     0.166 HD
HETATM   33  C           1     -21.538  -4.269  -8.794  0.00  0.00     0.114 A 
ENDBRANCH  26  27
ENDBRANCH  21  26
ENDBRANCH   2  21
TORSDOF 10
ENDMDL
MODEL 6
REMARK VINA RESULT:      -6.3     14.571     15.769
REMARK  10 active torsions:
REMARK  status: ('A' for Active; 'I' for Inactive)
REMARK    1  A    between atoms: C_1  and  C_2 
REMARK    2  A    between atoms: C_2  and  C_5 
REMARK    3  A    between atoms: C_2  and  N_22 
REMARK    4  A    between atoms: C_5  and  C_6 
REMARK    5  A    between atoms: C_6  and  C_30 
REMARK       I    between atoms: N_7  and  C_8 
REMARK       I    between atoms: C_8  and  N_9 
REMARK    6  A    between atoms: N_15  and  C_20 
REMARK    7  A    between atoms: C_18  and  C_19 
REMARK    8  A    between atoms: C_19  and  C_20 
REMARK    9  A    between atoms: C_20  and  C_21 
REMARK       I    between atoms: C_21  and  N_22 
REMARK   10  A    between atoms: N_25  and  C_30 
ROOT
HETATM    1  H           1     -20.070  -6.418  -4.800  0.00  0.00     0.163 HD
HETATM    2  C           1     -21.869  -5.762  -5.585  0.00  0.00     0.249 C 
HETATM    3  N           1     -21.077  -6.517  -4.763  0.00  0.00    -0.345 N 
HETATM    4  O           1     -23.070  -5.880  -5.543  0.00  0.00    -0.271 OA
ENDROOT
BRANCH   3   5
HETATM    5  C           1     -21.680  -7.460  -3.841  0.00  0.00     0.185 C 
BRANCH   5   6
HETATM    6  C           1     -21.627  -6.896  -2.441  0.00  0.00     0.196 C 
HETATM    7  O           1     -22.322  -5.902  -2.141  0.00  0.00    -0.646 OA
HETATM    8  O           1     -20.887  -7.425  -1.583  0.00  0.00    -0.646 OA
ENDBRANCH   5   6
BRANCH   5   9
HETATM    9  C           1     -20.917  -8.776  -3.887  0.00  0.00     0.038 C 
BRANCH   9  10
HETATM   10  C           1     -19.774  -8.666  -4.888  0.00  0.00     0.023 C 
BRANCH  10  11
HETATM   11  C           1     -18.890  -9.903  -4.788  0.00  0.00     0.138 C 
BRANCH  11  12
HETATM   12  N           1     -17.547  -9.511  -4.341  0.00  0.00    -0.227 N 
HETATM   13  C           1     -17.167  -9.781  -3.163  0.00  0.00     0.665 C 
HETATM   14  N           1     -17.946 -10.389  -2.370  0.00  0.00    -0.235 N 
HETATM   15  N           1     -15.979  -9.435  -2.766  0.00  0.00    -0.235 N 
HETATM   16  H           1     -18.906 -10.668  -2.691  0.00  0.00     0.174 HD
HETATM   17  H           1     -17.632 -10.613  -1.394  0.00  0.00     0.174 HD
HETATM   18  H           1     -15.336  -8.933  -3.420  0.00  0.00     0.174 HD
HETATM   19  H           1     -15.666  -9.657  -1.795  0.00  0.00     0.174 HD
HETATM   20  H           1     -16.900  -9.007  -4.996  0.00  0.00     0.177 HD
ENDBRANCH  11  12
ENDBRANCH  10  11
ENDBRANCH   9  10
ENDBRANCH   5   9
ENDBRANCH   3   5
BRANCH   2  21
HETATM   21  C           1     -21.242  -4.781  -6.546  0.00  0.00     0.280 C 
BRANCH  21  22
HETATM   22  N           1     -19.795  -4.594  -6.195  0.00  0.00    -0.066 N 
HETATM   23  H           1     -19.289  -5.501  -6.308  0.00  0.00     0.275 HD
HETATM   24  H           1     -19.717  -4.272  -5.204  0.00  0.00     0.275 HD
HETATM   25  H           1     -19.373  -3.877  -6.827  0.00  0.00     0.275 HD
ENDBRANCH  21  22
BRANCH  21  26
HETATM   26  C           1     -21.352  -5.319  -7.967  0.00  0.00     0.101 C 
BRANCH  26  27
HETATM   27  C           1     -22.387  -4.540  -8.716  0.00  0.00     0.028 A 
HETATM   28  N           1     -23.582  -4.120  -8.188  0.00  0.00    -0.355 N 
HETATM   29  C           1     -24.185  -3.480  -9.163  0.00  0.00     0.180 A 
ATOM     30  HN          1     -23.927  -4.272  -7.241  1.00  0.00     0.166 HD
HETATM   31  N           1     -23.428  -3.468 -10.299  0.00  0.00    -0.360 N 
HETATM   32  H           1     -23.686  -3.022 -11.214  0.00  0.00     0.166 HD
HETATM   33  C           1     -22.270  -4.145 -10.028  0.00  0.00     0.114 A 
ENDBRANCH  26  27
ENDBRANCH  21  26
ENDBRANCH   2  21
TORSDOF 10
ENDMDL
MODEL 7
REMARK VINA RESULT:      -6.1     14.077     15.773
REMARK  10 active torsions:
REMARK  status: ('A' for Active; 'I' for Inactive)
REMARK    1  A    between atoms: C_1  and  C_2 
REMARK    2  A    between atoms: C_2  and  C_5 
REMARK    3  A    between atoms: C_2  and  N_22 
REMARK    4  A    between atoms: C_5  and  C_6 
REMARK    5  A    between atoms: C_6  and  C_30 
REMARK       I    between atoms: N_7  and  C_8 
REMARK       I    between atoms: C_8  and  N_9 
REMARK    6  A    between atoms: N_15  and  C_20 
REMARK    7  A    between atoms: C_18  and  C_19 
REMARK    8  A    between atoms: C_19  and  C_20 
REMARK    9  A    between atoms: C_20  and  C_21 
REMARK       I    between atoms: C_21  and  N_22 
REMARK   10  A    between atoms: N_25  and  C_30 
ROOT
HETATM    1  H           1     -21.256  -8.582  -6.284  0.00  0.00     0.163 HD
HETATM    2  C           1     -19.963  -9.063  -4.741  0.00  0.00     0.249 C 
HETATM    3  N           1     -20.668  -8.211  -5.548  0.00  0.00    -0.345 N 
HETATM    4  O           1     -19.261  -8.621  -3.863  0.00  0.00    -0.271 OA
ENDROOT
BRANCH   3   5
HETATM    5  C           1     -20.573  -6.778  -5.348  0.00  0.00     0.185 C 
BRANCH   5   6
HETATM    6  C           1     -21.845  -6.275  -4.708  0.00  0.00     0.196 C 
HETATM    7  O           1     -22.847  -6.033  -5.415  0.00  0.00    -0.646 OA
HETATM    8  O           1     -21.894  -6.100  -3.471  0.00  0.00    -0.646 OA
ENDBRANCH   5   6
BRANCH   5   9
HETATM    9  C           1     -20.374  -6.089  -6.691  0.00  0.00     0.038 C 
BRANCH   9  10
HETATM   10  C           1     -19.977  -4.636  -6.463  0.00  0.00     0.023 C 
BRANCH  10  11
HETATM   11  C           1     -20.590  -3.765  -7.551  0.00  0.00     0.138 C 
BRANCH  11  12
HETATM   12  N           1     -22.053  -3.757  -7.406  0.00  0.00    -0.227 N 
HETATM   13  C           1     -22.790  -3.994  -8.409  0.00  0.00     0.665 C 
HETATM   14  N           1     -22.267  -4.238  -9.536  0.00  0.00    -0.235 N 
HETATM   15  N           1     -24.084  -3.987  -8.281  0.00  0.00    -0.235 N 
HETATM   16  H           1     -21.222  -4.244  -9.638  0.00  0.00     0.174 HD
HETATM   17  H           1     -22.877  -4.435 -10.367  0.00  0.00     0.174 HD
HETATM   18  H           1     -24.516  -3.785  -7.351  0.00  0.00     0.174 HD
HETATM   19  H           1     -24.692  -4.183  -9.108  0.00  0.00     0.174 HD
HETATM   20  H           1     -22.487  -3.555  -6.473  0.00  0.00     0.177 HD
ENDBRANCH  11  12
ENDBRANCH  10  11
ENDBRANCH   9  10
ENDBRANCH   5   9
ENDBRANCH   3   5
BRANCH   2  21
HETATM   21  C           1     -20.061 -10.555  -4.949  0.00  0.00     0.280 C 
BRANCH  21  22
HETATM   22  N           1     -20.178 -11.238  -3.619  0.00  0.00    -0.066 N 
HETATM   23  H           1     -19.226 -11.499  -3.277  0.00  0.00     0.275 HD
HETATM   24  H           1     -20.761 -12.099  -3.720  0.00  0.00     0.275 HD
HETATM   25  H           1     -20.629 -10.591  -2.934  0.00  0.00     0.275 HD
ENDBRANCH  21  22
BRANCH  21  26
HETATM   26  C           1     -21.290 -10.871  -5.791  0.00  0.00     0.101 C 
BRANCH  26  27
HETATM   27  C           1     -21.135 -12.225  -6.411  0.00  0.00     0.028 A 
HETATM   28  N           1     -21.991 -13.278  -6.210  0.00  0.00    -0.355 N 
HETATM   29  C           1     -21.501 -14.264  -6.926  0.00  0.00     0.180 A 
ATOM     30  HN          1     -22.829 -13.291  -5.630  1.00  0.00     0.166 HD
HETATM   31  N           1     -20.363 -13.890  -7.581  0.00  0.00    -0.360 N 
HETATM   32  H           1     -19.784 -14.495  -8.215  0.00  0.00     0.166 HD
HETATM   33  C           1     -20.115 -12.584  -7.261  0.00  0.00     0.114 A 
ENDBRANCH  26  27
ENDBRANCH  21  26
ENDBRANCH   2  21
TORSDOF 10
ENDMDL
MODEL 8
REMARK VINA RESULT:      -6.0     14.076     16.237
REMARK  10 active torsions:
REMARK  status: ('A' for Active; 'I' for Inactive)
REMARK    1  A    between atoms: C_1  and  C_2 
REMARK    2  A    between atoms: C_2  and  C_5 
REMARK    3  A    between atoms: C_2  and  N_22 
REMARK    4  A    between atoms: C_5  and  C_6 
REMARK    5  A    between atoms: C_6  and  C_30 
REMARK       I    between atoms: N_7  and  C_8 
REMARK       I    between atoms: C_8  and  N_9 
REMARK    6  A    between atoms: N_15  and  C_20 
REMARK    7  A    between atoms: C_18  and  C_19 
REMARK    8  A    between atoms: C_19  and  C_20 
REMARK    9  A    between atoms: C_20  and  C_21 
REMARK       I    between atoms: C_21  and  N_22 
REMARK   10  A    between atoms: N_25  and  C_30 
ROOT
HETATM    1  H           1     -21.872  -8.597  -6.321  0.00  0.00     0.163 HD
HETATM    2  C           1     -20.259  -9.092  -5.122  0.00  0.00     0.249 C 
HETATM    3  N           1     -21.116  -8.232  -5.754  0.00  0.00    -0.345 N 
HETATM    4  O           1     -19.357  -8.658  -4.446  0.00  0.00    -0.271 OA
ENDROOT
BRANCH   3   5
HETATM    5  C           1     -20.941  -6.800  -5.613  0.00  0.00     0.185 C 
BRANCH   5   6
HETATM    6  C           1     -22.037  -6.244  -4.736  0.00  0.00     0.196 C 
HETATM    7  O           1     -21.824  -6.044  -3.521  0.00  0.00    -0.646 OA
HETATM    8  O           1     -23.157  -5.985  -5.226  0.00  0.00    -0.646 OA
ENDBRANCH   5   6
BRANCH   5   9
HETATM    9  C           1     -21.007  -6.141  -6.985  0.00  0.00     0.038 C 
BRANCH   9  10
HETATM   10  C           1     -19.983  -5.016  -7.058  0.00  0.00     0.023 C 
BRANCH  10  11
HETATM   11  C           1     -20.667  -3.736  -7.518  0.00  0.00     0.138 C 
BRANCH  11  12
HETATM   12  N           1     -22.125  -3.895  -7.417  0.00  0.00    -0.227 N 
HETATM   13  C           1     -22.843  -3.835  -8.459  0.00  0.00     0.665 C 
HETATM   14  N           1     -22.304  -3.637  -9.588  0.00  0.00    -0.235 N 
HETATM   15  N           1     -24.132  -3.975  -8.370  0.00  0.00    -0.235 N 
HETATM   16  H           1     -21.263  -3.523  -9.659  0.00  0.00     0.174 HD
HETATM   17  H           1     -22.899  -3.586 -10.452  0.00  0.00     0.174 HD
HETATM   18  H           1     -24.576  -4.138  -7.438  0.00  0.00     0.174 HD
HETATM   19  H           1     -24.724  -3.925  -9.229  0.00  0.00     0.174 HD
HETATM   20  H           1     -22.572  -4.058  -6.482  0.00  0.00     0.177 HD
ENDBRANCH  11  12
ENDBRANCH  10  11
ENDBRANCH   9  10
ENDBRANCH   5   9
ENDBRANCH   3   5
BRANCH   2  21
HETATM   21  C           1     -20.440 -10.583  -5.270  0.00  0.00     0.280 C 
BRANCH  21  22
HETATM   22  N           1     -19.568 -11.085  -6.383  0.00  0.00    -0.066 N 
HETATM   23  H           1     -19.791 -10.564  -7.261  0.00  0.00     0.275 HD
HETATM   24  H           1     -19.743 -12.104  -6.528  0.00  0.00     0.275 HD
HETATM   25  H           1     -18.565 -10.936  -6.133  0.00  0.00     0.275 HD
ENDBRANCH  21  22
BRANCH  21  26
HETATM   26  C           1     -20.050 -11.274  -3.970  0.00  0.00     0.101 C 
BRANCH  26  27
HETATM   27  C           1     -21.165 -11.141  -2.980  0.00  0.00     0.028 A 
HETATM   28  N           1     -22.485 -11.394  -3.252  0.00  0.00    -0.355 N 
HETATM   29  C           1     -23.122 -11.160  -2.128  0.00  0.00     0.180 A 
ATOM     30  HN          1     -22.886 -11.699  -4.139  1.00  0.00     0.166 HD
HETATM   31  N           1     -22.265 -10.766  -1.140  0.00  0.00    -0.360 N 
HETATM   32  H           1     -22.526 -10.522  -0.152  0.00  0.00     0.166 HD
HETATM   33  C           1     -21.005 -10.750  -1.671  0.00  0.00     0.114 A 
ENDBRANCH  26  27
ENDBRANCH  21  26
ENDBRANCH   2  21
TORSDOF 10
ENDMDL
MODEL 9
REMARK VINA RESULT:      -5.9     15.364     16.854
REMARK  10 active torsions:
REMARK  status: ('A' for Active; 'I' for Inactive)
REMARK    1  A    between atoms: C_1  and  C_2 
REMARK    2  A    between atoms: C_2  and  C_5 
REMARK    3  A    between atoms: C_2  and  N_22 
REMARK    4  A    between atoms: C_5  and  C_6 
REMARK    5  A    between atoms: C_6  and  C_30 
REMARK       I    between atoms: N_7  and  C_8 
REMARK       I    between atoms: C_8  and  N_9 
REMARK    6  A    between atoms: N_15  and  C_20 
REMARK    7  A    between atoms: C_18  and  C_19 
REMARK    8  A    between atoms: C_19  and  C_20 
REMARK    9  A    between atoms: C_20  and  C_21 
REMARK       I    between atoms: C_21  and  N_22 
REMARK   10  A    between atoms: N_25  and  C_30 
ROOT
HETATM    1  H           1     -21.058  -8.705  -6.414  0.00  0.00     0.163 HD
HETATM    2  C           1     -19.638  -9.160  -4.980  0.00  0.00     0.249 C 
HETATM    3  N           1     -20.493  -8.336  -5.659  0.00  0.00    -0.345 N 
HETATM    4  O           1     -18.962  -8.722  -4.079  0.00  0.00    -0.271 OA
ENDROOT
BRANCH   3   5
HETATM    5  C           1     -20.588  -6.935  -5.298  0.00  0.00     0.185 C 
BRANCH   5   6
HETATM    6  C           1     -21.800  -6.722  -4.424  0.00  0.00     0.196 C 
HETATM    7  O           1     -21.734  -6.951  -3.197  0.00  0.00    -0.646 OA
HETATM    8  O           1     -22.871  -6.318  -4.927  0.00  0.00    -0.646 OA
ENDBRANCH   5   6
BRANCH   5   9
HETATM    9  C           1     -20.720  -6.092  -6.560  0.00  0.00     0.038 C 
BRANCH   9  10
HETATM   10  C           1     -20.278  -4.665  -6.267  0.00  0.00     0.023 C 
BRANCH  10  11
HETATM   11  C           1     -20.689  -3.758  -7.419  0.00  0.00     0.138 C 
BRANCH  11  12
HETATM   12  N           1     -22.153  -3.647  -7.458  0.00  0.00    -0.227 N 
HETATM   13  C           1     -22.773  -3.811  -8.551  0.00  0.00     0.665 C 
HETATM   14  N           1     -22.129  -4.069  -9.611  0.00  0.00    -0.235 N 
HETATM   15  N           1     -24.069  -3.712  -8.586  0.00  0.00    -0.235 N 
HETATM   16  H           1     -21.083  -4.148  -9.582  0.00  0.00     0.174 HD
HETATM   17  H           1     -22.642  -4.204 -10.517  0.00  0.00     0.174 HD
HETATM   18  H           1     -24.600  -3.499  -7.711  0.00  0.00     0.174 HD
HETATM   19  H           1     -24.579  -3.847  -9.487  0.00  0.00     0.174 HD
HETATM   20  H           1     -22.688  -3.433  -6.580  0.00  0.00     0.177 HD
ENDBRANCH  11  12
ENDBRANCH  10  11
ENDBRANCH   9  10
ENDBRANCH   5   9
ENDBRANCH   3   5
BRANCH   2  21
HETATM   21  C           1     -19.538 -10.619  -5.355  0.00  0.00     0.280 C 
BRANCH  21  22
HETATM   22  N           1     -20.726 -11.004  -6.186  0.00  0.00    -0.066 N 
HETATM   23  H           1     -20.589 -10.667  -7.166  0.00  0.00     0.275 HD
HETATM   24  H           1     -21.586 -10.568  -5.784  0.00  0.00     0.275 HD
HETATM   25  H           1     -20.830 -12.043  -6.185  0.00  0.00     0.275 HD
ENDBRANCH  21  22
BRANCH  21  26
HETATM   26  C           1     -18.263 -10.853  -6.155  0.00  0.00     0.101 C 
BRANCH  26  27
HETATM   27  C           1     -17.217 -11.447  -5.265  0.00  0.00     0.028 A 
HETATM   28  N           1     -16.624 -10.795  -4.214  0.00  0.00    -0.355 N 
HETATM   29  C           1     -15.777 -11.659  -3.703  0.00  0.00     0.180 A 
ATOM     30  HN          1     -16.803  -9.843  -3.896  1.00  0.00     0.166 HD
HETATM   31  N           1     -15.799 -12.844  -4.383  0.00  0.00    -0.360 N 
HETATM   32  H           1     -15.218 -13.692  -4.172  0.00  0.00     0.166 HD
HETATM   33  C           1     -16.720 -12.723  -5.388  0.00  0.00     0.114 A 
ENDBRANCH  26  27
ENDBRANCH  21  26
ENDBRANCH   2  21
TORSDOF 10
ENDMDL
