MODEL 1
REMARK VINA RESULT:      -6.3      0.000      0.000
REMARK  6 active torsions:
REMARK  status: ('A' for Active; 'I' for Inactive)
REMARK    1  A    between atoms: C_2  and  C_16 
REMARK    2  A    between atoms: N_5  and  C_16 
REMARK       I    between atoms: N_5  and  C_6 
REMARK    3  A    between atoms: C_6  and  C_7 
REMARK    4  A    between atoms: C_7  and  C_8 
REMARK    5  A    between atoms: C_7  and  N_12 
REMARK    6  A    between atoms: C_8  and  C_9 
REMARK       I    between atoms: C_9  and  N_10 
ROOT
HETATM    1  C           1     -34.277  -2.640 -11.774  0.00  0.00     0.283 C 
ENDROOT
BRANCH   1   2
HETATM    2  C           1     -35.213  -1.799 -12.607  0.00  0.00     0.249 C 
HETATM    3  N           1     -34.776  -1.248 -13.782  0.00  0.00    -0.345 N 
HETATM    4  H           1     -33.825  -1.404 -14.091  0.00  0.00     0.163 HD
HETATM    5  O           1     -36.348  -1.613 -12.239  0.00  0.00    -0.271 OA
BRANCH   3   6
HETATM    6  C           1     -35.675  -0.440 -14.583  0.00  0.00     0.181 C 
HETATM    7  C           1     -35.181   1.001 -14.604  0.00  0.00     0.043 C 
BRANCH   6   8
HETATM    8  C           1     -35.715  -0.980 -15.991  0.00  0.00     0.196 C 
HETATM    9  O           1     -35.085  -2.020 -16.280  0.00  0.00    -0.646 OA
HETATM   10  O           1     -36.377  -0.386 -16.870  0.00  0.00    -0.646 OA
ENDBRANCH   6   8
ENDBRANCH   3   6
ENDBRANCH   1   2
BRANCH   1  11
HETATM   11  C           1     -35.036  -3.828 -11.200  0.00  0.00     0.145 C 
BRANCH  11  12
HETATM   12  C           1     -34.659  -5.080 -11.954  0.00  0.00     0.217 C 
HETATM   13  N           1     -33.738  -5.945 -11.428  0.00  0.00    -0.370 N 
HETATM   14  H           1     -33.485  -6.783 -11.935  0.00  0.00     0.159 HD
HETATM   15  H           1     -33.309  -5.745 -10.534  0.00  0.00     0.159 HD
HETATM   16  O           1     -35.172  -5.319 -13.022  0.00  0.00    -0.274 OA
ENDBRANCH  11  12
ENDBRANCH   1  11
BRANCH   1  17
HETATM   17  N           1     -33.726  -1.811 -10.652  0.00  0.00    -0.066 N 
HETATM   18  H           1     -33.421  -0.881 -11.021  0.00  0.00     0.275 HD
HETATM   19  H           1     -34.465  -1.672  -9.926  0.00  0.00     0.275 HD
HETATM   20  H           1     -32.907  -2.301 -10.226  0.00  0.00     0.275 HD
ENDBRANCH   1  17
TORSDOF 6
ENDMDL
MODEL 2
REMARK VINA RESULT:      -6.3     13.352     15.047
REMARK  6 active torsions:
REMARK  status: ('A' for Active; 'I' for Inactive)
REMARK    1  A    between atoms: C_2  and  C_16 
REMARK    2  A    between atoms: N_5  and  C_16 
REMARK       I    between atoms: N_5  and  C_6 
REMARK    3  A    between atoms: C_6  and  C_7 
REMARK    4  A    between atoms: C_7  and  C_8 
REMARK    5  A    between atoms: C_7  and  N_12 
REMARK    6  A    between atoms: C_8  and  C_9 
REMARK       I    between atoms: C_9  and  N_10 
ROOT
HETATM    1  C           1     -21.859  -3.594 -10.440  0.00  0.00     0.283 C 
ENDROOT
BRANCH   1   2
HETATM    2  C           1     -20.958  -4.448  -9.582  0.00  0.00     0.249 C 
HETATM    3  N           1     -21.290  -4.697  -8.278  0.00  0.00    -0.345 N 
HETATM    4  H           1     -22.139  -4.309  -7.889  0.00  0.00     0.163 HD
HETATM    5  O           1     -19.944  -4.912 -10.046  0.00  0.00    -0.271 OA
BRANCH   3   6
HETATM    6  C           1     -20.424  -5.518  -7.453  0.00  0.00     0.181 C 
HETATM    7  C           1     -19.404  -4.632  -6.750  0.00  0.00     0.043 C 
BRANCH   6   8
HETATM    8  C           1     -21.254  -6.246  -6.424  0.00  0.00     0.196 C 
HETATM    9  O           1     -21.125  -7.480  -6.276  0.00  0.00    -0.646 OA
HETATM   10  O           1     -22.071  -5.614  -5.719  0.00  0.00    -0.646 OA
ENDBRANCH   6   8
ENDBRANCH   3   6
ENDBRANCH   1   2
BRANCH   1  11
HETATM   11  C           1     -23.133  -4.364 -10.760  0.00  0.00     0.145 C 
BRANCH  11  12
HETATM   12  C           1     -24.323  -3.627 -10.196  0.00  0.00     0.217 C 
HETATM   13  N           1     -24.455  -3.476  -8.842  0.00  0.00    -0.370 N 
HETATM   14  H           1     -25.253  -2.982  -8.463  0.00  0.00     0.159 HD
HETATM   15  H           1     -23.755  -3.859  -8.219  0.00  0.00     0.159 HD
HETATM   16  O           1     -25.159  -3.169 -10.939  0.00  0.00    -0.274 OA
ENDBRANCH  11  12
ENDBRANCH   1  11
BRANCH   1  17
HETATM   17  N           1     -21.151  -3.248 -11.716  0.00  0.00    -0.066 N 
HETATM   18  H           1     -21.201  -4.058 -12.375  0.00  0.00     0.275 HD
HETATM   19  H           1     -21.607  -2.415 -12.152  0.00  0.00     0.275 HD
HETATM   20  H           1     -20.150  -3.029 -11.511  0.00  0.00     0.275 HD
ENDBRANCH   1  17
TORSDOF 6
ENDMDL
MODEL 3
REMARK VINA RESULT:      -6.2      2.053      5.341
REMARK  6 active torsions:
REMARK  status: ('A' for Active; 'I' for Inactive)
REMARK    1  A    between atoms: C_2  and  C_16 
REMARK    2  A    between atoms: N_5  and  C_16 
REMARK       I    between atoms: N_5  and  C_6 
REMARK    3  A    between atoms: C_6  and  C_7 
REMARK    4  A    between atoms: C_7  and  C_8 
REMARK    5  A    between atoms: C_7  and  N_12 
REMARK    6  A    between atoms: C_8  and  C_9 
REMARK       I    between atoms: C_9  and  N_10 
ROOT
HETATM    1  C           1     -36.297   0.198 -13.624  0.00  0.00     0.283 C 
ENDROOT
BRANCH   1   2
HETATM    2  C           1     -35.443  -1.038 -13.480  0.00  0.00     0.249 C 
HETATM    3  N           1     -35.069  -1.470 -12.236  0.00  0.00    -0.345 N 
HETATM    4  H           1     -35.364  -0.960 -11.413  0.00  0.00     0.163 HD
HETATM    5  O           1     -35.091  -1.647 -14.461  0.00  0.00    -0.271 OA
BRANCH   3   6
HETATM    6  C           1     -34.248  -2.658 -12.097  0.00  0.00     0.181 C 
HETATM    7  C           1     -33.293  -2.480 -10.924  0.00  0.00     0.043 C 
BRANCH   6   8
HETATM    8  C           1     -35.134  -3.854 -11.849  0.00  0.00     0.196 C 
HETATM    9  O           1     -35.901  -3.870 -10.861  0.00  0.00    -0.646 OA
HETATM   10  O           1     -35.102  -4.829 -12.631  0.00  0.00    -0.646 OA
ENDBRANCH   6   8
ENDBRANCH   3   6
ENDBRANCH   1   2
BRANCH   1  11
HETATM   11  C           1     -37.647  -0.184 -14.217  0.00  0.00     0.145 C 
BRANCH  11  12
HETATM   12  C           1     -37.658   0.134 -15.692  0.00  0.00     0.217 C 
HETATM   13  N           1     -37.224  -0.798 -16.596  0.00  0.00    -0.370 N 
HETATM   14  H           1     -37.231  -0.584 -17.585  0.00  0.00     0.159 HD
HETATM   15  H           1     -36.895  -1.699 -16.276  0.00  0.00     0.159 HD
HETATM   16  O           1     -38.051   1.210 -16.075  0.00  0.00    -0.274 OA
ENDBRANCH  11  12
ENDBRANCH   1  11
BRANCH   1  17
HETATM   17  N           1     -35.612   1.175 -14.531  0.00  0.00    -0.066 N 
HETATM   18  H           1     -36.223   1.376 -15.355  0.00  0.00     0.275 HD
HETATM   19  H           1     -35.426   2.062 -14.011  0.00  0.00     0.275 HD
HETATM   20  H           1     -34.707   0.769 -14.862  0.00  0.00     0.275 HD
ENDBRANCH   1  17
TORSDOF 6
ENDMDL
MODEL 4
REMARK VINA RESULT:      -5.9     13.480     14.579
REMARK  6 active torsions:
REMARK  status: ('A' for Active; 'I' for Inactive)
REMARK    1  A    between atoms: C_2  and  C_16 
REMARK    2  A    between atoms: N_5  and  C_16 
REMARK       I    between atoms: N_5  and  C_6 
REMARK    3  A    between atoms: C_6  and  C_7 
REMARK    4  A    between atoms: C_7  and  C_8 
REMARK    5  A    between atoms: C_7  and  N_12 
REMARK    6  A    between atoms: C_8  and  C_9 
REMARK       I    between atoms: C_9  and  N_10 
ROOT
HETATM    1  C           1     -21.218  -5.715  -6.819  0.00  0.00     0.283 C 
ENDROOT
BRANCH   1   2
HETATM    2  C           1     -21.663  -4.545  -7.661  0.00  0.00     0.249 C 
HETATM    3  N           1     -22.255  -4.762  -8.877  0.00  0.00    -0.345 N 
HETATM    4  H           1     -22.393  -5.707  -9.211  0.00  0.00     0.163 HD
HETATM    5  O           1     -21.499  -3.416  -7.263  0.00  0.00    -0.271 OA
BRANCH   3   6
HETATM    6  C           1     -22.683  -3.637  -9.686  0.00  0.00     0.181 C 
HETATM    7  C           1     -21.777  -3.514 -10.904  0.00  0.00     0.043 C 
BRANCH   6   8
HETATM    8  C           1     -24.106  -3.856 -10.137  0.00  0.00     0.196 C 
HETATM    9  O           1     -24.694  -2.975 -10.801  0.00  0.00    -0.646 OA
HETATM   10  O           1     -24.697  -4.919  -9.846  0.00  0.00    -0.646 OA
ENDBRANCH   6   8
ENDBRANCH   3   6
ENDBRANCH   1   2
BRANCH   1  11
HETATM   11  C           1     -20.953  -5.245  -5.395  0.00  0.00     0.145 C 
BRANCH  11  12
HETATM   12  C           1     -21.270  -6.359  -4.428  0.00  0.00     0.217 C 
HETATM   13  N           1     -21.996  -6.099  -3.298  0.00  0.00    -0.370 N 
HETATM   14  H           1     -22.208  -6.847  -2.650  0.00  0.00     0.159 HD
HETATM   15  H           1     -22.319  -5.159  -3.109  0.00  0.00     0.159 HD
HETATM   16  O           1     -20.884  -7.482  -4.653  0.00  0.00    -0.274 OA
ENDBRANCH  11  12
ENDBRANCH   1  11
BRANCH   1  17
HETATM   17  N           1     -19.961  -6.295  -7.395  0.00  0.00    -0.066 N 
HETATM   18  H           1     -19.964  -7.333  -7.268  0.00  0.00     0.275 HD
HETATM   19  H           1     -19.908  -6.069  -8.414  0.00  0.00     0.275 HD
HETATM   20  H           1     -19.133  -5.888  -6.905  0.00  0.00     0.275 HD
ENDBRANCH   1  17
TORSDOF 6
ENDMDL
MODEL 5
REMARK VINA RESULT:      -5.8      2.234      5.533
REMARK  6 active torsions:
REMARK  status: ('A' for Active; 'I' for Inactive)
REMARK    1  A    between atoms: C_2  and  C_16 
REMARK    2  A    between atoms: N_5  and  C_16 
REMARK       I    between atoms: N_5  and  C_6 
REMARK    3  A    between atoms: C_6  and  C_7 
REMARK    4  A    between atoms: C_7  and  C_8 
REMARK    5  A    between atoms: C_7  and  N_12 
REMARK    6  A    between atoms: C_8  and  C_9 
REMARK       I    between atoms: C_9  and  N_10 
ROOT
HETATM    1  C           1     -36.162   0.022 -13.731  0.00  0.00     0.283 C 
ENDROOT
BRANCH   1   2
HETATM    2  C           1     -35.899  -1.098 -12.755  0.00  0.00     0.249 C 
HETATM    3  N           1     -34.870  -1.973 -12.978  0.00  0.00    -0.345 N 
HETATM    4  H           1     -34.286  -1.869 -13.798  0.00  0.00     0.163 HD
HETATM    5  O           1     -36.595  -1.222 -11.775  0.00  0.00    -0.271 OA
BRANCH   3   6
HETATM    6  C           1     -34.617  -3.050 -12.040  0.00  0.00     0.181 C 
HETATM    7  C           1     -34.470  -4.361 -12.800  0.00  0.00     0.043 C 
BRANCH   6   8
HETATM    8  C           1     -33.346  -2.764 -11.278  0.00  0.00     0.196 C 
HETATM    9  O           1     -33.300  -1.806 -10.476  0.00  0.00    -0.646 OA
HETATM   10  O           1     -32.339  -3.484 -11.450  0.00  0.00    -0.646 OA
ENDBRANCH   6   8
ENDBRANCH   3   6
ENDBRANCH   1   2
BRANCH   1  11
HETATM   11  C           1     -37.608  -0.045 -14.204  0.00  0.00     0.145 C 
BRANCH  11  12
HETATM   12  C           1     -37.677   0.311 -15.669  0.00  0.00     0.217 C 
HETATM   13  N           1     -37.929   1.602 -16.048  0.00  0.00    -0.370 N 
HETATM   14  H           1     -37.975   1.840 -17.030  0.00  0.00     0.159 HD
HETATM   15  H           1     -38.071   2.318 -15.347  0.00  0.00     0.159 HD
HETATM   16  O           1     -37.507  -0.542 -16.507  0.00  0.00    -0.274 OA
ENDBRANCH  11  12
ENDBRANCH   1  11
BRANCH   1  17
HETATM   17  N           1     -35.244  -0.117 -14.909  0.00  0.00    -0.066 N 
HETATM   18  H           1     -34.548   0.663 -14.904  0.00  0.00     0.275 HD
HETATM   19  H           1     -34.743  -1.032 -14.854  0.00  0.00     0.275 HD
HETATM   20  H           1     -35.802  -0.078 -15.792  0.00  0.00     0.275 HD
ENDBRANCH   1  17
TORSDOF 6
ENDMDL
MODEL 6
REMARK VINA RESULT:      -5.5     13.897     15.690
REMARK  6 active torsions:
REMARK  status: ('A' for Active; 'I' for Inactive)
REMARK    1  A    between atoms: C_2  and  C_16 
REMARK    2  A    between atoms: N_5  and  C_16 
REMARK       I    between atoms: N_5  and  C_6 
REMARK    3  A    between atoms: C_6  and  C_7 
REMARK    4  A    between atoms: C_7  and  C_8 
REMARK    5  A    between atoms: C_7  and  N_12 
REMARK    6  A    between atoms: C_8  and  C_9 
REMARK       I    between atoms: C_9  and  N_10 
ROOT
HETATM    1  C           1     -22.772  -4.531  -9.114  0.00  0.00     0.283 C 
ENDROOT
BRANCH   1   2
HETATM    2  C           1     -21.559  -4.964  -8.329  0.00  0.00     0.249 C 
HETATM    3  N           1     -21.698  -5.398  -7.038  0.00  0.00    -0.345 N 
HETATM    4  H           1     -22.615  -5.428  -6.610  0.00  0.00     0.163 HD
HETATM    5  O           1     -20.465  -4.929  -8.839  0.00  0.00    -0.271 OA
BRANCH   3   6
HETATM    6  C           1     -20.532  -5.815  -6.283  0.00  0.00     0.181 C 
HETATM    7  C           1     -20.106  -4.692  -5.347  0.00  0.00     0.043 C 
BRANCH   6   8
HETATM    8  C           1     -20.869  -7.043  -5.475  0.00  0.00     0.196 C 
HETATM    9  O           1     -21.166  -8.111  -6.054  0.00  0.00    -0.646 OA
HETATM   10  O           1     -20.853  -6.994  -4.226  0.00  0.00    -0.646 OA
ENDBRANCH   6   8
ENDBRANCH   3   6
ENDBRANCH   1   2
BRANCH   1  11
HETATM   11  C           1     -22.390  -3.396 -10.055  0.00  0.00     0.145 C 
BRANCH  11  12
HETATM   12  C           1     -22.005  -3.964 -11.399  0.00  0.00     0.217 C 
HETATM   13  N           1     -20.716  -3.853 -11.845  0.00  0.00    -0.370 N 
HETATM   14  H           1     -20.458  -4.233 -12.747  0.00  0.00     0.159 HD
HETATM   15  H           1     -20.021  -3.390 -11.274  0.00  0.00     0.159 HD
HETATM   16  O           1     -22.835  -4.517 -12.082  0.00  0.00    -0.274 OA
ENDBRANCH  11  12
ENDBRANCH   1  11
BRANCH   1  17
HETATM   17  N           1     -23.836  -4.058  -8.168  0.00  0.00    -0.066 N 
HETATM   18  H           1     -23.415  -3.410  -7.464  0.00  0.00     0.275 HD
HETATM   19  H           1     -24.580  -3.556  -8.704  0.00  0.00     0.275 HD
HETATM   20  H           1     -24.255  -4.880  -7.676  0.00  0.00     0.275 HD
ENDBRANCH   1  17
TORSDOF 6
ENDMDL
MODEL 7
REMARK VINA RESULT:      -5.3     14.738     16.773
REMARK  6 active torsions:
REMARK  status: ('A' for Active; 'I' for Inactive)
REMARK    1  A    between atoms: C_2  and  C_16 
REMARK    2  A    between atoms: N_5  and  C_16 
REMARK       I    between atoms: N_5  and  C_6 
REMARK    3  A    between atoms: C_6  and  C_7 
REMARK    4  A    between atoms: C_7  and  C_8 
REMARK    5  A    between atoms: C_7  and  N_12 
REMARK    6  A    between atoms: C_8  and  C_9 
REMARK       I    between atoms: C_9  and  N_10 
ROOT
HETATM    1  C           1     -20.702  -4.960  -6.774  0.00  0.00     0.283 C 
ENDROOT
BRANCH   1   2
HETATM    2  C           1     -21.549  -5.734  -5.794  0.00  0.00     0.249 C 
HETATM    3  N           1     -20.971  -6.673  -4.982  0.00  0.00    -0.345 N 
HETATM    4  H           1     -19.976  -6.848  -5.040  0.00  0.00     0.163 HD
HETATM    5  O           1     -22.737  -5.525  -5.725  0.00  0.00    -0.271 OA
BRANCH   3   6
HETATM    6  C           1     -21.784  -7.417  -4.040  0.00  0.00     0.181 C 
HETATM    7  C           1     -21.371  -8.883  -4.061  0.00  0.00     0.043 C 
BRANCH   6   8
HETATM    8  C           1     -21.586  -6.857  -2.654  0.00  0.00     0.196 C 
HETATM    9  O           1     -22.267  -5.882  -2.270  0.00  0.00    -0.646 OA
HETATM   10  O           1     -20.740  -7.368  -1.888  0.00  0.00    -0.646 OA
ENDBRANCH   6   8
ENDBRANCH   3   6
ENDBRANCH   1   2
BRANCH   1  11
HETATM   11  C           1     -21.390  -3.643  -7.110  0.00  0.00     0.145 C 
BRANCH  11  12
HETATM   12  C           1     -22.291  -3.836  -8.306  0.00  0.00     0.217 C 
HETATM   13  N           1     -23.620  -4.109  -8.124  0.00  0.00    -0.370 N 
HETATM   14  H           1     -24.224  -4.239  -8.926  0.00  0.00     0.159 HD
HETATM   15  H           1     -23.999  -4.183  -7.189  0.00  0.00     0.159 HD
HETATM   16  O           1     -21.840  -3.749  -9.423  0.00  0.00    -0.274 OA
ENDBRANCH  11  12
ENDBRANCH   1  11
BRANCH   1  17
HETATM   17  N           1     -20.525  -5.765  -8.026  0.00  0.00    -0.066 N 
HETATM   18  H           1     -21.431  -5.809  -8.545  0.00  0.00     0.275 HD
HETATM   19  H           1     -19.800  -5.316  -8.630  0.00  0.00     0.275 HD
HETATM   20  H           1     -20.220  -6.733  -7.778  0.00  0.00     0.275 HD
ENDBRANCH   1  17
TORSDOF 6
ENDMDL
MODEL 8
REMARK VINA RESULT:      -5.2     13.853     14.854
REMARK  6 active torsions:
REMARK  status: ('A' for Active; 'I' for Inactive)
REMARK    1  A    between atoms: C_2  and  C_16 
REMARK    2  A    between atoms: N_5  and  C_16 
REMARK       I    between atoms: N_5  and  C_6 
REMARK    3  A    between atoms: C_6  and  C_7 
REMARK    4  A    between atoms: C_7  and  C_8 
REMARK    5  A    between atoms: C_7  and  N_12 
REMARK    6  A    between atoms: C_8  and  C_9 
REMARK       I    between atoms: C_9  and  N_10 
ROOT
HETATM    1  C           1     -21.602  -4.240  -6.816  0.00  0.00     0.283 C 
ENDROOT
BRANCH   1   2
HETATM    2  C           1     -21.384  -4.603  -8.264  0.00  0.00     0.249 C 
HETATM    3  N           1     -22.317  -4.256  -9.205  0.00  0.00    -0.345 N 
HETATM    4  H           1     -23.153  -3.757  -8.928  0.00  0.00     0.163 HD
HETATM    5  O           1     -20.386  -5.198  -8.594  0.00  0.00    -0.271 OA
BRANCH   3   6
HETATM    6  C           1     -22.107  -4.604 -10.597  0.00  0.00     0.181 C 
HETATM    7  C           1     -23.454  -4.793 -11.281  0.00  0.00     0.043 C 
BRANCH   6   8
HETATM    8  C           1     -21.345  -3.497 -11.282  0.00  0.00     0.196 C 
HETATM    9  O           1     -20.117  -3.615 -11.485  0.00  0.00    -0.646 OA
HETATM   10  O           1     -21.941  -2.460 -11.646  0.00  0.00    -0.646 OA
ENDBRANCH   6   8
ENDBRANCH   3   6
ENDBRANCH   1   2
BRANCH   1  11
HETATM   11  C           1     -20.447  -4.773  -5.979  0.00  0.00     0.145 C 
BRANCH  11  12
HETATM   12  C           1     -20.830  -6.103  -5.378  0.00  0.00     0.217 C 
HETATM   13  N           1     -20.516  -7.264  -6.031  0.00  0.00    -0.370 N 
HETATM   14  H           1     -20.774  -8.156  -5.628  0.00  0.00     0.159 HD
HETATM   15  H           1     -20.029  -7.232  -6.917  0.00  0.00     0.159 HD
HETATM   16  O           1     -21.412  -6.143  -4.320  0.00  0.00    -0.274 OA
ENDBRANCH  11  12
ENDBRANCH   1  11
BRANCH   1  17
HETATM   17  N           1     -22.887  -4.848  -6.337  0.00  0.00    -0.066 N 
HETATM   18  H           1     -22.948  -4.763  -5.297  0.00  0.00     0.275 HD
HETATM   19  H           1     -23.694  -4.348  -6.775  0.00  0.00     0.275 HD
HETATM   20  H           1     -22.916  -5.858  -6.605  0.00  0.00     0.275 HD
ENDBRANCH   1  17
TORSDOF 6
ENDMDL
MODEL 9
REMARK VINA RESULT:      -5.2     25.487     26.598
REMARK  6 active torsions:
REMARK  status: ('A' for Active; 'I' for Inactive)
REMARK    1  A    between atoms: C_2  and  C_16 
REMARK    2  A    between atoms: N_5  and  C_16 
REMARK       I    between atoms: N_5  and  C_6 
REMARK    3  A    between atoms: C_6  and  C_7 
REMARK    4  A    between atoms: C_7  and  C_8 
REMARK    5  A    between atoms: C_7  and  N_12 
REMARK    6  A    between atoms: C_8  and  C_9 
REMARK       I    between atoms: C_9  and  N_10 
ROOT
HETATM    1  C           1     -10.237   6.594 -19.605  0.00  0.00     0.283 C 
ENDROOT
BRANCH   1   2
HETATM    2  C           1     -11.515   5.919 -20.038  0.00  0.00     0.249 C 
HETATM    3  N           1     -11.483   4.945 -21.000  0.00  0.00    -0.345 N 
HETATM    4  H           1     -10.602   4.678 -21.421  0.00  0.00     0.163 HD
HETATM    5  O           1     -12.566   6.237 -19.536  0.00  0.00    -0.271 OA
BRANCH   3   6
HETATM    6  C           1     -12.711   4.296 -21.417  0.00  0.00     0.181 C 
HETATM    7  C           1     -12.946   4.558 -22.898  0.00  0.00     0.043 C 
BRANCH   6   8
HETATM    8  C           1     -12.600   2.810 -21.179  0.00  0.00     0.196 C 
HETATM    9  O           1     -11.509   2.314 -20.823  0.00  0.00    -0.646 OA
HETATM   10  O           1     -13.598   2.075 -21.338  0.00  0.00    -0.646 OA
ENDBRANCH   6   8
ENDBRANCH   3   6
ENDBRANCH   1   2
BRANCH   1  11
HETATM   11  C           1      -9.593   7.279 -20.803  0.00  0.00     0.145 C 
BRANCH  11  12
HETATM   12  C           1      -9.599   8.774 -20.593  0.00  0.00     0.217 C 
HETATM   13  N           1      -9.961   9.292 -19.379  0.00  0.00    -0.370 N 
HETATM   14  H           1      -9.966  10.295 -19.238  0.00  0.00     0.159 HD
HETATM   15  H           1     -10.225   8.675 -18.622  0.00  0.00     0.159 HD
HETATM   16  O           1      -9.284   9.512 -21.495  0.00  0.00    -0.274 OA
ENDBRANCH  11  12
ENDBRANCH   1  11
BRANCH   1  17
HETATM   17  N           1      -9.294   5.567 -19.051  0.00  0.00    -0.066 N 
HETATM   18  H           1      -9.786   4.993 -18.329  0.00  0.00     0.275 HD
HETATM   19  H           1      -8.962   4.946 -19.823  0.00  0.00     0.275 HD
HETATM   20  H           1      -8.475   6.046 -18.614  0.00  0.00     0.275 HD
ENDBRANCH   1  17
TORSDOF 6
ENDMDL
