MODEL 1
REMARK VINA RESULT:      -7.3      0.000      0.000
REMARK  7 active torsions:
REMARK  status: ('A' for Active; 'I' for Inactive)
REMARK    1  A    between atoms: C_3  and  C_5 
REMARK    2  A    between atoms: C_3  and  C_13 
REMARK    3  A    between atoms: C_3  and  N_17 
REMARK       I    between atoms: C_5  and  N_8 
REMARK    4  A    between atoms: C_6  and  O_20 
REMARK    5  A    between atoms: N_8  and  C_16 
REMARK    6  A    between atoms: C_13  and  C_18 
REMARK    7  A    between atoms: C_15  and  C_16 
ROOT
HETATM    1  C           1     -36.004  -0.440 -11.297  0.00  0.00     0.278 C 
ENDROOT
BRANCH   1   2
HETATM    2  C           1     -36.776  -0.336 -12.589  0.00  0.00     0.249 C 
HETATM    3  N           1     -36.160   0.129 -13.720  0.00  0.00    -0.349 N 
HETATM    4  H           1     -35.186   0.403 -13.688  0.00  0.00     0.163 HD
HETATM    5  O           1     -37.939  -0.663 -12.626  0.00  0.00    -0.271 OA
BRANCH   3   6
HETATM    6  C           1     -36.902   0.228 -14.961  0.00  0.00     0.235 C 
BRANCH   6   7
HETATM    7  C           1     -36.287  -0.690 -15.990  0.00  0.00     0.191 C 
HETATM    8  O           1     -35.342  -1.442 -15.670  0.00  0.00    -0.647 OA
HETATM    9  O           1     -36.725  -0.698 -17.161  0.00  0.00    -0.647 OA
ENDBRANCH   6   7
ENDBRANCH   3   6
ENDBRANCH   1   2
BRANCH   1  10
HETATM   10  C           1     -36.342  -1.755 -10.607  0.00  0.00     0.081 C 
BRANCH  10  11
HETATM   11  C           1     -35.268  -2.759 -10.892  0.00  0.00    -0.056 A 
HETATM   12  C           1     -33.965  -2.333 -11.149  0.00  0.00     0.010 A 
HETATM   13  C           1     -32.965  -3.268 -11.414  0.00  0.00     0.037 A 
HETATM   14  C           1     -33.269  -4.630 -11.422  0.00  0.00     0.065 A 
HETATM   15  C           1     -34.572  -5.056 -11.165  0.00  0.00     0.037 A 
HETATM   16  C           1     -35.572  -4.120 -10.901  0.00  0.00     0.010 A 
BRANCH  14  17
HETATM   17  O           1     -32.297  -5.539 -11.679  0.00  0.00    -0.361 OA
HETATM   18  H           1     -32.287  -5.706 -12.637  0.00  0.00     0.217 HD
ENDBRANCH  14  17
ENDBRANCH  10  11
ENDBRANCH   1  10
BRANCH   1  19
HETATM   19  N           1     -36.375   0.704 -10.401  0.00  0.00    -0.066 N 
HETATM   20  H           1     -36.946   1.396 -10.937  0.00  0.00     0.275 HD
HETATM   21  H           1     -35.507   1.168 -10.050  0.00  0.00     0.275 HD
HETATM   22  H           1     -36.930   0.347  -9.591  0.00  0.00     0.275 HD
ENDBRANCH   1  19
TORSDOF 7
ENDMDL
MODEL 2
REMARK VINA RESULT:      -6.9     13.590     16.425
REMARK  7 active torsions:
REMARK  status: ('A' for Active; 'I' for Inactive)
REMARK    1  A    between atoms: C_3  and  C_5 
REMARK    2  A    between atoms: C_3  and  C_13 
REMARK    3  A    between atoms: C_3  and  N_17 
REMARK       I    between atoms: C_5  and  N_8 
REMARK    4  A    between atoms: C_6  and  O_20 
REMARK    5  A    between atoms: N_8  and  C_16 
REMARK    6  A    between atoms: C_13  and  C_18 
REMARK    7  A    between atoms: C_15  and  C_16 
ROOT
HETATM    1  C           1     -22.256  -5.337  -6.743  0.00  0.00     0.278 C 
ENDROOT
BRANCH   1   2
HETATM    2  C           1     -21.422  -6.014  -5.684  0.00  0.00     0.249 C 
HETATM    3  N           1     -21.989  -6.369  -4.489  0.00  0.00    -0.349 N 
HETATM    4  H           1     -22.967  -6.177  -4.317  0.00  0.00     0.163 HD
HETATM    5  O           1     -20.254  -6.244  -5.890  0.00  0.00    -0.271 OA
BRANCH   3   6
HETATM    6  C           1     -21.187  -7.021  -3.472  0.00  0.00     0.235 C 
BRANCH   6   7
HETATM    7  C           1     -21.805  -6.782  -2.115  0.00  0.00     0.191 C 
HETATM    8  O           1     -21.540  -7.550  -1.165  0.00  0.00    -0.647 OA
HETATM    9  O           1     -22.581  -5.817  -1.943  0.00  0.00    -0.647 OA
ENDBRANCH   6   7
ENDBRANCH   3   6
ENDBRANCH   1   2
BRANCH   1  10
HETATM   10  C           1     -21.559  -4.063  -7.201  0.00  0.00     0.081 C 
BRANCH  10  11
HETATM   11  C           1     -21.582  -3.990  -8.697  0.00  0.00    -0.056 A 
HETATM   12  C           1     -20.418  -4.242  -9.424  0.00  0.00     0.010 A 
HETATM   13  C           1     -20.440  -4.175 -10.817  0.00  0.00     0.037 A 
HETATM   14  C           1     -21.624  -3.855 -11.482  0.00  0.00     0.065 A 
HETATM   15  C           1     -22.787  -3.605 -10.754  0.00  0.00     0.037 A 
HETATM   16  C           1     -22.765  -3.671  -9.361  0.00  0.00     0.010 A 
BRANCH  14  17
HETATM   17  O           1     -21.644  -3.791 -12.836  0.00  0.00    -0.361 OA
HETATM   18  H           1     -22.314  -3.137 -13.096  0.00  0.00     0.217 HD
ENDBRANCH  14  17
ENDBRANCH  10  11
ENDBRANCH   1  10
BRANCH   1  19
HETATM   19  N           1     -23.601  -4.995  -6.176  0.00  0.00    -0.066 N 
HETATM   20  H           1     -23.702  -3.956  -6.121  0.00  0.00     0.275 HD
HETATM   21  H           1     -23.691  -5.404  -5.219  0.00  0.00     0.275 HD
HETATM   22  H           1     -24.350  -5.385  -6.792  0.00  0.00     0.275 HD
ENDBRANCH   1  19
TORSDOF 7
ENDMDL
MODEL 3
REMARK VINA RESULT:      -6.8      9.609     11.554
REMARK  7 active torsions:
REMARK  status: ('A' for Active; 'I' for Inactive)
REMARK    1  A    between atoms: C_3  and  C_5 
REMARK    2  A    between atoms: C_3  and  C_13 
REMARK    3  A    between atoms: C_3  and  N_17 
REMARK       I    between atoms: C_5  and  N_8 
REMARK    4  A    between atoms: C_6  and  O_20 
REMARK    5  A    between atoms: N_8  and  C_16 
REMARK    6  A    between atoms: C_13  and  C_18 
REMARK    7  A    between atoms: C_15  and  C_16 
ROOT
HETATM    1  C           1     -27.088  -6.510 -17.007  0.00  0.00     0.278 C 
ENDROOT
BRANCH   1   2
HETATM    2  C           1     -25.917  -6.640 -17.949  0.00  0.00     0.249 C 
HETATM    3  N           1     -26.133  -6.855 -19.284  0.00  0.00    -0.349 N 
HETATM    4  H           1     -27.078  -6.928 -19.638  0.00  0.00     0.163 HD
HETATM    5  O           1     -24.788  -6.553 -17.526  0.00  0.00    -0.271 OA
BRANCH   3   6
HETATM    6  C           1     -25.008  -6.979 -20.189  0.00  0.00     0.235 C 
BRANCH   6   7
HETATM    7  C           1     -25.357  -7.941 -21.298  0.00  0.00     0.191 C 
HETATM    8  O           1     -26.455  -8.538 -21.284  0.00  0.00    -0.647 OA
HETATM    9  O           1     -24.548  -8.140 -22.230  0.00  0.00    -0.647 OA
ENDBRANCH   6   7
ENDBRANCH   3   6
ENDBRANCH   1   2
BRANCH   1  10
HETATM   10  C           1     -27.218  -5.062 -16.553  0.00  0.00     0.081 C 
BRANCH  10  11
HETATM   11  C           1     -28.596  -4.563 -16.862  0.00  0.00    -0.056 A 
HETATM   12  C           1     -28.785  -3.240 -17.261  0.00  0.00     0.010 A 
HETATM   13  C           1     -30.068  -2.775 -17.548  0.00  0.00     0.037 A 
HETATM   14  C           1     -31.162  -3.634 -17.436  0.00  0.00     0.065 A 
HETATM   15  C           1     -30.972  -4.957 -17.037  0.00  0.00     0.037 A 
HETATM   16  C           1     -29.689  -5.421 -16.749  0.00  0.00     0.010 A 
BRANCH  14  17
HETATM   17  O           1     -32.409  -3.182 -17.717  0.00  0.00    -0.361 OA
HETATM   18  H           1     -32.829  -3.816 -18.321  0.00  0.00     0.217 HD
ENDBRANCH  14  17
ENDBRANCH  10  11
ENDBRANCH   1  10
BRANCH   1  19
HETATM   19  N           1     -26.866  -7.390 -15.812  0.00  0.00    -0.066 N 
HETATM   20  H           1     -27.607  -7.201 -15.100  0.00  0.00     0.275 HD
HETATM   21  H           1     -25.928  -7.188 -15.400  0.00  0.00     0.275 HD
HETATM   22  H           1     -26.911  -8.392 -16.104  0.00  0.00     0.275 HD
ENDBRANCH   1  19
TORSDOF 7
ENDMDL
MODEL 4
REMARK VINA RESULT:      -6.6      9.967     11.378
REMARK  7 active torsions:
REMARK  status: ('A' for Active; 'I' for Inactive)
REMARK    1  A    between atoms: C_3  and  C_5 
REMARK    2  A    between atoms: C_3  and  C_13 
REMARK    3  A    between atoms: C_3  and  N_17 
REMARK       I    between atoms: C_5  and  N_8 
REMARK    4  A    between atoms: C_6  and  O_20 
REMARK    5  A    between atoms: N_8  and  C_16 
REMARK    6  A    between atoms: C_13  and  C_18 
REMARK    7  A    between atoms: C_15  and  C_16 
ROOT
HETATM    1  C           1     -27.502  -5.908 -17.687  0.00  0.00     0.278 C 
ENDROOT
BRANCH   1   2
HETATM    2  C           1     -28.347  -4.725 -17.288  0.00  0.00     0.249 C 
HETATM    3  N           1     -29.498  -4.443 -17.973  0.00  0.00    -0.349 N 
HETATM    4  H           1     -29.781  -5.029 -18.748  0.00  0.00     0.163 HD
HETATM    5  O           1     -28.008  -4.026 -16.362  0.00  0.00    -0.271 OA
BRANCH   3   6
HETATM    6  C           1     -30.311  -3.306 -17.588  0.00  0.00     0.235 C 
BRANCH   6   7
HETATM    7  C           1     -31.729  -3.761 -17.342  0.00  0.00     0.191 C 
HETATM    8  O           1     -31.946  -4.884 -16.839  0.00  0.00    -0.647 OA
HETATM    9  O           1     -32.685  -3.013 -17.640  0.00  0.00    -0.647 OA
ENDBRANCH   6   7
ENDBRANCH   3   6
ENDBRANCH   1   2
BRANCH   1  10
HETATM   10  C           1     -27.624  -6.138 -19.188  0.00  0.00     0.081 C 
BRANCH  10  11
HETATM   11  C           1     -26.385  -6.811 -19.693  0.00  0.00    -0.056 A 
HETATM   12  C           1     -25.202  -6.737 -18.958  0.00  0.00     0.010 A 
HETATM   13  C           1     -24.048  -7.364 -19.429  0.00  0.00     0.037 A 
HETATM   14  C           1     -24.078  -8.065 -20.635  0.00  0.00     0.065 A 
HETATM   15  C           1     -25.262  -8.139 -21.369  0.00  0.00     0.037 A 
HETATM   16  C           1     -26.415  -7.511 -20.899  0.00  0.00     0.010 A 
BRANCH  14  17
HETATM   17  O           1     -22.957  -8.675 -21.092  0.00  0.00    -0.361 OA
HETATM   18  H           1     -22.335  -7.985 -21.377  0.00  0.00     0.217 HD
ENDBRANCH  14  17
ENDBRANCH  10  11
ENDBRANCH   1  10
BRANCH   1  19
HETATM   19  N           1     -27.974  -7.130 -16.955  0.00  0.00    -0.066 N 
HETATM   20  H           1     -28.613  -6.844 -16.179  0.00  0.00     0.275 HD
HETATM   21  H           1     -27.152  -7.639 -16.560  0.00  0.00     0.275 HD
HETATM   22  H           1     -28.487  -7.756 -17.616  0.00  0.00     0.275 HD
ENDBRANCH   1  19
TORSDOF 7
ENDMDL
MODEL 5
REMARK VINA RESULT:      -6.6      1.898      2.545
REMARK  7 active torsions:
REMARK  status: ('A' for Active; 'I' for Inactive)
REMARK    1  A    between atoms: C_3  and  C_5 
REMARK    2  A    between atoms: C_3  and  C_13 
REMARK    3  A    between atoms: C_3  and  N_17 
REMARK       I    between atoms: C_5  and  N_8 
REMARK    4  A    between atoms: C_6  and  O_20 
REMARK    5  A    between atoms: N_8  and  C_16 
REMARK    6  A    between atoms: C_13  and  C_18 
REMARK    7  A    between atoms: C_15  and  C_16 
ROOT
HETATM    1  C           1     -34.195  -2.284 -11.420  0.00  0.00     0.278 C 
ENDROOT
BRANCH   1   2
HETATM    2  C           1     -34.769  -1.197 -12.294  0.00  0.00     0.249 C 
HETATM    3  N           1     -35.022  -1.444 -13.617  0.00  0.00    -0.349 N 
HETATM    4  H           1     -34.823  -2.356 -14.008  0.00  0.00     0.163 HD
HETATM    5  O           1     -35.005  -0.108 -11.827  0.00  0.00    -0.271 OA
BRANCH   3   6
HETATM    6  C           1     -35.574  -0.399 -14.456  0.00  0.00     0.235 C 
BRANCH   6   7
HETATM    7  C           1     -35.646  -0.885 -15.884  0.00  0.00     0.191 C 
HETATM    8  O           1     -35.127  -1.978 -16.198  0.00  0.00    -0.647 OA
HETATM    9  O           1     -36.224  -0.195 -16.750  0.00  0.00    -0.647 OA
ENDBRANCH   6   7
ENDBRANCH   3   6
ENDBRANCH   1   2
BRANCH   1  10
HETATM   10  C           1     -35.307  -3.232 -10.991  0.00  0.00     0.081 C 
BRANCH  10  11
HETATM   11  C           1     -34.750  -4.613 -10.824  0.00  0.00    -0.056 A 
HETATM   12  C           1     -35.490  -5.586 -10.153  0.00  0.00     0.010 A 
HETATM   13  C           1     -34.972  -6.872  -9.999  0.00  0.00     0.037 A 
HETATM   14  C           1     -33.714  -7.184 -10.515  0.00  0.00     0.065 A 
HETATM   15  C           1     -32.975  -6.210 -11.186  0.00  0.00     0.037 A 
HETATM   16  C           1     -33.493  -4.924 -11.340  0.00  0.00     0.010 A 
BRANCH  14  17
HETATM   17  O           1     -33.211  -8.434 -10.365  0.00  0.00    -0.361 OA
HETATM   18  H           1     -32.280  -8.353 -10.099  0.00  0.00     0.217 HD
ENDBRANCH  14  17
ENDBRANCH  10  11
ENDBRANCH   1  10
BRANCH   1  19
HETATM   19  N           1     -33.567  -1.668 -10.205  0.00  0.00    -0.066 N 
HETATM   20  H           1     -32.837  -2.312  -9.826  0.00  0.00     0.275 HD
HETATM   21  H           1     -34.300  -1.506  -9.478  0.00  0.00     0.275 HD
HETATM   22  H           1     -33.126  -0.757 -10.464  0.00  0.00     0.275 HD
ENDBRANCH   1  19
TORSDOF 7
ENDMDL
MODEL 6
REMARK VINA RESULT:      -6.5      8.801     10.366
REMARK  7 active torsions:
REMARK  status: ('A' for Active; 'I' for Inactive)
REMARK    1  A    between atoms: C_3  and  C_5 
REMARK    2  A    between atoms: C_3  and  C_13 
REMARK    3  A    between atoms: C_3  and  N_17 
REMARK       I    between atoms: C_5  and  N_8 
REMARK    4  A    between atoms: C_6  and  O_20 
REMARK    5  A    between atoms: N_8  and  C_16 
REMARK    6  A    between atoms: C_13  and  C_18 
REMARK    7  A    between atoms: C_15  and  C_16 
ROOT
HETATM    1  C           1     -28.855  -6.808 -17.100  0.00  0.00     0.278 C 
ENDROOT
BRANCH   1   2
HETATM    2  C           1     -29.944  -5.956 -16.499  0.00  0.00     0.249 C 
HETATM    3  N           1     -31.059  -5.651 -17.232  0.00  0.00    -0.349 N 
HETATM    4  H           1     -31.152  -5.997 -18.179  0.00  0.00     0.163 HD
HETATM    5  O           1     -29.833  -5.542 -15.369  0.00  0.00    -0.271 OA
BRANCH   3   6
HETATM    6  C           1     -32.106  -4.832 -16.654  0.00  0.00     0.235 C 
BRANCH   6   7
HETATM    7  C           1     -32.116  -3.480 -17.325  0.00  0.00     0.191 C 
HETATM    8  O           1     -33.203  -2.920 -17.585  0.00  0.00    -0.647 OA
HETATM    9  O           1     -31.038  -2.921 -17.621  0.00  0.00    -0.647 OA
ENDBRANCH   6   7
ENDBRANCH   3   6
ENDBRANCH   1   2
BRANCH   1  10
HETATM   10  C           1     -28.178  -6.046 -18.232  0.00  0.00     0.081 C 
BRANCH  10  11
HETATM   11  C           1     -26.723  -6.398 -18.272  0.00  0.00    -0.056 A 
HETATM   12  C           1     -26.008  -6.543 -17.084  0.00  0.00     0.010 A 
HETATM   13  C           1     -24.653  -6.871 -17.121  0.00  0.00     0.037 A 
HETATM   14  C           1     -24.013  -7.054 -18.348  0.00  0.00     0.065 A 
HETATM   15  C           1     -24.730  -6.910 -19.536  0.00  0.00     0.037 A 
HETATM   16  C           1     -26.084  -6.581 -19.498  0.00  0.00     0.010 A 
BRANCH  14  17
HETATM   17  O           1     -22.696  -7.374 -18.384  0.00  0.00    -0.361 OA
HETATM   18  H           1     -22.267  -6.963 -17.615  0.00  0.00     0.217 HD
ENDBRANCH  14  17
ENDBRANCH  10  11
ENDBRANCH   1  10
BRANCH   1  19
HETATM   19  N           1     -29.452  -8.075 -17.638  0.00  0.00    -0.066 N 
HETATM   20  H           1     -30.204  -7.841 -18.325  0.00  0.00     0.275 HD
HETATM   21  H           1     -29.859  -8.630 -16.851  0.00  0.00     0.275 HD
HETATM   22  H           1     -28.710  -8.637 -18.112  0.00  0.00     0.275 HD
ENDBRANCH   1  19
TORSDOF 7
ENDMDL
MODEL 7
REMARK VINA RESULT:      -6.4     14.382     17.240
REMARK  7 active torsions:
REMARK  status: ('A' for Active; 'I' for Inactive)
REMARK    1  A    between atoms: C_3  and  C_5 
REMARK    2  A    between atoms: C_3  and  C_13 
REMARK    3  A    between atoms: C_3  and  N_17 
REMARK       I    between atoms: C_5  and  N_8 
REMARK    4  A    between atoms: C_6  and  O_20 
REMARK    5  A    between atoms: N_8  and  C_16 
REMARK    6  A    between atoms: C_13  and  C_18 
REMARK    7  A    between atoms: C_15  and  C_16 
ROOT
HETATM    1  C           1     -20.467  -6.155  -5.419  0.00  0.00     0.278 C 
ENDROOT
BRANCH   1   2
HETATM    2  C           1     -21.552  -6.178  -4.372  0.00  0.00     0.249 C 
HETATM    3  N           1     -21.221  -6.159  -3.044  0.00  0.00    -0.349 N 
HETATM    4  H           1     -20.249  -6.131  -2.765  0.00  0.00     0.163 HD
HETATM    5  O           1     -22.713  -6.211  -4.706  0.00  0.00    -0.271 OA
BRANCH   3   6
HETATM    6  C           1     -22.265  -6.180  -2.037  0.00  0.00     0.235 C 
BRANCH   6   7
HETATM    7  C           1     -21.979  -7.275  -1.038  0.00  0.00     0.191 C 
HETATM    8  O           1     -20.886  -7.880  -1.071  0.00  0.00    -0.647 OA
HETATM    9  O           1     -22.836  -7.575  -0.179  0.00  0.00    -0.647 OA
ENDBRANCH   6   7
ENDBRANCH   3   6
ENDBRANCH   1   2
BRANCH   1  10
HETATM   10  C           1     -20.156  -4.714  -5.800  0.00  0.00     0.081 C 
BRANCH  10  11
HETATM   11  C           1     -20.667  -4.440  -7.182  0.00  0.00    -0.056 A 
HETATM   12  C           1     -21.989  -4.035  -7.369  0.00  0.00     0.010 A 
HETATM   13  C           1     -22.463  -3.781  -8.655  0.00  0.00     0.037 A 
HETATM   14  C           1     -21.617  -3.931  -9.754  0.00  0.00     0.065 A 
HETATM   15  C           1     -20.295  -4.335  -9.565  0.00  0.00     0.037 A 
HETATM   16  C           1     -19.820  -4.590  -8.280  0.00  0.00     0.010 A 
BRANCH  14  17
HETATM   17  O           1     -22.079  -3.682 -11.004  0.00  0.00    -0.361 OA
HETATM   18  H           1     -22.059  -2.721 -11.146  0.00  0.00     0.217 HD
ENDBRANCH  14  17
ENDBRANCH  10  11
ENDBRANCH   1  10
BRANCH   1  19
HETATM   19  N           1     -20.930  -6.904  -6.634  0.00  0.00    -0.066 N 
HETATM   20  H           1     -20.905  -6.270  -7.464  0.00  0.00     0.275 HD
HETATM   21  H           1     -21.908  -7.242  -6.483  0.00  0.00     0.275 HD
HETATM   22  H           1     -20.302  -7.721  -6.801  0.00  0.00     0.275 HD
ENDBRANCH   1  19
TORSDOF 7
ENDMDL
MODEL 8
REMARK VINA RESULT:      -6.4     14.167     16.824
REMARK  7 active torsions:
REMARK  status: ('A' for Active; 'I' for Inactive)
REMARK    1  A    between atoms: C_3  and  C_5 
REMARK    2  A    between atoms: C_3  and  C_13 
REMARK    3  A    between atoms: C_3  and  N_17 
REMARK       I    between atoms: C_5  and  N_8 
REMARK    4  A    between atoms: C_6  and  O_20 
REMARK    5  A    between atoms: N_8  and  C_16 
REMARK    6  A    between atoms: C_13  and  C_18 
REMARK    7  A    between atoms: C_15  and  C_16 
ROOT
HETATM    1  C           1     -21.367  -5.145  -6.201  0.00  0.00     0.278 C 
ENDROOT
BRANCH   1   2
HETATM    2  C           1     -21.925  -6.117  -5.192  0.00  0.00     0.249 C 
HETATM    3  N           1     -21.087  -6.972  -4.528  0.00  0.00    -0.349 N 
HETATM    4  H           1     -20.093  -6.952  -4.715  0.00  0.00     0.163 HD
HETATM    5  O           1     -23.113  -6.141  -4.969  0.00  0.00    -0.271 OA
BRANCH   3   6
HETATM    6  C           1     -21.624  -7.906  -3.557  0.00  0.00     0.235 C 
BRANCH   6   7
HETATM    7  C           1     -21.431  -7.353  -2.166  0.00  0.00     0.191 C 
HETATM    8  O           1     -22.254  -6.538  -1.698  0.00  0.00    -0.647 OA
HETATM    9  O           1     -20.446  -7.710  -1.484  0.00  0.00    -0.647 OA
ENDBRANCH   6   7
ENDBRANCH   3   6
ENDBRANCH   1   2
BRANCH   1  10
HETATM   10  C           1     -20.916  -5.904  -7.442  0.00  0.00     0.081 C 
BRANCH  10  11
HETATM   11  C           1     -21.137  -5.054  -8.656  0.00  0.00    -0.056 A 
HETATM   12  C           1     -20.096  -4.846  -9.560  0.00  0.00     0.010 A 
HETATM   13  C           1     -20.302  -4.055 -10.690  0.00  0.00     0.037 A 
HETATM   14  C           1     -21.550  -3.471 -10.915  0.00  0.00     0.065 A 
HETATM   15  C           1     -22.590  -3.680 -10.010  0.00  0.00     0.037 A 
HETATM   16  C           1     -22.384  -4.470  -8.880  0.00  0.00     0.010 A 
BRANCH  14  17
HETATM   17  O           1     -21.750  -2.703 -12.013  0.00  0.00    -0.361 OA
HETATM   18  H           1     -22.269  -1.926 -11.746  0.00  0.00     0.217 HD
ENDBRANCH  14  17
ENDBRANCH  10  11
ENDBRANCH   1  10
BRANCH   1  19
HETATM   19  N           1     -20.196  -4.423  -5.604  0.00  0.00    -0.066 N 
HETATM   20  H           1     -20.079  -3.499  -6.077  0.00  0.00     0.275 HD
HETATM   21  H           1     -19.331  -4.994  -5.735  0.00  0.00     0.275 HD
HETATM   22  H           1     -20.362  -4.273  -4.583  0.00  0.00     0.275 HD
ENDBRANCH   1  19
TORSDOF 7
ENDMDL
MODEL 9
REMARK VINA RESULT:      -6.2     14.010     16.240
REMARK  7 active torsions:
REMARK  status: ('A' for Active; 'I' for Inactive)
REMARK    1  A    between atoms: C_3  and  C_5 
REMARK    2  A    between atoms: C_3  and  C_13 
REMARK    3  A    between atoms: C_3  and  N_17 
REMARK       I    between atoms: C_5  and  N_8 
REMARK    4  A    between atoms: C_6  and  O_20 
REMARK    5  A    between atoms: N_8  and  C_16 
REMARK    6  A    between atoms: C_13  and  C_18 
REMARK    7  A    between atoms: C_15  and  C_16 
ROOT
HETATM    1  C           1     -21.371  -6.282  -5.872  0.00  0.00     0.278 C 
ENDROOT
BRANCH   1   2
HETATM    2  C           1     -22.156  -5.268  -6.665  0.00  0.00     0.249 C 
HETATM    3  N           1     -21.626  -4.734  -7.808  0.00  0.00    -0.349 N 
HETATM    4  H           1     -20.707  -5.019  -8.121  0.00  0.00     0.163 HD
HETATM    5  O           1     -23.254  -4.928  -6.291  0.00  0.00    -0.271 OA
BRANCH   3   6
HETATM    6  C           1     -22.382  -3.759  -8.571  0.00  0.00     0.235 C 
BRANCH   6   7
HETATM    7  C           1     -22.028  -3.880 -10.033  0.00  0.00     0.191 C 
HETATM    8  O           1     -22.795  -3.412 -10.902  0.00  0.00    -0.647 OA
HETATM    9  O           1     -20.969  -4.448 -10.375  0.00  0.00    -0.647 OA
ENDBRANCH   6   7
ENDBRANCH   3   6
ENDBRANCH   1   2
BRANCH   1  10
HETATM   10  C           1     -20.913  -5.658  -4.560  0.00  0.00     0.081 C 
BRANCH  10  11
HETATM   11  C           1     -21.303  -6.548  -3.420  0.00  0.00    -0.056 A 
HETATM   12  C           1     -21.916  -6.005  -2.290  0.00  0.00     0.010 A 
HETATM   13  C           1     -22.279  -6.833  -1.229  0.00  0.00     0.037 A 
HETATM   14  C           1     -22.029  -8.205  -1.297  0.00  0.00     0.065 A 
HETATM   15  C           1     -21.417  -8.746  -2.427  0.00  0.00     0.037 A 
HETATM   16  C           1     -21.053  -7.918  -3.488  0.00  0.00     0.010 A 
BRANCH  14  17
HETATM   17  O           1     -22.383  -9.010  -0.265  0.00  0.00    -0.361 OA
HETATM   18  H           1     -23.232  -9.427  -0.488  0.00  0.00     0.217 HD
ENDBRANCH  14  17
ENDBRANCH  10  11
ENDBRANCH   1  10
BRANCH   1  19
HETATM   19  N           1     -20.173  -6.716  -6.663  0.00  0.00    -0.066 N 
HETATM   20  H           1     -20.404  -7.585  -7.196  0.00  0.00     0.275 HD
HETATM   21  H           1     -19.377  -6.908  -6.014  0.00  0.00     0.275 HD
HETATM   22  H           1     -19.903  -5.960  -7.331  0.00  0.00     0.275 HD
ENDBRANCH   1  19
TORSDOF 7
ENDMDL
