MODEL 1
REMARK VINA RESULT:      -5.9      0.000      0.000
REMARK  8 active torsions:
REMARK  status: ('A' for Active; 'I' for Inactive)
REMARK    1  A    between atoms: C_1  and  C_5 
REMARK    2  A    between atoms: C_5  and  C_12 
REMARK    3  A    between atoms: C_5  and  N_14 
REMARK    4  A    between atoms: O_6  and  C_12 
REMARK       I    between atoms: C_7  and  N_14 
REMARK    5  A    between atoms: C_7  and  C_10 
REMARK    6  A    between atoms: N_9  and  C_10 
REMARK    7  A    between atoms: C_10  and  C_11 
REMARK    8  A    between atoms: C_11  and  O_16 
ROOT
HETATM    1  C           1     -21.792  -4.763  -7.846  0.00  0.00     0.251 C 
HETATM    2  O           1     -21.932  -3.704  -7.283  0.00  0.00    -0.271 OA
HETATM    3  N           1     -22.087  -4.874  -9.179  0.00  0.00    -0.342 N 
HETATM    4  H           1     -21.970  -5.761  -9.651  0.00  0.00     0.163 HD
ENDROOT
BRANCH   1   5
HETATM    5  C           1     -21.292  -5.964  -7.082  0.00  0.00     0.297 C 
BRANCH   5   6
HETATM    6  N           1     -19.840  -6.182  -7.388  0.00  0.00    -0.064 N 
HETATM    7  H           1     -19.480  -6.980  -6.816  0.00  0.00     0.275 HD
HETATM    8  H           1     -19.726  -6.404  -8.403  0.00  0.00     0.275 HD
HETATM    9  H           1     -19.303  -5.317  -7.157  0.00  0.00     0.275 HD
ENDBRANCH   5   6
BRANCH   5  10
HETATM   10  C           1     -21.466  -5.724  -5.588  0.00  0.00     0.206 C 
BRANCH  10  11
HETATM   11  O           1     -22.808  -5.924  -5.236  0.00  0.00    -0.398 OA
HETATM   12  H           1     -23.331  -5.519  -5.908  0.00  0.00     0.209 HD
ENDBRANCH  10  11
ENDBRANCH   5  10
ENDBRANCH   1   5
BRANCH   3  13
HETATM   13  C           1     -22.567  -3.720  -9.914  0.00  0.00     0.214 C 
BRANCH  13  14
HETATM   14  C           1     -24.038  -3.887 -10.206  0.00  0.00     0.199 C 
HETATM   15  O           1     -24.600  -4.980  -9.978  0.00  0.00    -0.646 OA
HETATM   16  O           1     -24.694  -2.933 -10.675  0.00  0.00    -0.646 OA
ENDBRANCH  13  14
BRANCH  13  17
HETATM   17  C           1     -21.799  -3.597 -11.223  0.00  0.00     0.147 C 
HETATM   18  C           1     -20.389  -4.142 -11.037  0.00  0.00     0.042 C 
BRANCH  17  19
HETATM   19  O           1     -22.457  -4.331 -12.220  0.00  0.00    -0.393 OA
HETATM   20  H           1     -21.917  -5.080 -12.409  0.00  0.00     0.210 HD
ENDBRANCH  17  19
ENDBRANCH  13  17
ENDBRANCH   3  13
TORSDOF 8
ENDMDL
MODEL 2
REMARK VINA RESULT:      -5.0     17.199     18.798
REMARK  8 active torsions:
REMARK  status: ('A' for Active; 'I' for Inactive)
REMARK    1  A    between atoms: C_1  and  C_5 
REMARK    2  A    between atoms: C_5  and  C_12 
REMARK    3  A    between atoms: C_5  and  N_14 
REMARK    4  A    between atoms: O_6  and  C_12 
REMARK       I    between atoms: C_7  and  N_14 
REMARK    5  A    between atoms: C_7  and  C_10 
REMARK    6  A    between atoms: N_9  and  C_10 
REMARK    7  A    between atoms: C_10  and  C_11 
REMARK    8  A    between atoms: C_11  and  O_16 
ROOT
HETATM    1  C           1     -11.567   6.635 -20.704  0.00  0.00     0.251 C 
HETATM    2  O           1     -12.048   7.409 -21.498  0.00  0.00    -0.271 OA
HETATM    3  N           1     -12.021   5.345 -20.645  0.00  0.00    -0.342 N 
HETATM    4  H           1     -11.619   4.697 -19.981  0.00  0.00     0.163 HD
ENDROOT
BRANCH   1   5
HETATM    5  C           1     -10.466   7.090 -19.779  0.00  0.00     0.297 C 
BRANCH   5   6
HETATM    6  N           1      -9.136   6.872 -20.439  0.00  0.00    -0.064 N 
HETATM    7  H           1      -9.095   7.418 -21.329  0.00  0.00     0.275 HD
HETATM    8  H           1      -8.373   7.191 -19.800  0.00  0.00     0.275 HD
HETATM    9  H           1      -9.015   5.855 -20.647  0.00  0.00     0.275 HD
ENDBRANCH   5   6
BRANCH   5  10
HETATM   10  C           1     -10.641   8.572 -19.470  0.00  0.00     0.206 C 
BRANCH  10  11
HETATM   11  O           1     -10.228   8.826 -18.155  0.00  0.00    -0.398 OA
HETATM   12  H           1     -10.688   9.597 -17.868  0.00  0.00     0.209 HD
ENDBRANCH  10  11
ENDBRANCH   5  10
ENDBRANCH   1   5
BRANCH   3  13
HETATM   13  C           1     -13.079   4.907 -21.535  0.00  0.00     0.214 C 
BRANCH  13  14
HETATM   14  C           1     -14.398   4.941 -20.801  0.00  0.00     0.199 C 
HETATM   15  O           1     -14.451   4.611 -19.597  0.00  0.00    -0.646 OA
HETATM   16  O           1     -15.435   5.301 -21.398  0.00  0.00    -0.646 OA
ENDBRANCH  13  14
BRANCH  13  17
HETATM   17  C           1     -12.794   3.486 -22.002  0.00  0.00     0.147 C 
HETATM   18  C           1     -11.863   2.803 -21.008  0.00  0.00     0.042 C 
BRANCH  17  19
HETATM   19  O           1     -13.998   2.771 -22.083  0.00  0.00    -0.393 OA
HETATM   20  H           1     -13.770   1.862 -22.180  0.00  0.00     0.210 HD
ENDBRANCH  17  19
ENDBRANCH  13  17
ENDBRANCH   3  13
TORSDOF 8
ENDMDL
MODEL 3
REMARK VINA RESULT:      -4.8      2.051      4.970
REMARK  8 active torsions:
REMARK  status: ('A' for Active; 'I' for Inactive)
REMARK    1  A    between atoms: C_1  and  C_5 
REMARK    2  A    between atoms: C_5  and  C_12 
REMARK    3  A    between atoms: C_5  and  N_14 
REMARK    4  A    between atoms: O_6  and  C_12 
REMARK       I    between atoms: C_7  and  N_14 
REMARK    5  A    between atoms: C_7  and  C_10 
REMARK    6  A    between atoms: N_9  and  C_10 
REMARK    7  A    between atoms: C_10  and  C_11 
REMARK    8  A    between atoms: C_11  and  O_16 
ROOT
HETATM    1  C           1     -22.961  -4.284  -8.936  0.00  0.00     0.251 C 
HETATM    2  O           1     -22.846  -3.095  -8.753  0.00  0.00    -0.271 OA
HETATM    3  N           1     -22.099  -5.157  -8.327  0.00  0.00    -0.342 N 
HETATM    4  H           1     -22.195  -6.152  -8.480  0.00  0.00     0.163 HD
ENDROOT
BRANCH   1   5
HETATM    5  C           1     -24.054  -4.808  -9.833  0.00  0.00     0.297 C 
BRANCH   5   6
HETATM    6  N           1     -25.251  -3.908  -9.742  0.00  0.00    -0.064 N 
HETATM    7  H           1     -25.558  -3.837  -8.744  0.00  0.00     0.275 HD
HETATM    8  H           1     -25.001  -2.957 -10.097  0.00  0.00     0.275 HD
HETATM    9  H           1     -26.028  -4.303 -10.318  0.00  0.00     0.275 HD
ENDBRANCH   5   6
BRANCH   5  10
HETATM   10  C           1     -23.557  -4.844 -11.273  0.00  0.00     0.206 C 
BRANCH  10  11
HETATM   11  O           1     -22.185  -4.556 -11.300  0.00  0.00    -0.398 OA
HETATM   12  H           1     -22.077  -3.704 -10.914  0.00  0.00     0.209 HD
ENDBRANCH  10  11
ENDBRANCH   5  10
ENDBRANCH   1   5
BRANCH   3  13
HETATM   13  C           1     -21.048  -4.653  -7.463  0.00  0.00     0.214 C 
BRANCH  13  14
HETATM   14  C           1     -19.768  -4.524  -8.253  0.00  0.00     0.199 C 
HETATM   15  O           1     -18.689  -4.307  -7.661  0.00  0.00    -0.646 OA
HETATM   16  O           1     -19.788  -4.637  -9.497  0.00  0.00    -0.646 OA
ENDBRANCH  13  14
BRANCH  13  17
HETATM   17  C           1     -20.836  -5.621  -6.306  0.00  0.00     0.147 C 
HETATM   18  C           1     -22.182  -5.972  -5.686  0.00  0.00     0.042 C 
BRANCH  17  19
HETATM   19  O           1     -20.220  -6.788  -6.780  0.00  0.00    -0.393 OA
HETATM   20  H           1     -20.655  -7.020  -7.583  0.00  0.00     0.210 HD
ENDBRANCH  17  19
ENDBRANCH  13  17
ENDBRANCH   3  13
TORSDOF 8
ENDMDL
MODEL 4
REMARK VINA RESULT:      -4.8     17.250     19.421
REMARK  8 active torsions:
REMARK  status: ('A' for Active; 'I' for Inactive)
REMARK    1  A    between atoms: C_1  and  C_5 
REMARK    2  A    between atoms: C_5  and  C_12 
REMARK    3  A    between atoms: C_5  and  N_14 
REMARK    4  A    between atoms: O_6  and  C_12 
REMARK       I    between atoms: C_7  and  N_14 
REMARK    5  A    between atoms: C_7  and  C_10 
REMARK    6  A    between atoms: N_9  and  C_10 
REMARK    7  A    between atoms: C_10  and  C_11 
REMARK    8  A    between atoms: C_11  and  O_16 
ROOT
HETATM    1  C           1     -12.636   6.045 -21.535  0.00  0.00     0.251 C 
HETATM    2  O           1     -11.806   5.720 -22.351  0.00  0.00    -0.271 OA
HETATM    3  N           1     -12.285   6.852 -20.486  0.00  0.00    -0.342 N 
HETATM    4  H           1     -12.979   7.124 -19.803  0.00  0.00     0.163 HD
ENDROOT
BRANCH   1   5
HETATM    5  C           1     -14.059   5.563 -21.673  0.00  0.00     0.297 C 
BRANCH   5   6
HETATM    6  N           1     -14.126   4.497 -22.725  0.00  0.00    -0.064 N 
HETATM    7  H           1     -15.093   4.099 -22.757  0.00  0.00     0.275 HD
HETATM    8  H           1     -13.890   4.910 -23.657  0.00  0.00     0.275 HD
HETATM    9  H           1     -13.445   3.739 -22.497  0.00  0.00     0.275 HD
ENDBRANCH   5   6
BRANCH   5  10
HETATM   10  C           1     -14.533   4.993 -20.342  0.00  0.00     0.206 C 
BRANCH  10  11
HETATM   11  O           1     -13.443   4.446 -19.653  0.00  0.00    -0.398 OA
HETATM   12  H           1     -12.665   4.831 -20.020  0.00  0.00     0.209 HD
ENDBRANCH  10  11
ENDBRANCH   5  10
ENDBRANCH   1   5
BRANCH   3  13
HETATM   13  C           1     -10.917   7.316 -20.354  0.00  0.00     0.214 C 
BRANCH  13  14
HETATM   14  C           1     -10.110   6.289 -19.598  0.00  0.00     0.199 C 
HETATM   15  O           1     -10.661   5.575 -18.732  0.00  0.00    -0.646 OA
HETATM   16  O           1      -8.891   6.151 -19.839  0.00  0.00    -0.646 OA
ENDBRANCH  13  14
BRANCH  13  17
HETATM   17  C           1     -10.900   8.635 -19.595  0.00  0.00     0.147 C 
HETATM   18  C           1     -12.331   9.087 -19.332  0.00  0.00     0.042 C 
BRANCH  17  19
HETATM   19  O           1     -10.232   8.463 -18.374  0.00  0.00    -0.393 OA
HETATM   20  H           1     -10.098   7.537 -18.264  0.00  0.00     0.210 HD
ENDBRANCH  17  19
ENDBRANCH  13  17
ENDBRANCH   3  13
TORSDOF 8
ENDMDL
MODEL 5
REMARK VINA RESULT:      -4.8     17.565     19.079
REMARK  8 active torsions:
REMARK  status: ('A' for Active; 'I' for Inactive)
REMARK    1  A    between atoms: C_1  and  C_5 
REMARK    2  A    between atoms: C_5  and  C_12 
REMARK    3  A    between atoms: C_5  and  N_14 
REMARK    4  A    between atoms: O_6  and  C_12 
REMARK       I    between atoms: C_7  and  N_14 
REMARK    5  A    between atoms: C_7  and  C_10 
REMARK    6  A    between atoms: N_9  and  C_10 
REMARK    7  A    between atoms: C_10  and  C_11 
REMARK    8  A    between atoms: C_11  and  O_16 
ROOT
HETATM    1  C           1     -13.272   4.777 -21.116  0.00  0.00     0.251 C 
HETATM    2  O           1     -13.823   4.488 -20.080  0.00  0.00    -0.271 OA
HETATM    3  N           1     -12.221   5.655 -21.111  0.00  0.00    -0.342 N 
HETATM    4  H           1     -11.760   5.897 -21.978  0.00  0.00     0.163 HD
ENDROOT
BRANCH   1   5
HETATM    5  C           1     -13.741   4.170 -22.415  0.00  0.00     0.297 C 
BRANCH   5   6
HETATM    6  N           1     -13.939   2.694 -22.235  0.00  0.00    -0.064 N 
HETATM    7  H           1     -13.797   2.444 -21.230  0.00  0.00     0.275 HD
HETATM    8  H           1     -14.910   2.434 -22.524  0.00  0.00     0.275 HD
HETATM    9  H           1     -13.249   2.176 -22.824  0.00  0.00     0.275 HD
ENDBRANCH   5   6
BRANCH   5  10
HETATM   10  C           1     -15.059   4.812 -22.830  0.00  0.00     0.206 C 
BRANCH  10  11
HETATM   11  O           1     -15.163   6.082 -22.247  0.00  0.00    -0.398 OA
HETATM   12  H           1     -16.076   6.318 -22.268  0.00  0.00     0.209 HD
ENDBRANCH  10  11
ENDBRANCH   5  10
ENDBRANCH   1   5
BRANCH   3  13
HETATM   13  C           1     -11.770   6.238 -19.862  0.00  0.00     0.214 C 
BRANCH  13  14
HETATM   14  C           1     -11.823   7.743 -19.962  0.00  0.00     0.199 C 
HETATM   15  O           1     -12.093   8.287 -21.055  0.00  0.00    -0.646 OA
HETATM   16  O           1     -11.600   8.444 -18.953  0.00  0.00    -0.646 OA
ENDBRANCH  13  14
BRANCH  13  17
HETATM   17  C           1     -10.339   5.797 -19.585  0.00  0.00     0.147 C 
HETATM   18  C           1      -9.424   6.328 -20.681  0.00  0.00     0.042 C 
BRANCH  17  19
HETATM   19  O           1      -9.927   6.305 -18.344  0.00  0.00    -0.393 OA
HETATM   20  H           1     -10.582   6.923 -18.070  0.00  0.00     0.210 HD
ENDBRANCH  17  19
ENDBRANCH  13  17
ENDBRANCH   3  13
TORSDOF 8
ENDMDL
MODEL 6
REMARK VINA RESULT:      -4.6      1.839      2.727
REMARK  8 active torsions:
REMARK  status: ('A' for Active; 'I' for Inactive)
REMARK    1  A    between atoms: C_1  and  C_5 
REMARK    2  A    between atoms: C_5  and  C_12 
REMARK    3  A    between atoms: C_5  and  N_14 
REMARK    4  A    between atoms: O_6  and  C_12 
REMARK       I    between atoms: C_7  and  N_14 
REMARK    5  A    between atoms: C_7  and  C_10 
REMARK    6  A    between atoms: N_9  and  C_10 
REMARK    7  A    between atoms: C_10  and  C_11 
REMARK    8  A    between atoms: C_11  and  O_16 
ROOT
HETATM    1  C           1     -21.589  -5.088  -7.854  0.00  0.00     0.251 C 
HETATM    2  O           1     -21.112  -6.140  -8.207  0.00  0.00    -0.271 OA
HETATM    3  N           1     -22.195  -4.270  -8.769  0.00  0.00    -0.342 N 
HETATM    4  H           1     -22.594  -3.389  -8.474  0.00  0.00     0.163 HD
ENDROOT
BRANCH   1   5
HETATM    5  C           1     -21.517  -4.676  -6.405  0.00  0.00     0.297 C 
BRANCH   5   6
HETATM    6  N           1     -22.237  -5.686  -5.561  0.00  0.00    -0.064 N 
HETATM    7  H           1     -21.824  -6.632  -5.722  0.00  0.00     0.275 HD
HETATM    8  H           1     -22.140  -5.431  -4.552  0.00  0.00     0.275 HD
HETATM    9  H           1     -23.249  -5.698  -5.822  0.00  0.00     0.275 HD
ENDBRANCH   5   6
BRANCH   5  10
HETATM   10  C           1     -20.060  -4.598  -5.969  0.00  0.00     0.206 C 
BRANCH  10  11
HETATM   11  O           1     -19.239  -4.493  -7.100  0.00  0.00    -0.398 OA
HETATM   12  H           1     -18.351  -4.603  -6.805  0.00  0.00     0.209 HD
ENDBRANCH  10  11
ENDBRANCH   5  10
ENDBRANCH   1   5
BRANCH   3  13
HETATM   13  C           1     -22.264  -4.666 -10.162  0.00  0.00     0.214 C 
BRANCH  13  14
HETATM   14  C           1     -21.451  -3.708 -10.998  0.00  0.00     0.199 C 
HETATM   15  O           1     -20.290  -4.013 -11.346  0.00  0.00    -0.646 OA
HETATM   16  O           1     -21.939  -2.611 -11.343  0.00  0.00    -0.646 OA
ENDBRANCH  13  14
BRANCH  13  17
HETATM   17  C           1     -23.714  -4.640 -10.626  0.00  0.00     0.147 C 
HETATM   18  C           1     -24.440  -3.480  -9.956  0.00  0.00     0.042 C 
BRANCH  17  19
HETATM   19  O           1     -23.757  -4.476 -12.018  0.00  0.00    -0.393 OA
HETATM   20  H           1     -24.063  -3.601 -12.181  0.00  0.00     0.210 HD
ENDBRANCH  17  19
ENDBRANCH  13  17
ENDBRANCH   3  13
TORSDOF 8
ENDMDL
MODEL 7
REMARK VINA RESULT:      -4.5      2.784      4.294
REMARK  8 active torsions:
REMARK  status: ('A' for Active; 'I' for Inactive)
REMARK    1  A    between atoms: C_1  and  C_5 
REMARK    2  A    between atoms: C_5  and  C_12 
REMARK    3  A    between atoms: C_5  and  N_14 
REMARK    4  A    between atoms: O_6  and  C_12 
REMARK       I    between atoms: C_7  and  N_14 
REMARK    5  A    between atoms: C_7  and  C_10 
REMARK    6  A    between atoms: N_9  and  C_10 
REMARK    7  A    between atoms: C_10  and  C_11 
REMARK    8  A    between atoms: C_11  and  O_16 
ROOT
HETATM    1  C           1     -21.646  -6.889  -5.305  0.00  0.00     0.251 C 
HETATM    2  O           1     -21.214  -7.687  -6.102  0.00  0.00    -0.271 OA
HETATM    3  N           1     -21.870  -5.593  -5.687  0.00  0.00    -0.342 N 
HETATM    4  H           1     -22.231  -4.924  -5.019  0.00  0.00     0.163 HD
ENDROOT
BRANCH   1   5
HETATM    5  C           1     -21.938  -7.319  -3.889  0.00  0.00     0.297 C 
BRANCH   5   6
HETATM    6  N           1     -21.183  -8.578  -3.583  0.00  0.00    -0.064 N 
HETATM    7  H           1     -20.282  -8.582  -4.114  0.00  0.00     0.275 HD
HETATM    8  H           1     -20.983  -8.625  -2.558  0.00  0.00     0.275 HD
HETATM    9  H           1     -21.758  -9.405  -3.864  0.00  0.00     0.275 HD
ENDBRANCH   5   6
BRANCH   5  10
HETATM   10  C           1     -21.507  -6.222  -2.924  0.00  0.00     0.206 C 
BRANCH  10  11
HETATM   11  O           1     -22.596  -5.845  -2.128  0.00  0.00    -0.398 OA
HETATM   12  H           1     -23.264  -5.523  -2.711  0.00  0.00     0.209 HD
ENDBRANCH  10  11
ENDBRANCH   5  10
ENDBRANCH   1   5
BRANCH   3  13
HETATM   13  C           1     -21.590  -5.179  -7.048  0.00  0.00     0.214 C 
BRANCH  13  14
HETATM   14  C           1     -20.244  -4.498  -7.098  0.00  0.00     0.199 C 
HETATM   15  O           1     -19.497  -4.516  -6.096  0.00  0.00    -0.646 OA
HETATM   16  O           1     -19.875  -3.919  -8.142  0.00  0.00    -0.646 OA
ENDBRANCH  13  14
BRANCH  13  17
HETATM   17  C           1     -22.667  -4.210  -7.515  0.00  0.00     0.147 C 
HETATM   18  C           1     -22.959  -4.449  -8.991  0.00  0.00     0.042 C 
BRANCH  17  19
HETATM   19  O           1     -23.836  -4.415  -6.767  0.00  0.00    -0.393 OA
HETATM   20  H           1     -24.268  -3.581  -6.702  0.00  0.00     0.210 HD
ENDBRANCH  17  19
ENDBRANCH  13  17
ENDBRANCH   3  13
TORSDOF 8
ENDMDL
MODEL 8
REMARK VINA RESULT:      -4.5      2.071      3.228
REMARK  8 active torsions:
REMARK  status: ('A' for Active; 'I' for Inactive)
REMARK    1  A    between atoms: C_1  and  C_5 
REMARK    2  A    between atoms: C_5  and  C_12 
REMARK    3  A    between atoms: C_5  and  N_14 
REMARK    4  A    between atoms: O_6  and  C_12 
REMARK       I    between atoms: C_7  and  N_14 
REMARK    5  A    between atoms: C_7  and  C_10 
REMARK    6  A    between atoms: N_9  and  C_10 
REMARK    7  A    between atoms: C_10  and  C_11 
REMARK    8  A    between atoms: C_11  and  O_16 
ROOT
HETATM    1  C           1     -21.611  -5.958  -6.584  0.00  0.00     0.251 C 
HETATM    2  O           1     -21.029  -6.834  -7.179  0.00  0.00    -0.271 OA
HETATM    3  N           1     -22.111  -4.882  -7.267  0.00  0.00    -0.342 N 
HETATM    4  H           1     -22.598  -4.148  -6.769  0.00  0.00     0.163 HD
ENDROOT
BRANCH   1   5
HETATM    5  C           1     -21.788  -6.050  -5.089  0.00  0.00     0.297 C 
BRANCH   5   6
HETATM    6  N           1     -21.836  -7.492  -4.679  0.00  0.00    -0.064 N 
HETATM    7  H           1     -22.619  -7.636  -4.001  0.00  0.00     0.275 HD
HETATM    8  H           1     -21.993  -8.090  -5.522  0.00  0.00     0.275 HD
HETATM    9  H           1     -20.931  -7.756  -4.228  0.00  0.00     0.275 HD
ENDBRANCH   5   6
BRANCH   5  10
HETATM   10  C           1     -20.618  -5.364  -4.395  0.00  0.00     0.206 C 
BRANCH  10  11
HETATM   11  O           1     -19.903  -4.603  -5.329  0.00  0.00    -0.398 OA
HETATM   12  H           1     -19.469  -3.917  -4.849  0.00  0.00     0.209 HD
ENDBRANCH  10  11
ENDBRANCH   5  10
ENDBRANCH   1   5
BRANCH   3  13
HETATM   13  C           1     -21.942  -4.793  -8.705  0.00  0.00     0.214 C 
BRANCH  13  14
HETATM   14  C           1     -20.670  -4.042  -9.015  0.00  0.00     0.199 C 
HETATM   15  O           1     -19.912  -3.688  -8.086  0.00  0.00    -0.646 OA
HETATM   16  O           1     -20.374  -3.777 -10.199  0.00  0.00    -0.646 OA
ENDBRANCH  13  14
BRANCH  13  17
HETATM   17  C           1     -23.128  -4.055  -9.311  0.00  0.00     0.147 C 
HETATM   18  C           1     -23.755  -4.913 -10.402  0.00  0.00     0.042 C 
BRANCH  17  19
HETATM   19  O           1     -24.079  -3.800  -8.311  0.00  0.00    -0.393 OA
HETATM   20  H           1     -23.611  -3.455  -7.570  0.00  0.00     0.210 HD
ENDBRANCH  17  19
ENDBRANCH  13  17
ENDBRANCH   3  13
TORSDOF 8
ENDMDL
MODEL 9
REMARK VINA RESULT:      -4.4      2.656      5.761
REMARK  8 active torsions:
REMARK  status: ('A' for Active; 'I' for Inactive)
REMARK    1  A    between atoms: C_1  and  C_5 
REMARK    2  A    between atoms: C_5  and  C_12 
REMARK    3  A    between atoms: C_5  and  N_14 
REMARK    4  A    between atoms: O_6  and  C_12 
REMARK       I    between atoms: C_7  and  N_14 
REMARK    5  A    between atoms: C_7  and  C_10 
REMARK    6  A    between atoms: N_9  and  C_10 
REMARK    7  A    between atoms: C_10  and  C_11 
REMARK    8  A    between atoms: C_11  and  O_16 
ROOT
HETATM    1  C           1     -20.512  -4.911  -6.557  0.00  0.00     0.251 C 
HETATM    2  O           1     -19.821  -4.400  -5.708  0.00  0.00    -0.271 OA
HETATM    3  N           1     -21.004  -6.175  -6.368  0.00  0.00    -0.342 N 
HETATM    4  H           1     -21.582  -6.604  -7.079  0.00  0.00     0.163 HD
ENDROOT
BRANCH   1   5
HETATM    5  C           1     -20.832  -4.158  -7.824  0.00  0.00     0.297 C 
BRANCH   5   6
HETATM    6  N           1     -19.895  -4.589  -8.913  0.00  0.00    -0.064 N 
HETATM    7  H           1     -20.261  -5.459  -9.364  0.00  0.00     0.275 HD
HETATM    8  H           1     -19.820  -3.832  -9.630  0.00  0.00     0.275 HD
HETATM    9  H           1     -18.952  -4.778  -8.505  0.00  0.00     0.275 HD
ENDBRANCH   5   6
BRANCH   5  10
HETATM   10  C           1     -22.267  -4.455  -8.243  0.00  0.00     0.206 C 
BRANCH  10  11
HETATM   11  O           1     -23.119  -4.283  -7.144  0.00  0.00    -0.398 OA
HETATM   12  H           1     -22.571  -4.133  -6.393  0.00  0.00     0.209 HD
ENDBRANCH  10  11
ENDBRANCH   5  10
ENDBRANCH   1   5
BRANCH   3  13
HETATM   13  C           1     -20.697  -6.899  -5.150  0.00  0.00     0.214 C 
BRANCH  13  14
HETATM   14  C           1     -20.312  -8.318  -5.493  0.00  0.00     0.199 C 
HETATM   15  O           1     -21.199  -9.186  -5.643  0.00  0.00    -0.646 OA
HETATM   16  O           1     -19.108  -8.623  -5.628  0.00  0.00    -0.646 OA
ENDBRANCH  13  14
BRANCH  13  17
HETATM   17  C           1     -21.920  -6.909  -4.244  0.00  0.00     0.147 C 
HETATM   18  C           1     -21.575  -6.243  -2.918  0.00  0.00     0.042 C 
BRANCH  17  19
HETATM   19  O           1     -22.965  -6.206  -4.862  0.00  0.00    -0.393 OA
HETATM   20  H           1     -23.763  -6.655  -4.643  0.00  0.00     0.210 HD
ENDBRANCH  17  19
ENDBRANCH  13  17
ENDBRANCH   3  13
TORSDOF 8
ENDMDL
