MODEL 1
REMARK VINA RESULT:      -6.9      0.000      0.000
REMARK  11 active torsions:
REMARK  status: ('A' for Active; 'I' for Inactive)
REMARK    1  A    between atoms: C_2  and  C_13 
REMARK    2  A    between atoms: C_2  and  C_18 
REMARK    3  A    between atoms: C_2  and  N_7 
REMARK       I    between atoms: N_5  and  C_15 
REMARK    4  A    between atoms: C_6  and  C_18 
REMARK    5  A    between atoms: C_6  and  S_19 
REMARK    6  A    between atoms: C_8  and  C_9 
REMARK    7  A    between atoms: C_8  and  C_17 
REMARK    8  A    between atoms: C_8  and  N_11 
REMARK    9  A    between atoms: C_9  and  C_14 
REMARK       I    between atoms: N_11  and  C_13 
REMARK   10  A    between atoms: C_14  and  C_26 
REMARK       I    between atoms: C_15  and  N_24 
REMARK   11  A    between atoms: N_24  and  C_26 
ROOT
HETATM    1  C           1     -34.127  -3.791 -13.049  0.00  0.00     0.185 C 
ENDROOT
BRANCH   1   2
HETATM    2  C           1     -33.080  -3.913 -11.949  0.00  0.00     0.038 C 
BRANCH   2   3
HETATM    3  C           1     -33.697  -4.585 -10.731  0.00  0.00     0.023 C 
BRANCH   3   4
HETATM    4  C           1     -34.557  -5.760 -11.179  0.00  0.00     0.138 C 
BRANCH   4   5
HETATM    5  N           1     -33.797  -7.009 -11.032  0.00  0.00    -0.227 N 
HETATM    6  H           1     -32.932  -7.168 -11.605  0.00  0.00     0.177 HD
HETATM    7  C           1     -34.185  -7.894 -10.213  0.00  0.00     0.665 C 
HETATM    8  N           1     -33.513  -8.999 -10.083  0.00  0.00    -0.235 N 
HETATM    9  N           1     -35.228  -7.702  -9.522  0.00  0.00    -0.235 N 
HETATM   10  H           1     -32.652  -9.157 -10.654  0.00  0.00     0.174 HD
HETATM   11  H           1     -33.834  -9.729  -9.408  0.00  0.00     0.174 HD
HETATM   12  H           1     -35.550  -8.436  -8.844  0.00  0.00     0.174 HD
HETATM   13  H           1     -35.771  -6.810  -9.627  0.00  0.00     0.174 HD
ENDBRANCH   4   5
ENDBRANCH   3   4
ENDBRANCH   2   3
ENDBRANCH   1   2
BRANCH   1  14
HETATM   14  C           1     -34.918  -2.522 -12.853  0.00  0.00     0.196 C 
HETATM   15  O           1     -34.677  -1.519 -13.560  0.00  0.00    -0.646 OA
HETATM   16  O           1     -35.813  -2.472 -11.983  0.00  0.00    -0.646 OA
ENDBRANCH   1  14
BRANCH   1  17
HETATM   17  N           1     -33.468  -3.755 -14.340  0.00  0.00    -0.345 N 
HETATM   18  H           1     -32.615  -3.225 -14.458  0.00  0.00     0.163 HD
HETATM   19  C           1     -34.001  -4.440 -15.400  0.00  0.00     0.249 C 
HETATM   20  O           1     -35.019  -5.073 -15.258  0.00  0.00    -0.271 OA
BRANCH  19  21
HETATM   21  C           1     -33.316  -4.402 -16.744  0.00  0.00     0.275 C 
BRANCH  21  22
HETATM   22  C           1     -31.837  -4.715 -16.570  0.00  0.00     0.053 C 
BRANCH  22  23
HETATM   23  C           1     -31.013  -3.790 -17.458  0.00  0.00     0.076 C 
BRANCH  23  24
HETATM   24  S           1     -29.441  -4.594 -17.876  0.00  0.00    -0.173 SA
HETATM   25  C           1     -29.152  -5.327 -16.241  0.00  0.00     0.089 C 
ENDBRANCH  23  24
ENDBRANCH  22  23
ENDBRANCH  21  22
BRANCH  21  26
HETATM   26  N           1     -33.471  -3.037 -17.345  0.00  0.00    -0.066 N 
HETATM   27  H           1     -32.682  -2.855 -18.006  0.00  0.00     0.275 HD
HETATM   28  H           1     -34.377  -2.985 -17.864  0.00  0.00     0.275 HD
HETATM   29  H           1     -33.462  -2.319 -16.586  0.00  0.00     0.275 HD
ENDBRANCH  21  26
ENDBRANCH  19  21
ENDBRANCH   1  17
TORSDOF 11
ENDMDL
MODEL 2
REMARK VINA RESULT:      -6.1     13.934     15.844
REMARK  11 active torsions:
REMARK  status: ('A' for Active; 'I' for Inactive)
REMARK    1  A    between atoms: C_2  and  C_13 
REMARK    2  A    between atoms: C_2  and  C_18 
REMARK    3  A    between atoms: C_2  and  N_7 
REMARK       I    between atoms: N_5  and  C_15 
REMARK    4  A    between atoms: C_6  and  C_18 
REMARK    5  A    between atoms: C_6  and  S_19 
REMARK    6  A    between atoms: C_8  and  C_9 
REMARK    7  A    between atoms: C_8  and  C_17 
REMARK    8  A    between atoms: C_8  and  N_11 
REMARK    9  A    between atoms: C_9  and  C_14 
REMARK       I    between atoms: N_11  and  C_13 
REMARK   10  A    between atoms: C_14  and  C_26 
REMARK       I    between atoms: C_15  and  N_24 
REMARK   11  A    between atoms: N_24  and  C_26 
ROOT
HETATM    1  C           1     -21.297  -5.400  -6.665  0.00  0.00     0.185 C 
ENDROOT
BRANCH   1   2
HETATM    2  C           1     -21.821  -4.059  -7.164  0.00  0.00     0.038 C 
BRANCH   2   3
HETATM    3  C           1     -23.124  -4.272  -7.922  0.00  0.00     0.023 C 
BRANCH   3   4
HETATM    4  C           1     -22.817  -4.637  -9.368  0.00  0.00     0.138 C 
BRANCH   4   5
HETATM    5  N           1     -21.777  -3.740  -9.892  0.00  0.00    -0.227 N 
HETATM    6  H           1     -21.282  -3.077  -9.246  0.00  0.00     0.177 HD
HETATM    7  C           1     -21.477  -3.768 -11.122  0.00  0.00     0.665 C 
HETATM    8  N           1     -20.557  -2.975 -11.585  0.00  0.00    -0.235 N 
HETATM    9  N           1     -22.074  -4.568 -11.901  0.00  0.00    -0.235 N 
HETATM   10  H           1     -20.065  -2.315 -10.942  0.00  0.00     0.174 HD
HETATM   11  H           1     -20.311  -2.998 -12.600  0.00  0.00     0.174 HD
HETATM   12  H           1     -21.826  -4.590 -12.920  0.00  0.00     0.174 HD
HETATM   13  H           1     -22.817  -5.208 -11.527  0.00  0.00     0.174 HD
ENDBRANCH   4   5
ENDBRANCH   3   4
ENDBRANCH   2   3
ENDBRANCH   1   2
BRANCH   1  14
HETATM   14  C           1     -20.002  -5.727  -7.365  0.00  0.00     0.196 C 
HETATM   15  O           1     -19.425  -6.812  -7.138  0.00  0.00    -0.646 OA
HETATM   16  O           1     -19.504  -4.911  -8.170  0.00  0.00    -0.646 OA
ENDBRANCH   1  14
BRANCH   1  17
HETATM   17  N           1     -21.069  -5.326  -5.235  0.00  0.00    -0.345 N 
HETATM   18  H           1     -20.583  -4.532  -4.840  0.00  0.00     0.163 HD
HETATM   19  C           1     -21.513  -6.332  -4.418  0.00  0.00     0.249 C 
HETATM   20  O           1     -22.094  -7.280  -4.890  0.00  0.00    -0.271 OA
BRANCH  19  21
HETATM   21  C           1     -21.276  -6.257  -2.930  0.00  0.00     0.275 C 
BRANCH  21  22
HETATM   22  C           1     -20.779  -7.604  -2.425  0.00  0.00     0.053 C 
BRANCH  22  23
HETATM   23  C           1     -21.761  -8.156  -1.399  0.00  0.00     0.076 C 
BRANCH  23  24
HETATM   24  S           1     -21.428  -9.920  -1.131  0.00  0.00    -0.173 SA
HETATM   25  C           1     -22.224 -10.505  -2.653  0.00  0.00     0.089 C 
ENDBRANCH  23  24
ENDBRANCH  22  23
ENDBRANCH  21  22
BRANCH  21  26
HETATM   26  N           1     -22.559  -5.905  -2.237  0.00  0.00    -0.066 N 
HETATM   27  H           1     -22.365  -5.685  -1.234  0.00  0.00     0.275 HD
HETATM   28  H           1     -22.987  -5.071  -2.699  0.00  0.00     0.275 HD
HETATM   29  H           1     -23.219  -6.713  -2.295  0.00  0.00     0.275 HD
ENDBRANCH  21  26
ENDBRANCH  19  21
ENDBRANCH   1  17
TORSDOF 11
ENDMDL
MODEL 3
REMARK VINA RESULT:      -5.9     14.001     15.865
REMARK  11 active torsions:
REMARK  status: ('A' for Active; 'I' for Inactive)
REMARK    1  A    between atoms: C_2  and  C_13 
REMARK    2  A    between atoms: C_2  and  C_18 
REMARK    3  A    between atoms: C_2  and  N_7 
REMARK       I    between atoms: N_5  and  C_15 
REMARK    4  A    between atoms: C_6  and  C_18 
REMARK    5  A    between atoms: C_6  and  S_19 
REMARK    6  A    between atoms: C_8  and  C_9 
REMARK    7  A    between atoms: C_8  and  C_17 
REMARK    8  A    between atoms: C_8  and  N_11 
REMARK    9  A    between atoms: C_9  and  C_14 
REMARK       I    between atoms: N_11  and  C_13 
REMARK   10  A    between atoms: C_14  and  C_26 
REMARK       I    between atoms: C_15  and  N_24 
REMARK   11  A    between atoms: N_24  and  C_26 
ROOT
HETATM    1  C           1     -21.523  -5.821  -6.174  0.00  0.00     0.185 C 
ENDROOT
BRANCH   1   2
HETATM    2  C           1     -22.521  -4.807  -6.718  0.00  0.00     0.038 C 
BRANCH   2   3
HETATM    3  C           1     -21.789  -3.778  -7.569  0.00  0.00     0.023 C 
BRANCH   3   4
HETATM    4  C           1     -22.400  -3.743  -8.964  0.00  0.00     0.138 C 
BRANCH   4   5
HETATM    5  N           1     -23.834  -3.433  -8.863  0.00  0.00    -0.227 N 
HETATM    6  H           1     -24.204  -2.925  -8.022  0.00  0.00     0.177 HD
HETATM    7  C           1     -24.623  -3.778  -9.792  0.00  0.00     0.665 C 
HETATM    8  N           1     -25.890  -3.503  -9.704  0.00  0.00    -0.235 N 
HETATM    9  N           1     -24.177  -4.390 -10.807  0.00  0.00    -0.235 N 
HETATM   10  H           1     -26.258  -2.998  -8.866  0.00  0.00     0.174 HD
HETATM   11  H           1     -26.541  -3.788 -10.470  0.00  0.00     0.174 HD
HETATM   12  H           1     -24.831  -4.675 -11.576  0.00  0.00     0.174 HD
HETATM   13  H           1     -23.153  -4.611 -10.878  0.00  0.00     0.174 HD
ENDBRANCH   4   5
ENDBRANCH   3   4
ENDBRANCH   2   3
ENDBRANCH   1   2
BRANCH   1  14
HETATM   14  C           1     -20.161  -5.553  -6.763  0.00  0.00     0.196 C 
HETATM   15  O           1     -19.789  -6.169  -7.786  0.00  0.00    -0.646 OA
HETATM   16  O           1     -19.403  -4.716  -6.228  0.00  0.00    -0.646 OA
ENDBRANCH   1  14
BRANCH   1  17
HETATM   17  N           1     -21.457  -5.706  -4.731  0.00  0.00    -0.345 N 
HETATM   18  H           1     -21.477  -4.793  -4.294  0.00  0.00     0.163 HD
HETATM   19  C           1     -21.368  -6.832  -3.957  0.00  0.00     0.249 C 
HETATM   20  O           1     -21.344  -7.921  -4.478  0.00  0.00    -0.271 OA
BRANCH  19  21
HETATM   21  C           1     -21.298  -6.713  -2.454  0.00  0.00     0.275 C 
BRANCH  21  22
HETATM   22  C           1     -21.435  -8.093  -1.827  0.00  0.00     0.053 C 
BRANCH  22  23
HETATM   23  C           1     -22.308  -8.002  -0.582  0.00  0.00     0.076 C 
BRANCH  23  24
HETATM   24  S           1     -21.367  -8.576   0.860  0.00  0.00    -0.173 SA
HETATM   25  C           1     -21.332 -10.328   0.389  0.00  0.00     0.089 C 
ENDBRANCH  23  24
ENDBRANCH  22  23
ENDBRANCH  21  22
BRANCH  21  26
HETATM   26  N           1     -22.413  -5.832  -1.972  0.00  0.00    -0.066 N 
HETATM   27  H           1     -22.078  -4.844  -1.920  0.00  0.00     0.275 HD
HETATM   28  H           1     -23.217  -5.892  -2.637  0.00  0.00     0.275 HD
HETATM   29  H           1     -22.719  -6.146  -1.023  0.00  0.00     0.275 HD
ENDBRANCH  21  26
ENDBRANCH  19  21
ENDBRANCH   1  17
TORSDOF 11
ENDMDL
MODEL 4
REMARK VINA RESULT:      -5.9     13.980     15.131
REMARK  11 active torsions:
REMARK  status: ('A' for Active; 'I' for Inactive)
REMARK    1  A    between atoms: C_2  and  C_13 
REMARK    2  A    between atoms: C_2  and  C_18 
REMARK    3  A    between atoms: C_2  and  N_7 
REMARK       I    between atoms: N_5  and  C_15 
REMARK    4  A    between atoms: C_6  and  C_18 
REMARK    5  A    between atoms: C_6  and  S_19 
REMARK    6  A    between atoms: C_8  and  C_9 
REMARK    7  A    between atoms: C_8  and  C_17 
REMARK    8  A    between atoms: C_8  and  N_11 
REMARK    9  A    between atoms: C_9  and  C_14 
REMARK       I    between atoms: N_11  and  C_13 
REMARK   10  A    between atoms: C_14  and  C_26 
REMARK       I    between atoms: C_15  and  N_24 
REMARK   11  A    between atoms: N_24  and  C_26 
ROOT
HETATM    1  C           1     -20.964  -6.863  -4.748  0.00  0.00     0.185 C 
ENDROOT
BRANCH   1   2
HETATM    2  C           1     -22.078  -6.645  -3.732  0.00  0.00     0.038 C 
BRANCH   2   3
HETATM    3  C           1     -21.488  -6.093  -2.441  0.00  0.00     0.023 C 
BRANCH   3   4
HETATM    4  C           1     -22.289  -6.614  -1.254  0.00  0.00     0.138 C 
BRANCH   4   5
HETATM    5  N           1     -22.071  -8.061  -1.111  0.00  0.00    -0.227 N 
HETATM    6  H           1     -21.407  -8.558  -1.755  0.00  0.00     0.177 HD
HETATM    7  C           1     -22.685  -8.707  -0.212  0.00  0.00     0.665 C 
HETATM    8  N           1     -22.493  -9.987  -0.085  0.00  0.00    -0.235 N 
HETATM    9  N           1     -23.486  -8.108   0.564  0.00  0.00    -0.235 N 
HETATM   10  H           1     -21.832 -10.481  -0.726  0.00  0.00     0.174 HD
HETATM   11  H           1     -22.999 -10.520   0.657  0.00  0.00     0.174 HD
HETATM   12  H           1     -23.994  -8.644   1.310  0.00  0.00     0.174 HD
HETATM   13  H           1     -23.641  -7.074   0.462  0.00  0.00     0.174 HD
ENDBRANCH   4   5
ENDBRANCH   3   4
ENDBRANCH   2   3
ENDBRANCH   1   2
BRANCH   1  14
HETATM   14  C           1     -20.611  -8.329  -4.801  0.00  0.00     0.196 C 
HETATM   15  O           1     -21.177  -9.137  -4.034  0.00  0.00    -0.646 OA
HETATM   16  O           1     -19.751  -8.735  -5.612  0.00  0.00    -0.646 OA
ENDBRANCH   1  14
BRANCH   1  17
HETATM   17  N           1     -21.411  -6.426  -6.056  0.00  0.00    -0.345 N 
HETATM   18  H           1     -22.038  -7.008  -6.597  0.00  0.00     0.163 HD
HETATM   19  C           1     -20.985  -5.225  -6.560  0.00  0.00     0.249 C 
HETATM   20  O           1     -20.238  -4.532  -5.913  0.00  0.00    -0.271 OA
BRANCH  19  21
HETATM   21  C           1     -21.450  -4.771  -7.921  0.00  0.00     0.275 C 
BRANCH  21  22
HETATM   22  C           1     -20.310  -4.061  -8.637  0.00  0.00     0.053 C 
BRANCH  22  23
HETATM   23  C           1     -20.192  -4.595 -10.059  0.00  0.00     0.076 C 
BRANCH  23  24
HETATM   24  S           1     -21.064  -3.482 -11.198  0.00  0.00    -0.173 SA
HETATM   25  C           1     -22.504  -4.554 -11.459  0.00  0.00     0.089 C 
ENDBRANCH  23  24
ENDBRANCH  22  23
ENDBRANCH  21  22
BRANCH  21  26
HETATM   26  N           1     -22.606  -3.828  -7.764  0.00  0.00    -0.066 N 
HETATM   27  H           1     -23.218  -4.153  -6.982  0.00  0.00     0.275 HD
HETATM   28  H           1     -22.248  -2.870  -7.548  0.00  0.00     0.275 HD
HETATM   29  H           1     -23.159  -3.803  -8.651  0.00  0.00     0.275 HD
ENDBRANCH  21  26
ENDBRANCH  19  21
ENDBRANCH   1  17
TORSDOF 11
ENDMDL
MODEL 5
REMARK VINA RESULT:      -5.7     14.018     15.157
REMARK  11 active torsions:
REMARK  status: ('A' for Active; 'I' for Inactive)
REMARK    1  A    between atoms: C_2  and  C_13 
REMARK    2  A    between atoms: C_2  and  C_18 
REMARK    3  A    between atoms: C_2  and  N_7 
REMARK       I    between atoms: N_5  and  C_15 
REMARK    4  A    between atoms: C_6  and  C_18 
REMARK    5  A    between atoms: C_6  and  S_19 
REMARK    6  A    between atoms: C_8  and  C_9 
REMARK    7  A    between atoms: C_8  and  C_17 
REMARK    8  A    between atoms: C_8  and  N_11 
REMARK    9  A    between atoms: C_9  and  C_14 
REMARK       I    between atoms: N_11  and  C_13 
REMARK   10  A    between atoms: C_14  and  C_26 
REMARK       I    between atoms: C_15  and  N_24 
REMARK   11  A    between atoms: N_24  and  C_26 
ROOT
HETATM    1  C           1     -20.664  -7.534  -4.614  0.00  0.00     0.185 C 
ENDROOT
BRANCH   1   2
HETATM    2  C           1     -20.617  -7.289  -3.112  0.00  0.00     0.038 C 
BRANCH   2   3
HETATM    3  C           1     -21.671  -6.258  -2.730  0.00  0.00     0.023 C 
BRANCH   3   4
HETATM    4  C           1     -22.312  -6.653  -1.407  0.00  0.00     0.138 C 
BRANCH   4   5
HETATM    5  N           1     -22.079  -8.083  -1.155  0.00  0.00    -0.227 N 
HETATM    6  H           1     -21.429  -8.626  -1.775  0.00  0.00     0.177 HD
HETATM    7  C           1     -22.663  -8.659  -0.190  0.00  0.00     0.665 C 
HETATM    8  N           1     -22.457  -9.923   0.033  0.00  0.00    -0.235 N 
HETATM    9  N           1     -23.447  -8.005   0.557  0.00  0.00    -0.235 N 
HETATM   10  H           1     -21.809 -10.463  -0.584  0.00  0.00     0.174 HD
HETATM   11  H           1     -22.938 -10.398   0.829  0.00  0.00     0.174 HD
HETATM   12  H           1     -23.931  -8.483   1.357  0.00  0.00     0.174 HD
HETATM   13  H           1     -23.614  -6.984   0.378  0.00  0.00     0.174 HD
ENDBRANCH   4   5
ENDBRANCH   3   4
ENDBRANCH   2   3
ENDBRANCH   1   2
BRANCH   1  14
HETATM   14  C           1     -21.305  -8.873  -4.886  0.00  0.00     0.196 C 
HETATM   15  O           1     -21.965  -9.443  -3.992  0.00  0.00    -0.646 OA
HETATM   16  O           1     -21.174  -9.411  -6.006  0.00  0.00    -0.646 OA
ENDBRANCH   1  14
BRANCH   1  17
HETATM   17  N           1     -21.442  -6.489  -5.249  0.00  0.00    -0.345 N 
HETATM   18  H           1     -22.295  -6.158  -4.816  0.00  0.00     0.163 HD
HETATM   19  C           1     -21.022  -5.946  -6.435  0.00  0.00     0.249 C 
HETATM   20  O           1     -20.004  -6.341  -6.951  0.00  0.00    -0.271 OA
BRANCH  19  21
HETATM   21  C           1     -21.832  -4.858  -7.096  0.00  0.00     0.275 C 
BRANCH  21  22
HETATM   22  C           1     -21.935  -5.137  -8.589  0.00  0.00     0.053 C 
BRANCH  22  23
HETATM   23  C           1     -22.700  -4.006  -9.266  0.00  0.00     0.076 C 
BRANCH  23  24
HETATM   24  S           1     -21.849  -3.532 -10.798  0.00  0.00    -0.173 SA
HETATM   25  C           1     -20.340  -4.491 -10.491  0.00  0.00     0.089 C 
ENDBRANCH  23  24
ENDBRANCH  22  23
ENDBRANCH  21  22
BRANCH  21  26
HETATM   26  N           1     -21.160  -3.535  -6.880  0.00  0.00    -0.066 N 
HETATM   27  H           1     -20.785  -3.490  -5.905  0.00  0.00     0.275 HD
HETATM   28  H           1     -20.373  -3.428  -7.559  0.00  0.00     0.275 HD
HETATM   29  H           1     -21.852  -2.765  -7.023  0.00  0.00     0.275 HD
ENDBRANCH  21  26
ENDBRANCH  19  21
ENDBRANCH   1  17
TORSDOF 11
ENDMDL
MODEL 6
REMARK VINA RESULT:      -5.7     14.594     16.167
REMARK  11 active torsions:
REMARK  status: ('A' for Active; 'I' for Inactive)
REMARK    1  A    between atoms: C_2  and  C_13 
REMARK    2  A    between atoms: C_2  and  C_18 
REMARK    3  A    between atoms: C_2  and  N_7 
REMARK       I    between atoms: N_5  and  C_15 
REMARK    4  A    between atoms: C_6  and  C_18 
REMARK    5  A    between atoms: C_6  and  S_19 
REMARK    6  A    between atoms: C_8  and  C_9 
REMARK    7  A    between atoms: C_8  and  C_17 
REMARK    8  A    between atoms: C_8  and  N_11 
REMARK    9  A    between atoms: C_9  and  C_14 
REMARK       I    between atoms: N_11  and  C_13 
REMARK   10  A    between atoms: C_14  and  C_26 
REMARK       I    between atoms: C_15  and  N_24 
REMARK   11  A    between atoms: N_24  and  C_26 
ROOT
HETATM    1  C           1     -20.751  -6.812  -5.362  0.00  0.00     0.185 C 
ENDROOT
BRANCH   1   2
HETATM    2  C           1     -20.563  -6.111  -6.702  0.00  0.00     0.038 C 
BRANCH   2   3
HETATM    3  C           1     -20.039  -4.701  -6.469  0.00  0.00     0.023 C 
BRANCH   3   4
HETATM    4  C           1     -20.648  -3.756  -7.497  0.00  0.00     0.138 C 
BRANCH   4   5
HETATM    5  N           1     -22.115  -3.827  -7.420  0.00  0.00    -0.227 N 
HETATM    6  H           1     -22.591  -3.841  -6.485  0.00  0.00     0.177 HD
HETATM    7  C           1     -22.803  -3.871  -8.482  0.00  0.00     0.665 C 
HETATM    8  N           1     -24.100  -3.933  -8.414  0.00  0.00    -0.235 N 
HETATM    9  N           1     -22.228  -3.854  -9.610  0.00  0.00    -0.235 N 
HETATM   10  H           1     -24.573  -3.947  -7.483  0.00  0.00     0.174 HD
HETATM   11  H           1     -24.667  -3.969  -9.290  0.00  0.00     0.174 HD
HETATM   12  H           1     -22.799  -3.890 -10.490  0.00  0.00     0.174 HD
HETATM   13  H           1     -21.181  -3.804  -9.665  0.00  0.00     0.174 HD
ENDBRANCH   4   5
ENDBRANCH   3   4
ENDBRANCH   2   3
ENDBRANCH   1   2
BRANCH   1  14
HETATM   14  C           1     -22.003  -6.296  -4.696  0.00  0.00     0.196 C 
HETATM   15  O           1     -23.002  -6.000  -5.387  0.00  0.00    -0.646 OA
HETATM   16  O           1     -22.041  -6.165  -3.454  0.00  0.00    -0.646 OA
ENDBRANCH   1  14
BRANCH   1  17
HETATM   17  N           1     -20.872  -8.240  -5.578  0.00  0.00    -0.345 N 
HETATM   18  H           1     -21.448  -8.592  -6.331  0.00  0.00     0.163 HD
HETATM   19  C           1     -20.205  -9.115  -4.761  0.00  0.00     0.249 C 
HETATM   20  O           1     -19.518  -8.695  -3.862  0.00  0.00    -0.271 OA
BRANCH  19  21
HETATM   21  C           1     -20.331 -10.602  -4.984  0.00  0.00     0.275 C 
BRANCH  21  22
HETATM   22  C           1     -18.958 -11.249  -4.880  0.00  0.00     0.053 C 
BRANCH  22  23
HETATM   23  C           1     -18.176 -10.994  -6.164  0.00  0.00     0.076 C 
BRANCH  23  24
HETATM   24  S           1     -16.592 -10.205  -5.761  0.00  0.00    -0.173 SA
HETATM   25  C           1     -16.567 -10.692  -4.013  0.00  0.00     0.089 C 
ENDBRANCH  23  24
ENDBRANCH  22  23
ENDBRANCH  21  22
BRANCH  21  26
HETATM   26  N           1     -20.901 -10.855  -6.349  0.00  0.00    -0.066 N 
HETATM   27  H           1     -21.624 -11.607  -6.290  0.00  0.00     0.275 HD
HETATM   28  H           1     -21.340  -9.978  -6.711  0.00  0.00     0.275 HD
HETATM   29  H           1     -20.137 -11.156  -6.995  0.00  0.00     0.275 HD
ENDBRANCH  21  26
ENDBRANCH  19  21
ENDBRANCH   1  17
TORSDOF 11
ENDMDL
MODEL 7
REMARK VINA RESULT:      -5.6     14.466     16.224
REMARK  11 active torsions:
REMARK  status: ('A' for Active; 'I' for Inactive)
REMARK    1  A    between atoms: C_2  and  C_13 
REMARK    2  A    between atoms: C_2  and  C_18 
REMARK    3  A    between atoms: C_2  and  N_7 
REMARK       I    between atoms: N_5  and  C_15 
REMARK    4  A    between atoms: C_6  and  C_18 
REMARK    5  A    between atoms: C_6  and  S_19 
REMARK    6  A    between atoms: C_8  and  C_9 
REMARK    7  A    between atoms: C_8  and  C_17 
REMARK    8  A    between atoms: C_8  and  N_11 
REMARK    9  A    between atoms: C_9  and  C_14 
REMARK       I    between atoms: N_11  and  C_13 
REMARK   10  A    between atoms: C_14  and  C_26 
REMARK       I    between atoms: C_15  and  N_24 
REMARK   11  A    between atoms: N_24  and  C_26 
ROOT
HETATM    1  C           1     -20.703  -6.795  -5.443  0.00  0.00     0.185 C 
ENDROOT
BRANCH   1   2
HETATM    2  C           1     -20.562  -6.082  -6.782  0.00  0.00     0.038 C 
BRANCH   2   3
HETATM    3  C           1     -20.085  -4.655  -6.551  0.00  0.00     0.023 C 
BRANCH   3   4
HETATM    4  C           1     -20.729  -3.732  -7.578  0.00  0.00     0.138 C 
BRANCH   4   5
HETATM    5  N           1     -22.192  -3.843  -7.489  0.00  0.00    -0.227 N 
HETATM    6  H           1     -22.655  -3.948  -6.553  0.00  0.00     0.177 HD
HETATM    7  C           1     -22.894  -3.811  -8.543  0.00  0.00     0.665 C 
HETATM    8  N           1     -24.188  -3.909  -8.464  0.00  0.00    -0.235 N 
HETATM    9  N           1     -22.336  -3.685  -9.672  0.00  0.00    -0.235 N 
HETATM   10  H           1     -24.648  -4.014  -7.532  0.00  0.00     0.174 HD
HETATM   11  H           1     -24.767  -3.884  -9.334  0.00  0.00     0.174 HD
HETATM   12  H           1     -22.918  -3.659 -10.545  0.00  0.00     0.174 HD
HETATM   13  H           1     -21.291  -3.606  -9.735  0.00  0.00     0.174 HD
ENDBRANCH   4   5
ENDBRANCH   3   4
ENDBRANCH   2   3
ENDBRANCH   1   2
BRANCH   1  14
HETATM   14  C           1     -21.892  -6.238  -4.700  0.00  0.00     0.196 C 
HETATM   15  O           1     -22.957  -6.003  -5.309  0.00  0.00    -0.646 OA
HETATM   16  O           1     -21.811  -6.011  -3.473  0.00  0.00    -0.646 OA
ENDBRANCH   1  14
BRANCH   1  17
HETATM   17  N           1     -20.897  -8.214  -5.670  0.00  0.00    -0.345 N 
HETATM   18  H           1     -21.525  -8.529  -6.398  0.00  0.00     0.163 HD
HETATM   19  C           1     -20.229  -9.128  -4.899  0.00  0.00     0.249 C 
HETATM   20  O           1     -19.479  -8.751  -4.031  0.00  0.00    -0.271 OA
BRANCH  19  21
HETATM   21  C           1     -20.430 -10.605  -5.135  0.00  0.00     0.275 C 
BRANCH  21  22
HETATM   22  C           1     -19.829 -11.391  -3.979  0.00  0.00     0.053 C 
BRANCH  22  23
HETATM   23  C           1     -20.941 -11.848  -3.042  0.00  0.00     0.076 C 
BRANCH  23  24
HETATM   24  S           1     -20.733 -11.052  -1.423  0.00  0.00    -0.173 SA
HETATM   25  C           1     -22.004  -9.780  -1.663  0.00  0.00     0.089 C 
ENDBRANCH  23  24
ENDBRANCH  22  23
ENDBRANCH  21  22
BRANCH  21  26
HETATM   26  N           1     -19.755 -11.003  -6.414  0.00  0.00    -0.066 N 
HETATM   27  H           1     -19.962 -10.293  -7.153  0.00  0.00     0.275 HD
HETATM   28  H           1     -18.723 -11.054  -6.262  0.00  0.00     0.275 HD
HETATM   29  H           1     -20.111 -11.936  -6.720  0.00  0.00     0.275 HD
ENDBRANCH  21  26
ENDBRANCH  19  21
ENDBRANCH   1  17
TORSDOF 11
ENDMDL
MODEL 8
REMARK VINA RESULT:      -5.3     14.042     15.379
REMARK  11 active torsions:
REMARK  status: ('A' for Active; 'I' for Inactive)
REMARK    1  A    between atoms: C_2  and  C_13 
REMARK    2  A    between atoms: C_2  and  C_18 
REMARK    3  A    between atoms: C_2  and  N_7 
REMARK       I    between atoms: N_5  and  C_15 
REMARK    4  A    between atoms: C_6  and  C_18 
REMARK    5  A    between atoms: C_6  and  S_19 
REMARK    6  A    between atoms: C_8  and  C_9 
REMARK    7  A    between atoms: C_8  and  C_17 
REMARK    8  A    between atoms: C_8  and  N_11 
REMARK    9  A    between atoms: C_9  and  C_14 
REMARK       I    between atoms: N_11  and  C_13 
REMARK   10  A    between atoms: C_14  and  C_26 
REMARK       I    between atoms: C_15  and  N_24 
REMARK   11  A    between atoms: N_24  and  C_26 
ROOT
HETATM    1  C           1     -21.678  -7.628  -3.497  0.00  0.00     0.185 C 
ENDROOT
BRANCH   1   2
HETATM    2  C           1     -21.006  -8.990  -3.373  0.00  0.00     0.038 C 
BRANCH   2   3
HETATM    3  C           1     -21.991 -10.082  -3.768  0.00  0.00     0.023 C 
BRANCH   3   4
HETATM    4  C           1     -21.993 -11.173  -2.705  0.00  0.00     0.138 C 
BRANCH   4   5
HETATM    5  N           1     -23.203 -11.052  -1.880  0.00  0.00    -0.227 N 
HETATM    6  H           1     -24.144 -11.266  -2.293  0.00  0.00     0.177 HD
HETATM    7  C           1     -23.111 -10.691  -0.669  0.00  0.00     0.665 C 
HETATM    8  N           1     -24.181 -10.584   0.061  0.00  0.00    -0.235 N 
HETATM    9  N           1     -21.976 -10.433  -0.171  0.00  0.00    -0.235 N 
HETATM   10  H           1     -25.117 -10.797  -0.351  0.00  0.00     0.174 HD
HETATM   11  H           1     -24.104 -10.286   1.059  0.00  0.00     0.174 HD
HETATM   12  H           1     -21.900 -10.133   0.832  0.00  0.00     0.174 HD
HETATM   13  H           1     -21.112 -10.519  -0.760  0.00  0.00     0.174 HD
ENDBRANCH   4   5
ENDBRANCH   3   4
ENDBRANCH   2   3
ENDBRANCH   1   2
BRANCH   1  14
HETATM   14  C           1     -21.733  -6.969  -2.142  0.00  0.00     0.196 C 
HETATM   15  O           1     -22.142  -5.792  -2.036  0.00  0.00    -0.646 OA
HETATM   16  O           1     -21.370  -7.598  -1.125  0.00  0.00    -0.646 OA
ENDBRANCH   1  14
BRANCH   1  17
HETATM   17  N           1     -20.917  -6.797  -4.409  0.00  0.00    -0.345 N 
HETATM   18  H           1     -19.906  -6.786  -4.361  0.00  0.00     0.163 HD
HETATM   19  C           1     -21.566  -6.024  -5.336  0.00  0.00     0.249 C 
HETATM   20  O           1     -22.772  -6.038  -5.392  0.00  0.00    -0.271 OA
BRANCH  19  21
HETATM   21  C           1     -20.775  -5.158  -6.285  0.00  0.00     0.275 C 
BRANCH  21  22
HETATM   22  C           1     -21.729  -4.329  -7.132  0.00  0.00     0.053 C 
BRANCH  22  23
HETATM   23  C           1     -21.474  -4.610  -8.608  0.00  0.00     0.076 C 
BRANCH  23  24
HETATM   24  S           1     -22.898  -4.050  -9.585  0.00  0.00    -0.173 SA
HETATM   25  C           1     -22.157  -4.364 -11.212  0.00  0.00     0.089 C 
ENDBRANCH  23  24
ENDBRANCH  22  23
ENDBRANCH  21  22
BRANCH  21  26
HETATM   26  N           1     -19.941  -6.029  -7.177  0.00  0.00    -0.066 N 
HETATM   27  H           1     -19.615  -5.473  -8.000  0.00  0.00     0.275 HD
HETATM   28  H           1     -19.113  -6.381  -6.646  0.00  0.00     0.275 HD
HETATM   29  H           1     -20.514  -6.838  -7.509  0.00  0.00     0.275 HD
ENDBRANCH  21  26
ENDBRANCH  19  21
ENDBRANCH   1  17
TORSDOF 11
ENDMDL
MODEL 9
REMARK VINA RESULT:      -5.1     15.297     17.286
REMARK  11 active torsions:
REMARK  status: ('A' for Active; 'I' for Inactive)
REMARK    1  A    between atoms: C_2  and  C_13 
REMARK    2  A    between atoms: C_2  and  C_18 
REMARK    3  A    between atoms: C_2  and  N_7 
REMARK       I    between atoms: N_5  and  C_15 
REMARK    4  A    between atoms: C_6  and  C_18 
REMARK    5  A    between atoms: C_6  and  S_19 
REMARK    6  A    between atoms: C_8  and  C_9 
REMARK    7  A    between atoms: C_8  and  C_17 
REMARK    8  A    between atoms: C_8  and  N_11 
REMARK    9  A    between atoms: C_9  and  C_14 
REMARK       I    between atoms: N_11  and  C_13 
REMARK   10  A    between atoms: C_14  and  C_26 
REMARK       I    between atoms: C_15  and  N_24 
REMARK   11  A    between atoms: N_24  and  C_26 
ROOT
HETATM    1  C           1     -20.841  -9.131  -4.707  0.00  0.00     0.185 C 
ENDROOT
BRANCH   1   2
HETATM    2  C           1     -21.398  -7.896  -5.404  0.00  0.00     0.038 C 
BRANCH   2   3
HETATM    3  C           1     -21.038  -6.653  -4.602  0.00  0.00     0.023 C 
BRANCH   3   4
HETATM    4  C           1     -20.992  -5.446  -5.529  0.00  0.00     0.138 C 
BRANCH   4   5
HETATM    5  N           1     -22.305  -5.264  -6.164  0.00  0.00    -0.227 N 
HETATM    6  H           1     -23.121  -5.849  -5.859  0.00  0.00     0.177 HD
HETATM    7  C           1     -22.452  -4.400  -7.079  0.00  0.00     0.665 C 
HETATM    8  N           1     -23.613  -4.239  -7.640  0.00  0.00    -0.235 N 
HETATM    9  N           1     -21.468  -3.694  -7.446  0.00  0.00    -0.235 N 
HETATM   10  H           1     -24.425  -4.823  -7.337  0.00  0.00     0.174 HD
HETATM   11  H           1     -23.734  -3.527  -8.395  0.00  0.00     0.174 HD
HETATM   12  H           1     -21.590  -2.978  -8.204  0.00  0.00     0.174 HD
HETATM   13  H           1     -20.530  -3.824  -6.992  0.00  0.00     0.174 HD
ENDBRANCH   4   5
ENDBRANCH   3   4
ENDBRANCH   2   3
ENDBRANCH   1   2
BRANCH   1  14
HETATM   14  C           1     -19.334  -9.104  -4.762  0.00  0.00     0.196 C 
HETATM   15  O           1     -18.669  -9.160  -3.705  0.00  0.00    -0.646 OA
HETATM   16  O           1     -18.750  -9.025  -5.864  0.00  0.00    -0.646 OA
ENDBRANCH   1  14
BRANCH   1  17
HETATM   17  N           1     -21.275  -9.141  -3.324  0.00  0.00    -0.345 N 
HETATM   18  H           1     -21.045  -8.365  -2.716  0.00  0.00     0.163 HD
HETATM   19  C           1     -21.996 -10.200  -2.839  0.00  0.00     0.249 C 
HETATM   20  O           1     -22.270 -11.125  -3.565  0.00  0.00    -0.271 OA
BRANCH  19  21
HETATM   21  C           1     -22.447 -10.210  -1.399  0.00  0.00     0.275 C 
BRANCH  21  22
HETATM   22  C           1     -21.231 -10.161  -0.486  0.00  0.00     0.053 C 
BRANCH  22  23
HETATM   23  C           1     -21.285  -8.899   0.366  0.00  0.00     0.076 C 
BRANCH  23  24
HETATM   24  S           1     -22.892  -8.085   0.140  0.00  0.00    -0.173 SA
HETATM   25  C           1     -22.292  -6.761  -0.947  0.00  0.00     0.089 C 
ENDBRANCH  23  24
ENDBRANCH  22  23
ENDBRANCH  21  22
BRANCH  21  26
HETATM   26  N           1     -23.225 -11.464  -1.130  0.00  0.00    -0.066 N 
HETATM   27  H           1     -23.588 -11.445  -0.150  0.00  0.00     0.275 HD
HETATM   28  H           1     -24.028 -11.526  -1.796  0.00  0.00     0.275 HD
HETATM   29  H           1     -22.602 -12.294  -1.254  0.00  0.00     0.275 HD
ENDBRANCH  21  26
ENDBRANCH  19  21
ENDBRANCH   1  17
TORSDOF 11
ENDMDL
