MODEL 1
REMARK VINA RESULT:      -5.3      0.000      0.000
REMARK  8 active torsions:
REMARK  status: ('A' for Active; 'I' for Inactive)
REMARK    1  A    between atoms: C_2  and  S_12 
REMARK    2  A    between atoms: C_2  and  C_3 
REMARK    3  A    between atoms: C_3  and  C_19 
REMARK    4  A    between atoms: C_3  and  N_15 
REMARK    5  A    between atoms: C_4  and  C_16 
REMARK    6  A    between atoms: C_4  and  C_5 
REMARK    7  A    between atoms: C_4  and  N_9 
REMARK    8  A    between atoms: C_5  and  C_6 
REMARK       I    between atoms: N_15  and  C_16 
ROOT
HETATM    1  O           1     -26.061  -6.218 -17.398  0.00  0.00    -0.271 OA
HETATM    2  N           1     -27.501  -6.608 -19.060  0.00  0.00    -0.344 N 
HETATM    3  C           1     -26.232  -6.449 -18.571  0.00  0.00     0.249 C 
HETATM    4  H           1     -27.643  -6.803 -20.043  0.00  0.00     0.163 HD
ENDROOT
BRANCH   3   5
HETATM    5  C           1     -25.046  -6.563 -19.498  0.00  0.00     0.284 C 
BRANCH   5   6
HETATM    6  C           1     -25.523  -6.509 -20.943  0.00  0.00     0.155 C 
BRANCH   6   7
HETATM    7  C           1     -25.479  -7.894 -21.540  0.00  0.00     0.175 C 
HETATM    8  O           1     -24.484  -8.258 -22.202  0.00  0.00    -0.648 OA
HETATM    9  O           1     -26.438  -8.679 -21.371  0.00  0.00    -0.648 OA
ENDBRANCH   6   7
ENDBRANCH   5   6
BRANCH   5  10
HETATM   10  N           1     -24.344  -7.866 -19.251  0.00  0.00    -0.066 N 
HETATM   11  H           1     -24.990  -8.657 -19.475  0.00  0.00     0.275 HD
HETATM   12  H           1     -23.497  -7.926 -19.860  0.00  0.00     0.275 HD
HETATM   13  H           1     -24.056  -7.922 -18.248  0.00  0.00     0.275 HD
ENDBRANCH   5  10
ENDBRANCH   3   5
BRANCH   2  14
HETATM   14  C           1     -28.640  -6.498 -18.169  0.00  0.00     0.194 C 
BRANCH  14  15
HETATM   15  C           1     -29.358  -5.180 -18.425  0.00  0.00     0.106 C 
BRANCH  15  16
HETATM   16  S           1     -28.819  -3.949 -17.205  0.00  0.00    -0.180 SA
HETATM   17  H           1     -27.539  -3.893 -17.617  0.00  0.00     0.101 HD
ENDBRANCH  15  16
ENDBRANCH  14  15
BRANCH  14  18
HETATM   18  C           1     -29.587  -7.645 -18.421  0.00  0.00     0.197 C 
HETATM   19  O           1     -29.332  -8.481 -19.315  0.00  0.00    -0.646 OA
HETATM   20  O           1     -30.626  -7.759 -17.736  0.00  0.00    -0.646 OA
ENDBRANCH  14  18
ENDBRANCH   2  14
TORSDOF 8
ENDMDL
MODEL 2
REMARK VINA RESULT:      -5.2      3.373      6.163
REMARK  8 active torsions:
REMARK  status: ('A' for Active; 'I' for Inactive)
REMARK    1  A    between atoms: C_2  and  S_12 
REMARK    2  A    between atoms: C_2  and  C_3 
REMARK    3  A    between atoms: C_3  and  C_19 
REMARK    4  A    between atoms: C_3  and  N_15 
REMARK    5  A    between atoms: C_4  and  C_16 
REMARK    6  A    between atoms: C_4  and  C_5 
REMARK    7  A    between atoms: C_4  and  N_9 
REMARK    8  A    between atoms: C_5  and  C_6 
REMARK       I    between atoms: N_15  and  C_16 
ROOT
HETATM    1  O           1     -29.274  -6.852 -16.673  0.00  0.00    -0.271 OA
HETATM    2  N           1     -27.611  -5.512 -17.326  0.00  0.00    -0.344 N 
HETATM    3  C           1     -28.914  -5.738 -16.971  0.00  0.00     0.249 C 
HETATM    4  H           1     -27.309  -4.578 -17.574  0.00  0.00     0.163 HD
ENDROOT
BRANCH   3   5
HETATM    5  C           1     -29.900  -4.596 -16.951  0.00  0.00     0.284 C 
BRANCH   5   6
HETATM    6  C           1     -31.308  -5.135 -17.167  0.00  0.00     0.155 C 
BRANCH   6   7
HETATM    7  C           1     -32.309  -4.027 -16.957  0.00  0.00     0.175 C 
HETATM    8  O           1     -32.338  -3.055 -17.743  0.00  0.00    -0.648 OA
HETATM    9  O           1     -33.109  -4.080 -15.998  0.00  0.00    -0.648 OA
ENDBRANCH   6   7
ENDBRANCH   5   6
BRANCH   5  10
HETATM   10  N           1     -29.562  -3.626 -18.044  0.00  0.00    -0.066 N 
HETATM   11  H           1     -30.420  -3.093 -18.313  0.00  0.00     0.275 HD
HETATM   12  H           1     -28.831  -2.961 -17.706  0.00  0.00     0.275 HD
HETATM   13  H           1     -29.200  -4.149 -18.873  0.00  0.00     0.275 HD
ENDBRANCH   5  10
ENDBRANCH   3   5
BRANCH   2  14
HETATM   14  C           1     -26.664  -6.610 -17.345  0.00  0.00     0.194 C 
BRANCH  14  15
HETATM   15  C           1     -25.758  -6.476 -18.562  0.00  0.00     0.106 C 
BRANCH  15  16
HETATM   16  S           1     -26.749  -6.641 -20.074  0.00  0.00    -0.180 SA
HETATM   17  H           1     -27.547  -7.622 -19.614  0.00  0.00     0.101 HD
ENDBRANCH  15  16
ENDBRANCH  14  15
BRANCH  14  18
HETATM   18  C           1     -25.828  -6.575 -16.089  0.00  0.00     0.197 C 
HETATM   19  O           1     -25.930  -7.491 -15.244  0.00  0.00    -0.646 OA
HETATM   20  O           1     -25.035  -5.629 -15.894  0.00  0.00    -0.646 OA
ENDBRANCH  14  18
ENDBRANCH   2  14
TORSDOF 8
ENDMDL
MODEL 3
REMARK VINA RESULT:      -5.2      2.429      4.913
REMARK  8 active torsions:
REMARK  status: ('A' for Active; 'I' for Inactive)
REMARK    1  A    between atoms: C_2  and  S_12 
REMARK    2  A    between atoms: C_2  and  C_3 
REMARK    3  A    between atoms: C_3  and  C_19 
REMARK    4  A    between atoms: C_3  and  N_15 
REMARK    5  A    between atoms: C_4  and  C_16 
REMARK    6  A    between atoms: C_4  and  C_5 
REMARK    7  A    between atoms: C_4  and  N_9 
REMARK    8  A    between atoms: C_5  and  C_6 
REMARK       I    between atoms: N_15  and  C_16 
ROOT
HETATM    1  O           1     -28.451  -5.237 -19.459  0.00  0.00    -0.271 OA
HETATM    2  N           1     -27.116  -7.011 -19.215  0.00  0.00    -0.344 N 
HETATM    3  C           1     -28.088  -6.158 -18.766  0.00  0.00     0.249 C 
HETATM    4  H           1     -26.813  -7.783 -18.633  0.00  0.00     0.163 HD
ENDROOT
BRANCH   3   5
HETATM    5  C           1     -28.706  -6.366 -17.405  0.00  0.00     0.284 C 
BRANCH   5   6
HETATM    6  C           1     -27.745  -5.879 -16.329  0.00  0.00     0.155 C 
BRANCH   6   7
HETATM    7  C           1     -27.242  -7.057 -15.533  0.00  0.00     0.175 C 
HETATM    8  O           1     -28.006  -7.647 -14.739  0.00  0.00    -0.648 OA
HETATM    9  O           1     -26.060  -7.444 -15.666  0.00  0.00    -0.648 OA
ENDBRANCH   6   7
ENDBRANCH   5   6
BRANCH   5  10
HETATM   10  N           1     -28.985  -7.826 -17.202  0.00  0.00    -0.066 N 
HETATM   11  H           1     -29.572  -7.953 -16.347  0.00  0.00     0.275 HD
HETATM   12  H           1     -29.496  -8.202 -18.033  0.00  0.00     0.275 HD
HETATM   13  H           1     -28.083  -8.340 -17.087  0.00  0.00     0.275 HD
ENDBRANCH   5  10
ENDBRANCH   3   5
BRANCH   2  14
HETATM   14  C           1     -26.523  -6.810 -20.522  0.00  0.00     0.194 C 
BRANCH  14  15
HETATM   15  C           1     -25.092  -6.315 -20.358  0.00  0.00     0.106 C 
BRANCH  15  16
HETATM   16  S           1     -24.370  -7.039 -18.858  0.00  0.00    -0.180 SA
HETATM   17  H           1     -24.582  -8.322 -19.204  0.00  0.00     0.101 HD
ENDBRANCH  15  16
ENDBRANCH  14  15
BRANCH  14  18
HETATM   18  C           1     -26.521  -8.116 -21.279  0.00  0.00     0.197 C 
HETATM   19  O           1     -27.572  -8.786 -21.372  0.00  0.00    -0.646 OA
HETATM   20  O           1     -25.468  -8.527 -21.812  0.00  0.00    -0.646 OA
ENDBRANCH  14  18
ENDBRANCH   2  14
TORSDOF 8
ENDMDL
MODEL 4
REMARK VINA RESULT:      -5.2     10.449     12.237
REMARK  8 active torsions:
REMARK  status: ('A' for Active; 'I' for Inactive)
REMARK    1  A    between atoms: C_2  and  S_12 
REMARK    2  A    between atoms: C_2  and  C_3 
REMARK    3  A    between atoms: C_3  and  C_19 
REMARK    4  A    between atoms: C_3  and  N_15 
REMARK    5  A    between atoms: C_4  and  C_16 
REMARK    6  A    between atoms: C_4  and  C_5 
REMARK    7  A    between atoms: C_4  and  N_9 
REMARK    8  A    between atoms: C_5  and  C_6 
REMARK       I    between atoms: N_15  and  C_16 
ROOT
HETATM    1  O           1     -33.502  -1.472 -10.593  0.00  0.00    -0.271 OA
HETATM    2  N           1     -35.445  -1.926 -11.598  0.00  0.00    -0.344 N 
HETATM    3  C           1     -34.275  -2.308 -10.998  0.00  0.00     0.249 C 
HETATM    4  H           1     -36.092  -2.627 -11.936  0.00  0.00     0.163 HD
ENDROOT
BRANCH   3   5
HETATM    5  C           1     -33.950  -3.773 -10.841  0.00  0.00     0.284 C 
BRANCH   5   6
HETATM    6  C           1     -33.251  -4.277 -12.096  0.00  0.00     0.155 C 
BRANCH   6   7
HETATM    7  C           1     -34.241  -4.342 -13.232  0.00  0.00     0.175 C 
HETATM    8  O           1     -34.271  -3.431 -14.087  0.00  0.00    -0.648 OA
HETATM    9  O           1     -35.033  -5.306 -13.318  0.00  0.00    -0.648 OA
ENDBRANCH   6   7
ENDBRANCH   5   6
BRANCH   5  10
HETATM   10  N           1     -35.219  -4.545 -10.631  0.00  0.00    -0.066 N 
HETATM   11  H           1     -35.703  -4.675 -11.548  0.00  0.00     0.275 HD
HETATM   12  H           1     -34.994  -5.480 -10.222  0.00  0.00     0.275 HD
HETATM   13  H           1     -35.842  -4.020  -9.977  0.00  0.00     0.275 HD
ENDBRANCH   5  10
ENDBRANCH   3   5
BRANCH   2  14
HETATM   14  C           1     -35.756  -0.518 -11.748  0.00  0.00     0.194 C 
BRANCH  14  15
HETATM   15  C           1     -36.144  -0.237 -13.194  0.00  0.00     0.106 C 
BRANCH  15  16
HETATM   16  S           1     -34.907   0.854 -13.952  0.00  0.00    -0.180 SA
HETATM   17  H           1     -34.664   1.582 -12.847  0.00  0.00     0.101 HD
ENDBRANCH  15  16
ENDBRANCH  14  15
BRANCH  14  18
HETATM   18  C           1     -36.905  -0.157 -10.839  0.00  0.00     0.197 C 
HETATM   19  O           1     -36.745   0.695  -9.938  0.00  0.00    -0.646 OA
HETATM   20  O           1     -38.015  -0.711 -10.987  0.00  0.00    -0.646 OA
ENDBRANCH  14  18
ENDBRANCH   2  14
TORSDOF 8
ENDMDL
MODEL 5
REMARK VINA RESULT:      -5.1     10.836     12.479
REMARK  8 active torsions:
REMARK  status: ('A' for Active; 'I' for Inactive)
REMARK    1  A    between atoms: C_2  and  S_12 
REMARK    2  A    between atoms: C_2  and  C_3 
REMARK    3  A    between atoms: C_3  and  C_19 
REMARK    4  A    between atoms: C_3  and  N_15 
REMARK    5  A    between atoms: C_4  and  C_16 
REMARK    6  A    between atoms: C_4  and  C_5 
REMARK    7  A    between atoms: C_4  and  N_9 
REMARK    8  A    between atoms: C_5  and  C_6 
REMARK       I    between atoms: N_15  and  C_16 
ROOT
HETATM    1  O           1     -36.542  -1.126 -11.675  0.00  0.00    -0.271 OA
HETATM    2  N           1     -34.928  -2.065 -12.901  0.00  0.00    -0.344 N 
HETATM    3  C           1     -35.896  -1.118 -12.696  0.00  0.00     0.249 C 
HETATM    4  H           1     -34.386  -2.057 -13.756  0.00  0.00     0.163 HD
ENDROOT
BRANCH   3   5
HETATM    5  C           1     -36.155  -0.064 -13.744  0.00  0.00     0.284 C 
BRANCH   5   6
HETATM    6  C           1     -37.583  -0.195 -14.256  0.00  0.00     0.155 C 
BRANCH   6   7
HETATM    7  C           1     -37.612   0.071 -15.740  0.00  0.00     0.175 C 
HETATM    8  O           1     -37.694  -0.882 -16.544  0.00  0.00    -0.648 OA
HETATM    9  O           1     -37.554   1.245 -16.167  0.00  0.00    -0.648 OA
ENDBRANCH   6   7
ENDBRANCH   5   6
BRANCH   5  10
HETATM   10  N           1     -35.196  -0.248 -14.884  0.00  0.00    -0.066 N 
HETATM   11  H           1     -35.275   0.563 -15.538  0.00  0.00     0.275 HD
HETATM   12  H           1     -34.221  -0.302 -14.513  0.00  0.00     0.275 HD
HETATM   13  H           1     -35.426  -1.132 -15.392  0.00  0.00     0.275 HD
ENDBRANCH   5  10
ENDBRANCH   3   5
BRANCH   2  14
HETATM   14  C           1     -34.680  -3.078 -11.894  0.00  0.00     0.194 C 
BRANCH  14  15
HETATM   15  C           1     -34.481  -4.428 -12.571  0.00  0.00     0.106 C 
BRANCH  15  16
HETATM   16  S           1     -34.536  -5.745 -11.323  0.00  0.00    -0.180 SA
HETATM   17  H           1     -34.244  -6.751 -12.168  0.00  0.00     0.101 HD
ENDBRANCH  15  16
ENDBRANCH  14  15
BRANCH  14  18
HETATM   18  C           1     -33.439  -2.718 -11.115  0.00  0.00     0.197 C 
HETATM   19  O           1     -33.508  -1.897 -10.174  0.00  0.00    -0.646 OA
HETATM   20  O           1     -32.343  -3.240 -11.410  0.00  0.00    -0.646 OA
ENDBRANCH  14  18
ENDBRANCH   2  14
TORSDOF 8
ENDMDL
MODEL 6
REMARK VINA RESULT:      -5.1      2.239      2.789
REMARK  8 active torsions:
REMARK  status: ('A' for Active; 'I' for Inactive)
REMARK    1  A    between atoms: C_2  and  S_12 
REMARK    2  A    between atoms: C_2  and  C_3 
REMARK    3  A    between atoms: C_3  and  C_19 
REMARK    4  A    between atoms: C_3  and  N_15 
REMARK    5  A    between atoms: C_4  and  C_16 
REMARK    6  A    between atoms: C_4  and  C_5 
REMARK    7  A    between atoms: C_4  and  N_9 
REMARK    8  A    between atoms: C_5  and  C_6 
REMARK       I    between atoms: N_15  and  C_16 
ROOT
HETATM    1  O           1     -27.220  -6.014 -20.387  0.00  0.00    -0.271 OA
HETATM    2  N           1     -26.863  -6.400 -18.216  0.00  0.00    -0.344 N 
HETATM    3  C           1     -26.463  -6.397 -19.526  0.00  0.00     0.249 C 
HETATM    4  H           1     -26.229  -6.720 -17.495  0.00  0.00     0.163 HD
ENDROOT
BRANCH   3   5
HETATM    5  C           1     -25.078  -6.869 -19.894  0.00  0.00     0.284 C 
BRANCH   5   6
HETATM    6  C           1     -25.177  -7.953 -20.959  0.00  0.00     0.155 C 
BRANCH   6   7
HETATM    7  C           1     -23.868  -8.047 -21.704  0.00  0.00     0.175 C 
HETATM    8  O           1     -23.800  -7.677 -22.895  0.00  0.00    -0.648 OA
HETATM    9  O           1     -22.852  -8.495 -21.129  0.00  0.00    -0.648 OA
ENDBRANCH   6   7
ENDBRANCH   5   6
BRANCH   5  10
HETATM   10  N           1     -24.401  -7.425 -18.676  0.00  0.00    -0.066 N 
HETATM   11  H           1     -23.905  -6.655 -18.172  0.00  0.00     0.275 HD
HETATM   12  H           1     -25.116  -7.850 -18.044  0.00  0.00     0.275 HD
HETATM   13  H           1     -23.712  -8.156 -18.964  0.00  0.00     0.275 HD
ENDBRANCH   5  10
ENDBRANCH   3   5
BRANCH   2  14
HETATM   14  C           1     -28.194  -5.946 -17.864  0.00  0.00     0.194 C 
BRANCH  14  15
HETATM   15  C           1     -28.957  -7.084 -17.197  0.00  0.00     0.106 C 
BRANCH  15  16
HETATM   16  S           1     -30.414  -7.502 -18.195  0.00  0.00    -0.180 SA
HETATM   17  H           1     -31.101  -6.379 -17.919  0.00  0.00     0.101 HD
ENDBRANCH  15  16
ENDBRANCH  14  15
BRANCH  14  18
HETATM   18  C           1     -28.091  -4.782 -16.909  0.00  0.00     0.197 C 
HETATM   19  O           1     -27.589  -4.945 -15.776  0.00  0.00    -0.646 OA
HETATM   20  O           1     -28.508  -3.655 -17.252  0.00  0.00    -0.646 OA
ENDBRANCH  14  18
ENDBRANCH   2  14
TORSDOF 8
ENDMDL
MODEL 7
REMARK VINA RESULT:      -5.1     11.877     13.549
REMARK  8 active torsions:
REMARK  status: ('A' for Active; 'I' for Inactive)
REMARK    1  A    between atoms: C_2  and  S_12 
REMARK    2  A    between atoms: C_2  and  C_3 
REMARK    3  A    between atoms: C_3  and  C_19 
REMARK    4  A    between atoms: C_3  and  N_15 
REMARK    5  A    between atoms: C_4  and  C_16 
REMARK    6  A    between atoms: C_4  and  C_5 
REMARK    7  A    between atoms: C_4  and  N_9 
REMARK    8  A    between atoms: C_5  and  C_6 
REMARK       I    between atoms: N_15  and  C_16 
ROOT
HETATM    1  O           1     -21.547  -3.240  -7.252  0.00  0.00    -0.271 OA
HETATM    2  N           1     -22.254  -4.810  -8.674  0.00  0.00    -0.344 N 
HETATM    3  C           1     -21.660  -4.416  -7.505  0.00  0.00     0.249 C 
HETATM    4  H           1     -22.350  -5.796  -8.885  0.00  0.00     0.163 HD
ENDROOT
BRANCH   3   5
HETATM    5  C           1     -21.147  -5.449  -6.533  0.00  0.00     0.284 C 
BRANCH   5   6
HETATM    6  C           1     -22.306  -5.992  -5.708  0.00  0.00     0.155 C 
BRANCH   6   7
HETATM    7  C           1     -21.784  -6.527  -4.398  0.00  0.00     0.175 C 
HETATM    8  O           1     -21.008  -7.506  -4.389  0.00  0.00    -0.648 OA
HETATM    9  O           1     -22.128  -5.992  -3.321  0.00  0.00    -0.648 OA
ENDBRANCH   6   7
ENDBRANCH   5   6
BRANCH   5  10
HETATM   10  N           1     -20.136  -4.818  -5.621  0.00  0.00    -0.066 N 
HETATM   11  H           1     -19.176  -5.117  -5.906  0.00  0.00     0.275 HD
HETATM   12  H           1     -20.210  -3.778  -5.687  0.00  0.00     0.275 HD
HETATM   13  H           1     -20.320  -5.118  -4.637  0.00  0.00     0.275 HD
ENDBRANCH   5  10
ENDBRANCH   3   5
BRANCH   2  14
HETATM   14  C           1     -22.747  -3.816  -9.608  0.00  0.00     0.194 C 
BRANCH  14  15
HETATM   15  C           1     -22.205  -4.117 -11.000  0.00  0.00     0.106 C 
BRANCH  15  16
HETATM   16  S           1     -20.405  -3.888 -11.011  0.00  0.00    -0.180 SA
HETATM   17  H           1     -20.403  -2.828 -11.841  0.00  0.00     0.101 HD
ENDBRANCH  15  16
ENDBRANCH  14  15
BRANCH  14  18
HETATM   18  C           1     -24.255  -3.856  -9.635  0.00  0.00     0.197 C 
HETATM   19  O           1     -24.911  -2.807  -9.457  0.00  0.00    -0.646 OA
HETATM   20  O           1     -24.847  -4.938  -9.835  0.00  0.00    -0.646 OA
ENDBRANCH  14  18
ENDBRANCH   2  14
TORSDOF 8
ENDMDL
MODEL 8
REMARK VINA RESULT:      -5.0     11.758     12.663
REMARK  8 active torsions:
REMARK  status: ('A' for Active; 'I' for Inactive)
REMARK    1  A    between atoms: C_2  and  S_12 
REMARK    2  A    between atoms: C_2  and  C_3 
REMARK    3  A    between atoms: C_3  and  C_19 
REMARK    4  A    between atoms: C_3  and  N_15 
REMARK    5  A    between atoms: C_4  and  C_16 
REMARK    6  A    between atoms: C_4  and  C_5 
REMARK    7  A    between atoms: C_4  and  N_9 
REMARK    8  A    between atoms: C_5  and  C_6 
REMARK       I    between atoms: N_15  and  C_16 
ROOT
HETATM    1  O           1     -34.650   1.042 -12.997  0.00  0.00    -0.271 OA
HETATM    2  N           1     -35.369  -1.072 -12.929  0.00  0.00    -0.344 N 
HETATM    3  C           1     -35.047   0.075 -13.604  0.00  0.00     0.249 C 
HETATM    4  H           1     -35.702  -1.881 -13.438  0.00  0.00     0.163 HD
ENDROOT
BRANCH   3   5
HETATM    5  C           1     -35.188   0.133 -15.105  0.00  0.00     0.284 C 
BRANCH   5   6
HETATM    6  C           1     -36.527   0.761 -15.467  0.00  0.00     0.155 C 
BRANCH   6   7
HETATM    7  C           1     -37.574  -0.318 -15.586  0.00  0.00     0.175 C 
HETATM    8  O           1     -38.072  -0.820 -14.556  0.00  0.00    -0.648 OA
HETATM    9  O           1     -37.943  -0.711 -16.714  0.00  0.00    -0.648 OA
ENDBRANCH   6   7
ENDBRANCH   5   6
BRANCH   5  10
HETATM   10  N           1     -35.120  -1.257 -15.666  0.00  0.00    -0.066 N 
HETATM   11  H           1     -34.420  -1.816 -15.127  0.00  0.00     0.275 HD
HETATM   12  H           1     -36.058  -1.709 -15.590  0.00  0.00     0.275 HD
HETATM   13  H           1     -34.834  -1.213 -16.670  0.00  0.00     0.275 HD
ENDBRANCH   5  10
ENDBRANCH   3   5
BRANCH   2  14
HETATM   14  C           1     -35.234  -1.126 -11.486  0.00  0.00     0.194 C 
BRANCH  14  15
HETATM   15  C           1     -36.562  -1.544 -10.869  0.00  0.00     0.106 C 
BRANCH  15  16
HETATM   16  S           1     -37.702  -0.132 -10.872  0.00  0.00    -0.180 SA
HETATM   17  H           1     -38.698  -0.756 -11.528  0.00  0.00     0.101 HD
ENDBRANCH  15  16
ENDBRANCH  14  15
BRANCH  14  18
HETATM   18  C           1     -34.169  -2.130 -11.119  0.00  0.00     0.197 C 
HETATM   19  O           1     -34.301  -3.329 -11.449  0.00  0.00    -0.646 OA
HETATM   20  O           1     -33.156  -1.763 -10.487  0.00  0.00    -0.646 OA
ENDBRANCH  14  18
ENDBRANCH   2  14
TORSDOF 8
ENDMDL
MODEL 9
REMARK VINA RESULT:      -5.0     10.741     12.184
REMARK  8 active torsions:
REMARK  status: ('A' for Active; 'I' for Inactive)
REMARK    1  A    between atoms: C_2  and  S_12 
REMARK    2  A    between atoms: C_2  and  C_3 
REMARK    3  A    between atoms: C_3  and  C_19 
REMARK    4  A    between atoms: C_3  and  N_15 
REMARK    5  A    between atoms: C_4  and  C_16 
REMARK    6  A    between atoms: C_4  and  C_5 
REMARK    7  A    between atoms: C_4  and  N_9 
REMARK    8  A    between atoms: C_5  and  C_6 
REMARK       I    between atoms: N_15  and  C_16 
ROOT
HETATM    1  O           1     -33.784  -1.855 -10.965  0.00  0.00    -0.271 OA
HETATM    2  N           1     -35.181  -1.537 -12.678  0.00  0.00    -0.344 N 
HETATM    3  C           1     -34.407  -2.337 -11.881  0.00  0.00     0.249 C 
HETATM    4  H           1     -35.704  -1.942 -13.445  0.00  0.00     0.163 HD
ENDROOT
BRANCH   3   5
HETATM    5  C           1     -34.333  -3.821 -12.145  0.00  0.00     0.284 C 
BRANCH   5   6
HETATM    6  C           1     -33.915  -4.545 -10.871  0.00  0.00     0.155 C 
BRANCH   6   7
HETATM    7  C           1     -34.472  -5.947 -10.883  0.00  0.00     0.175 C 
HETATM    8  O           1     -34.466  -6.629  -9.837  0.00  0.00    -0.648 OA
HETATM    9  O           1     -34.939  -6.425 -11.939  0.00  0.00    -0.648 OA
ENDBRANCH   6   7
ENDBRANCH   5   6
BRANCH   5  10
HETATM   10  N           1     -33.325  -4.086 -13.224  0.00  0.00    -0.066 N 
HETATM   11  H           1     -32.567  -4.699 -12.849  0.00  0.00     0.275 HD
HETATM   12  H           1     -33.793  -4.564 -14.027  0.00  0.00     0.275 HD
HETATM   13  H           1     -32.917  -3.181 -13.548  0.00  0.00     0.275 HD
ENDBRANCH   5  10
ENDBRANCH   3   5
BRANCH   2  14
HETATM   14  C           1     -35.252  -0.112 -12.424  0.00  0.00     0.194 C 
BRANCH  14  15
HETATM   15  C           1     -35.298   0.637 -13.749  0.00  0.00     0.106 C 
BRANCH  15  16
HETATM   16  S           1     -35.605  -0.538 -15.098  0.00  0.00    -0.180 SA
HETATM   17  H           1     -35.220   0.284 -16.092  0.00  0.00     0.101 HD
ENDBRANCH  15  16
ENDBRANCH  14  15
BRANCH  14  18
HETATM   18  C           1     -36.497   0.196 -11.628  0.00  0.00     0.197 C 
HETATM   19  O           1     -36.400   0.619 -10.456  0.00  0.00    -0.646 OA
HETATM   20  O           1     -37.623   0.026 -12.142  0.00  0.00    -0.646 OA
ENDBRANCH  14  18
ENDBRANCH   2  14
TORSDOF 8
ENDMDL
