MODEL 1
REMARK VINA RESULT:      -7.3      0.000      0.000
REMARK  8 active torsions:
REMARK  status: ('A' for Active; 'I' for Inactive)
REMARK    1  A    between atoms: C_2  and  C_10 
REMARK    2  A    between atoms: N_8  and  C_10 
REMARK       I    between atoms: N_8  and  C_14 
REMARK    3  A    between atoms: C_10  and  C_13 
REMARK    4  A    between atoms: C_11  and  C_13 
REMARK    5  A    between atoms: C_14  and  C_15 
REMARK    6  A    between atoms: C_15  and  C_23 
REMARK    7  A    between atoms: C_15  and  N_27 
REMARK    8  A    between atoms: C_23  and  O_24 
ROOT
HETATM    1  C           1     -21.901  -6.667  -5.635  0.00  0.00     0.190 C 
ENDROOT
BRANCH   1   2
HETATM    2  C           1     -20.938  -7.828  -5.638  0.00  0.00     0.197 C 
HETATM    3  O           1     -19.707  -7.619  -5.595  0.00  0.00    -0.646 OA
HETATM    4  O           1     -21.372  -9.000  -5.685  0.00  0.00    -0.646 OA
ENDBRANCH   1   2
BRANCH   1   5
HETATM    5  N           1     -22.365  -6.428  -4.283  0.00  0.00    -0.344 N 
HETATM    6  H           1     -23.324  -6.151  -4.118  0.00  0.00     0.163 HD
HETATM    7  C           1     -21.504  -6.575  -3.228  0.00  0.00     0.251 C 
HETATM    8  O           1     -20.850  -5.634  -2.847  0.00  0.00    -0.271 OA
BRANCH   7   9
HETATM    9  C           1     -21.374  -7.912  -2.541  0.00  0.00     0.297 C 
BRANCH   9  10
HETATM   10  C           1     -21.964  -7.823  -1.140  0.00  0.00     0.206 C 
BRANCH  10  11
HETATM   11  O           1     -22.705  -6.640  -1.019  0.00  0.00    -0.398 OA
HETATM   12  H           1     -23.411  -6.693  -1.640  0.00  0.00     0.209 HD
ENDBRANCH  10  11
ENDBRANCH   9  10
BRANCH   9  13
HETATM   13  N           1     -19.924  -8.287  -2.449  0.00  0.00    -0.064 N 
HETATM   14  H           1     -19.788  -9.249  -2.833  0.00  0.00     0.275 HD
HETATM   15  H           1     -19.353  -7.607  -3.000  0.00  0.00     0.275 HD
HETATM   16  H           1     -19.621  -8.265  -1.448  0.00  0.00     0.275 HD
ENDBRANCH   9  13
ENDBRANCH   7   9
ENDBRANCH   1   5
BRANCH   1  17
HETATM   17  C           1     -21.196  -5.421  -6.157  0.00  0.00     0.077 C 
BRANCH  17  18
HETATM   18  C           1     -22.007  -4.813  -7.259  0.00  0.00    -0.028 A 
HETATM   19  C           1     -23.325  -4.423  -7.177  0.00  0.00     0.096 A 
HETATM   20  N           1     -23.688  -3.918  -8.398  0.00  0.00    -0.365 N 
HETATM   21  H           1     -24.640  -3.544  -8.634  0.00  0.00     0.165 HD
HETATM   22  C           1     -22.626  -3.973  -9.272  0.00  0.00     0.042 A 
HETATM   23  C           1     -22.533  -3.574 -10.610  0.00  0.00     0.030 A 
HETATM   24  C           1     -21.553  -4.534  -8.577  0.00  0.00    -0.002 A 
HETATM   25  C           1     -21.305  -3.754 -11.255  0.00  0.00     0.002 A 
HETATM   26  C           1     -20.217  -4.311 -10.587  0.00  0.00     0.001 A 
HETATM   27  C           1     -20.326  -4.704  -9.249  0.00  0.00     0.014 A 
ENDBRANCH  17  18
ENDBRANCH   1  17
TORSDOF 8
ENDMDL
MODEL 2
REMARK VINA RESULT:      -6.9      2.200      3.010
REMARK  8 active torsions:
REMARK  status: ('A' for Active; 'I' for Inactive)
REMARK    1  A    between atoms: C_2  and  C_10 
REMARK    2  A    between atoms: N_8  and  C_10 
REMARK       I    between atoms: N_8  and  C_14 
REMARK    3  A    between atoms: C_10  and  C_13 
REMARK    4  A    between atoms: C_11  and  C_13 
REMARK    5  A    between atoms: C_14  and  C_15 
REMARK    6  A    between atoms: C_15  and  C_23 
REMARK    7  A    between atoms: C_15  and  N_27 
REMARK    8  A    between atoms: C_23  and  O_24 
ROOT
HETATM    1  C           1     -21.323  -8.917  -3.911  0.00  0.00     0.190 C 
ENDROOT
BRANCH   1   2
HETATM    2  C           1     -21.182 -10.085  -4.857  0.00  0.00     0.197 C 
HETATM    3  O           1     -20.379 -10.022  -5.811  0.00  0.00    -0.646 OA
HETATM    4  O           1     -21.871 -11.114  -4.685  0.00  0.00    -0.646 OA
ENDBRANCH   1   2
BRANCH   1   5
HETATM    5  N           1     -20.938  -9.328  -2.576  0.00  0.00    -0.344 N 
HETATM    6  H           1     -20.059  -9.804  -2.426  0.00  0.00     0.163 HD
HETATM    7  C           1     -21.767  -9.072  -1.516  0.00  0.00     0.251 C 
HETATM    8  O           1     -22.605  -9.880  -1.196  0.00  0.00    -0.271 OA
BRANCH   7   9
HETATM    9  C           1     -21.631  -7.781  -0.747  0.00  0.00     0.297 C 
BRANCH   9  10
HETATM   10  C           1     -22.130  -7.983   0.678  0.00  0.00     0.206 C 
BRANCH  10  11
HETATM   11  O           1     -23.532  -7.957   0.691  0.00  0.00    -0.398 OA
HETATM   12  H           1     -23.812  -8.596   1.325  0.00  0.00     0.209 HD
ENDBRANCH  10  11
ENDBRANCH   9  10
BRANCH   9  13
HETATM   13  N           1     -22.449  -6.715  -1.415  0.00  0.00    -0.064 N 
HETATM   14  H           1     -22.003  -6.452  -2.323  0.00  0.00     0.275 HD
HETATM   15  H           1     -23.414  -7.074  -1.591  0.00  0.00     0.275 HD
HETATM   16  H           1     -22.497  -5.873  -0.796  0.00  0.00     0.275 HD
ENDBRANCH   9  13
ENDBRANCH   7   9
ENDBRANCH   1   5
BRANCH   1  17
HETATM   17  C           1     -20.419  -7.779  -4.371  0.00  0.00     0.077 C 
BRANCH  17  18
HETATM   18  C           1     -21.233  -6.762  -5.110  0.00  0.00    -0.028 A 
HETATM   19  C           1     -22.583  -6.540  -4.961  0.00  0.00     0.096 A 
HETATM   20  N           1     -22.937  -5.530  -5.815  0.00  0.00    -0.365 N 
HETATM   21  H           1     -23.909  -5.145  -5.920  0.00  0.00     0.165 HD
HETATM   22  C           1     -21.837  -5.091  -6.517  0.00  0.00     0.042 A 
HETATM   23  C           1     -21.723  -4.088  -7.487  0.00  0.00     0.030 A 
HETATM   24  C           1     -20.749  -5.853  -6.090  0.00  0.00    -0.002 A 
HETATM   25  C           1     -20.457  -3.860  -8.035  0.00  0.00     0.002 A 
HETATM   26  C           1     -19.352  -4.605  -7.628  0.00  0.00     0.001 A 
HETATM   27  C           1     -19.484  -5.604  -6.657  0.00  0.00     0.014 A 
ENDBRANCH  17  18
ENDBRANCH   1  17
TORSDOF 8
ENDMDL
MODEL 3
REMARK VINA RESULT:      -6.8      2.965      6.861
REMARK  8 active torsions:
REMARK  status: ('A' for Active; 'I' for Inactive)
REMARK    1  A    between atoms: C_2  and  C_10 
REMARK    2  A    between atoms: N_8  and  C_10 
REMARK       I    between atoms: N_8  and  C_14 
REMARK    3  A    between atoms: C_10  and  C_13 
REMARK    4  A    between atoms: C_11  and  C_13 
REMARK    5  A    between atoms: C_14  and  C_15 
REMARK    6  A    between atoms: C_15  and  C_23 
REMARK    7  A    between atoms: C_15  and  N_27 
REMARK    8  A    between atoms: C_23  and  O_24 
ROOT
HETATM    1  C           1     -20.097  -7.603  -5.079  0.00  0.00     0.190 C 
ENDROOT
BRANCH   1   2
HETATM    2  C           1     -18.978  -8.602  -5.243  0.00  0.00     0.197 C 
HETATM    3  O           1     -18.538  -9.216  -4.247  0.00  0.00    -0.646 OA
HETATM    4  O           1     -18.490  -8.815  -6.374  0.00  0.00    -0.646 OA
ENDBRANCH   1   2
BRANCH   1   5
HETATM    5  N           1     -20.477  -7.087  -6.379  0.00  0.00    -0.344 N 
HETATM    6  H           1     -20.888  -7.703  -7.068  0.00  0.00     0.163 HD
HETATM    7  C           1     -20.279  -5.765  -6.675  0.00  0.00     0.251 C 
HETATM    8  O           1     -19.239  -5.408  -7.174  0.00  0.00    -0.271 OA
BRANCH   7   9
HETATM    9  C           1     -21.361  -4.755  -6.380  0.00  0.00     0.297 C 
BRANCH   9  10
HETATM   10  C           1     -22.724  -5.380  -6.645  0.00  0.00     0.206 C 
BRANCH  10  11
HETATM   11  O           1     -23.687  -4.368  -6.763  0.00  0.00    -0.398 OA
HETATM   12  H           1     -24.194  -4.378  -5.968  0.00  0.00     0.209 HD
ENDBRANCH  10  11
ENDBRANCH   9  10
BRANCH   9  13
HETATM   13  N           1     -21.180  -3.558  -7.266  0.00  0.00    -0.064 N 
HETATM   14  H           1     -20.548  -2.870  -6.797  0.00  0.00     0.275 HD
HETATM   15  H           1     -20.758  -3.856  -8.174  0.00  0.00     0.275 HD
HETATM   16  H           1     -22.109  -3.112  -7.443  0.00  0.00     0.275 HD
ENDBRANCH   9  13
ENDBRANCH   7   9
ENDBRANCH   1   5
BRANCH   1  17
HETATM   17  C           1     -21.297  -8.285  -4.433  0.00  0.00     0.077 C 
BRANCH  17  18
HETATM   18  C           1     -21.687  -7.540  -3.194  0.00  0.00    -0.028 A 
HETATM   19  C           1     -21.890  -6.182  -3.094  0.00  0.00     0.096 A 
HETATM   20  N           1     -22.233  -5.906  -1.797  0.00  0.00    -0.365 N 
HETATM   21  H           1     -22.447  -4.948  -1.423  0.00  0.00     0.165 HD
HETATM   22  C           1     -22.256  -7.063  -1.052  0.00  0.00     0.042 A 
HETATM   23  C           1     -22.550  -7.263   0.302  0.00  0.00     0.030 A 
HETATM   24  C           1     -21.915  -8.109  -1.911  0.00  0.00    -0.002 A 
HETATM   25  C           1     -22.492  -8.573   0.789  0.00  0.00     0.002 A 
HETATM   26  C           1     -22.155  -9.636  -0.045  0.00  0.00     0.001 A 
HETATM   27  C           1     -21.865  -9.419  -1.396  0.00  0.00     0.014 A 
ENDBRANCH  17  18
ENDBRANCH   1  17
TORSDOF 8
ENDMDL
MODEL 4
REMARK VINA RESULT:      -6.7      2.602      6.765
REMARK  8 active torsions:
REMARK  status: ('A' for Active; 'I' for Inactive)
REMARK    1  A    between atoms: C_2  and  C_10 
REMARK    2  A    between atoms: N_8  and  C_10 
REMARK       I    between atoms: N_8  and  C_14 
REMARK    3  A    between atoms: C_10  and  C_13 
REMARK    4  A    between atoms: C_11  and  C_13 
REMARK    5  A    between atoms: C_14  and  C_15 
REMARK    6  A    between atoms: C_15  and  C_23 
REMARK    7  A    between atoms: C_15  and  N_27 
REMARK    8  A    between atoms: C_23  and  O_24 
ROOT
HETATM    1  C           1     -20.616  -5.096  -6.306  0.00  0.00     0.190 C 
ENDROOT
BRANCH   1   2
HETATM    2  C           1     -19.649  -5.103  -7.465  0.00  0.00     0.197 C 
HETATM    3  O           1     -19.763  -5.959  -8.368  0.00  0.00    -0.646 OA
HETATM    4  O           1     -18.734  -4.252  -7.521  0.00  0.00    -0.646 OA
ENDBRANCH   1   2
BRANCH   1   5
HETATM    5  N           1     -21.581  -4.030  -6.489  0.00  0.00    -0.344 N 
HETATM    6  H           1     -21.432  -3.131  -6.050  0.00  0.00     0.163 HD
HETATM    7  C           1     -22.696  -4.241  -7.255  0.00  0.00     0.251 C 
HETATM    8  O           1     -23.708  -4.660  -6.747  0.00  0.00    -0.271 OA
BRANCH   7   9
HETATM    9  C           1     -22.661  -3.948  -8.735  0.00  0.00     0.297 C 
BRANCH   9  10
HETATM   10  C           1     -24.022  -3.433  -9.184  0.00  0.00     0.206 C 
BRANCH  10  11
HETATM   11  O           1     -24.857  -4.518  -9.485  0.00  0.00    -0.398 OA
HETATM   12  H           1     -24.456  -4.981 -10.202  0.00  0.00     0.209 HD
ENDBRANCH  10  11
ENDBRANCH   9  10
BRANCH   9  13
HETATM   13  N           1     -22.331  -5.205  -9.485  0.00  0.00    -0.064 N 
HETATM   14  H           1     -21.435  -5.602  -9.121  0.00  0.00     0.275 HD
HETATM   15  H           1     -23.100  -5.901  -9.354  0.00  0.00     0.275 HD
HETATM   16  H           1     -22.228  -4.988 -10.502  0.00  0.00     0.275 HD
ENDBRANCH   9  13
ENDBRANCH   7   9
ENDBRANCH   1   5
BRANCH   1  17
HETATM   17  C           1     -21.343  -6.433  -6.243  0.00  0.00     0.077 C 
BRANCH  17  18
HETATM   18  C           1     -20.798  -7.246  -5.110  0.00  0.00    -0.028 A 
HETATM   19  C           1     -19.830  -8.219  -5.202  0.00  0.00     0.096 A 
HETATM   20  N           1     -19.617  -8.718  -3.944  0.00  0.00    -0.365 N 
HETATM   21  H           1     -18.931  -9.476  -3.706  0.00  0.00     0.165 HD
HETATM   22  C           1     -20.433  -8.082  -3.035  0.00  0.00     0.042 A 
HETATM   23  C           1     -20.559  -8.261  -1.652  0.00  0.00     0.030 A 
HETATM   24  C           1     -21.188  -7.149  -3.746  0.00  0.00    -0.002 A 
HETATM   25  C           1     -21.487  -7.458  -0.979  0.00  0.00     0.002 A 
HETATM   26  C           1     -22.254  -6.518  -1.663  0.00  0.00     0.001 A 
HETATM   27  C           1     -22.115  -6.352  -3.045  0.00  0.00     0.014 A 
ENDBRANCH  17  18
ENDBRANCH   1  17
TORSDOF 8
ENDMDL
MODEL 5
REMARK VINA RESULT:      -6.6      4.417      8.178
REMARK  8 active torsions:
REMARK  status: ('A' for Active; 'I' for Inactive)
REMARK    1  A    between atoms: C_2  and  C_10 
REMARK    2  A    between atoms: N_8  and  C_10 
REMARK       I    between atoms: N_8  and  C_14 
REMARK    3  A    between atoms: C_10  and  C_13 
REMARK    4  A    between atoms: C_11  and  C_13 
REMARK    5  A    between atoms: C_14  and  C_15 
REMARK    6  A    between atoms: C_15  and  C_23 
REMARK    7  A    between atoms: C_15  and  N_27 
REMARK    8  A    between atoms: C_23  and  O_24 
ROOT
HETATM    1  C           1     -21.215  -7.846  -3.014  0.00  0.00     0.190 C 
ENDROOT
BRANCH   1   2
HETATM    2  C           1     -21.709  -6.420  -3.020  0.00  0.00     0.197 C 
HETATM    3  O           1     -21.371  -5.646  -3.940  0.00  0.00    -0.646 OA
HETATM    4  O           1     -22.456  -6.013  -2.103  0.00  0.00    -0.646 OA
ENDBRANCH   1   2
BRANCH   1   5
HETATM    5  N           1     -20.298  -8.044  -4.119  0.00  0.00    -0.344 N 
HETATM    6  H           1     -19.381  -7.618  -4.098  0.00  0.00     0.163 HD
HETATM    7  C           1     -20.674  -8.806  -5.193  0.00  0.00     0.251 C 
HETATM    8  O           1     -21.223  -8.291  -6.136  0.00  0.00    -0.271 OA
BRANCH   7   9
HETATM    9  C           1     -20.400 -10.290  -5.196  0.00  0.00     0.297 C 
BRANCH   9  10
HETATM   10  C           1     -18.905 -10.531  -5.357  0.00  0.00     0.206 C 
BRANCH  10  11
HETATM   11  O           1     -18.349  -9.511  -6.143  0.00  0.00    -0.398 OA
HETATM   12  H           1     -17.551  -9.852  -6.509  0.00  0.00     0.209 HD
ENDBRANCH  10  11
ENDBRANCH   9  10
BRANCH   9  13
HETATM   13  N           1     -21.134 -10.929  -6.339  0.00  0.00    -0.064 N 
HETATM   14  H           1     -20.518 -11.641  -6.793  0.00  0.00     0.275 HD
HETATM   15  H           1     -21.999 -11.393  -5.981  0.00  0.00     0.275 HD
HETATM   16  H           1     -21.395 -10.198  -7.039  0.00  0.00     0.275 HD
ENDBRANCH   9  13
ENDBRANCH   7   9
ENDBRANCH   1   5
BRANCH   1  17
HETATM   17  C           1     -20.496  -8.130  -1.701  0.00  0.00     0.077 C 
BRANCH  17  18
HETATM   18  C           1     -20.622  -9.584  -1.366  0.00  0.00    -0.028 A 
HETATM   19  C           1     -19.642 -10.539  -1.516  0.00  0.00     0.096 A 
HETATM   20  N           1     -20.158 -11.736  -1.097  0.00  0.00    -0.365 N 
HETATM   21  H           1     -19.636 -12.648  -1.097  0.00  0.00     0.165 HD
HETATM   22  C           1     -21.459 -11.575  -0.677  0.00  0.00     0.042 A 
HETATM   23  C           1     -22.370 -12.510  -0.172  0.00  0.00     0.030 A 
HETATM   24  C           1     -21.775 -10.225  -0.836  0.00  0.00    -0.002 A 
HETATM   25  C           1     -23.643 -12.048   0.179  0.00  0.00     0.002 A 
HETATM   26  C           1     -23.987 -10.706   0.030  0.00  0.00     0.001 A 
HETATM   27  C           1     -23.064  -9.784  -0.476  0.00  0.00     0.014 A 
ENDBRANCH  17  18
ENDBRANCH   1  17
TORSDOF 8
ENDMDL
MODEL 6
REMARK VINA RESULT:      -6.6      2.166      3.760
REMARK  8 active torsions:
REMARK  status: ('A' for Active; 'I' for Inactive)
REMARK    1  A    between atoms: C_2  and  C_10 
REMARK    2  A    between atoms: N_8  and  C_10 
REMARK       I    between atoms: N_8  and  C_14 
REMARK    3  A    between atoms: C_10  and  C_13 
REMARK    4  A    between atoms: C_11  and  C_13 
REMARK    5  A    between atoms: C_14  and  C_15 
REMARK    6  A    between atoms: C_15  and  C_23 
REMARK    7  A    between atoms: C_15  and  N_27 
REMARK    8  A    between atoms: C_23  and  O_24 
ROOT
HETATM    1  C           1     -21.458  -7.396  -3.791  0.00  0.00     0.190 C 
ENDROOT
BRANCH   1   2
HETATM    2  C           1     -21.657  -6.868  -2.391  0.00  0.00     0.197 C 
HETATM    3  O           1     -22.436  -5.913  -2.188  0.00  0.00    -0.646 OA
HETATM    4  O           1     -21.040  -7.386  -1.434  0.00  0.00    -0.646 OA
ENDBRANCH   1   2
BRANCH   1   5
HETATM    5  N           1     -21.958  -8.754  -3.870  0.00  0.00    -0.344 N 
HETATM    6  H           1     -22.942  -8.941  -3.735  0.00  0.00     0.163 HD
HETATM    7  C           1     -21.095  -9.787  -4.126  0.00  0.00     0.251 C 
HETATM    8  O           1     -20.552 -10.361  -3.213  0.00  0.00    -0.271 OA
BRANCH   7   9
HETATM    9  C           1     -20.824 -10.207  -5.550  0.00  0.00     0.297 C 
BRANCH   9  10
HETATM   10  C           1     -21.393 -11.601  -5.785  0.00  0.00     0.206 C 
BRANCH  10  11
HETATM   11  O           1     -22.385 -11.868  -4.832  0.00  0.00    -0.398 OA
HETATM   12  H           1     -22.980 -12.486  -5.222  0.00  0.00     0.209 HD
ENDBRANCH  10  11
ENDBRANCH   9  10
BRANCH   9  13
HETATM   13  N           1     -19.343 -10.225  -5.791  0.00  0.00    -0.064 N 
HETATM   14  H           1     -18.844  -9.970  -4.909  0.00  0.00     0.275 HD
HETATM   15  H           1     -19.051 -11.182  -6.094  0.00  0.00     0.275 HD
HETATM   16  H           1     -19.103  -9.534  -6.539  0.00  0.00     0.275 HD
ENDBRANCH   9  13
ENDBRANCH   7   9
ENDBRANCH   1   5
BRANCH   1  17
HETATM   17  C           1     -22.218  -6.518  -4.777  0.00  0.00     0.077 C 
BRANCH  17  18
HETATM   18  C           1     -21.330  -6.183  -5.935  0.00  0.00    -0.028 A 
HETATM   19  C           1     -20.042  -6.631  -6.126  0.00  0.00     0.096 A 
HETATM   20  N           1     -19.584  -6.097  -7.301  0.00  0.00    -0.365 N 
HETATM   21  H           1     -18.629  -6.263  -7.704  0.00  0.00     0.165 HD
HETATM   22  C           1     -20.554  -5.308  -7.877  0.00  0.00     0.042 A 
HETATM   23  C           1     -20.533  -4.571  -9.067  0.00  0.00     0.030 A 
HETATM   24  C           1     -21.666  -5.346  -7.034  0.00  0.00    -0.002 A 
HETATM   25  C           1     -21.685  -3.853  -9.403  0.00  0.00     0.002 A 
HETATM   26  C           1     -22.810  -3.873  -8.581  0.00  0.00     0.001 A 
HETATM   27  C           1     -22.815  -4.615  -7.395  0.00  0.00     0.014 A 
ENDBRANCH  17  18
ENDBRANCH   1  17
TORSDOF 8
ENDMDL
MODEL 7
REMARK VINA RESULT:      -6.6      1.828      3.252
REMARK  8 active torsions:
REMARK  status: ('A' for Active; 'I' for Inactive)
REMARK    1  A    between atoms: C_2  and  C_10 
REMARK    2  A    between atoms: N_8  and  C_10 
REMARK       I    between atoms: N_8  and  C_14 
REMARK    3  A    between atoms: C_10  and  C_13 
REMARK    4  A    between atoms: C_11  and  C_13 
REMARK    5  A    between atoms: C_14  and  C_15 
REMARK    6  A    between atoms: C_15  and  C_23 
REMARK    7  A    between atoms: C_15  and  N_27 
REMARK    8  A    between atoms: C_23  and  O_24 
ROOT
HETATM    1  C           1     -21.064  -6.281  -5.388  0.00  0.00     0.190 C 
ENDROOT
BRANCH   1   2
HETATM    2  C           1     -21.654  -6.294  -3.999  0.00  0.00     0.197 C 
HETATM    3  O           1     -22.891  -6.210  -3.845  0.00  0.00    -0.646 OA
HETATM    4  O           1     -20.905  -6.386  -3.002  0.00  0.00    -0.646 OA
ENDBRANCH   1   2
BRANCH   1   5
HETATM    5  N           1     -21.043  -7.631  -5.915  0.00  0.00    -0.344 N 
HETATM    6  H           1     -21.236  -7.796  -6.894  0.00  0.00     0.163 HD
HETATM    7  C           1     -20.763  -8.685  -5.086  0.00  0.00     0.251 C 
HETATM    8  O           1     -21.657  -9.250  -4.505  0.00  0.00    -0.271 OA
BRANCH   7   9
HETATM    9  C           1     -19.336  -9.141  -4.903  0.00  0.00     0.297 C 
BRANCH   9  10
HETATM   10  C           1     -19.188 -10.567  -5.416  0.00  0.00     0.206 C 
BRANCH  10  11
HETATM   11  O           1     -20.178 -10.825  -6.374  0.00  0.00    -0.398 OA
HETATM   12  H           1     -19.752 -11.243  -7.103  0.00  0.00     0.209 HD
ENDBRANCH  10  11
ENDBRANCH   9  10
BRANCH   9  13
HETATM   13  N           1     -18.982  -9.096  -3.445  0.00  0.00    -0.064 N 
HETATM   14  H           1     -19.269  -9.993  -2.990  0.00  0.00     0.275 HD
HETATM   15  H           1     -17.951  -8.966  -3.340  0.00  0.00     0.275 HD
HETATM   16  H           1     -19.483  -8.299  -2.989  0.00  0.00     0.275 HD
ENDBRANCH   9  13
ENDBRANCH   7   9
ENDBRANCH   1   5
BRANCH   1  17
HETATM   17  C           1     -21.913  -5.397  -6.292  0.00  0.00     0.077 C 
BRANCH  17  18
HETATM   18  C           1     -21.070  -4.874  -7.414  0.00  0.00    -0.028 A 
HETATM   19  C           1     -19.739  -4.534  -7.337  0.00  0.00     0.096 A 
HETATM   20  N           1     -19.345  -4.103  -8.576  0.00  0.00    -0.365 N 
HETATM   21  H           1     -18.377  -3.776  -8.820  0.00  0.00     0.165 HD
HETATM   22  C           1     -20.401  -4.158  -9.458  0.00  0.00     0.042 A 
HETATM   23  C           1     -20.466  -3.821 -10.815  0.00  0.00     0.030 A 
HETATM   24  C           1     -21.501  -4.642  -8.749  0.00  0.00    -0.002 A 
HETATM   25  C           1     -21.695  -3.984 -11.464  0.00  0.00     0.002 A 
HETATM   26  C           1     -22.810  -4.466 -10.781  0.00  0.00     0.001 A 
HETATM   27  C           1     -22.727  -4.798  -9.425  0.00  0.00     0.014 A 
ENDBRANCH  17  18
ENDBRANCH   1  17
TORSDOF 8
ENDMDL
MODEL 8
REMARK VINA RESULT:      -6.6      2.522      7.445
REMARK  8 active torsions:
REMARK  status: ('A' for Active; 'I' for Inactive)
REMARK    1  A    between atoms: C_2  and  C_10 
REMARK    2  A    between atoms: N_8  and  C_10 
REMARK       I    between atoms: N_8  and  C_14 
REMARK    3  A    between atoms: C_10  and  C_13 
REMARK    4  A    between atoms: C_11  and  C_13 
REMARK    5  A    between atoms: C_14  and  C_15 
REMARK    6  A    between atoms: C_15  and  C_23 
REMARK    7  A    between atoms: C_15  and  N_27 
REMARK    8  A    between atoms: C_23  and  O_24 
ROOT
HETATM    1  C           1     -21.143  -7.475  -4.920  0.00  0.00     0.190 C 
ENDROOT
BRANCH   1   2
HETATM    2  C           1     -22.141  -6.527  -4.301  0.00  0.00     0.197 C 
HETATM    3  O           1     -23.163  -6.193  -4.938  0.00  0.00    -0.646 OA
HETATM    4  O           1     -21.945  -6.075  -3.152  0.00  0.00    -0.646 OA
ENDBRANCH   1   2
BRANCH   1   5
HETATM    5  N           1     -20.113  -6.715  -5.600  0.00  0.00    -0.344 N 
HETATM    6  H           1     -19.192  -7.112  -5.730  0.00  0.00     0.163 HD
HETATM    7  C           1     -20.387  -5.456  -6.066  0.00  0.00     0.251 C 
HETATM    8  O           1     -20.202  -4.496  -5.357  0.00  0.00    -0.271 OA
BRANCH   7   9
HETATM    9  C           1     -20.917  -5.269  -7.467  0.00  0.00     0.297 C 
BRANCH   9  10
HETATM   10  C           1     -19.926  -4.447  -8.280  0.00  0.00     0.206 C 
BRANCH  10  11
HETATM   11  O           1     -18.691  -4.412  -7.616  0.00  0.00    -0.398 OA
HETATM   12  H           1     -18.034  -4.241  -8.269  0.00  0.00     0.209 HD
ENDBRANCH  10  11
ENDBRANCH   9  10
BRANCH   9  13
HETATM   13  N           1     -22.233  -4.551  -7.410  0.00  0.00    -0.064 N 
HETATM   14  H           1     -22.979  -5.215  -7.101  0.00  0.00     0.275 HD
HETATM   15  H           1     -22.168  -3.758  -6.732  0.00  0.00     0.275 HD
HETATM   16  H           1     -22.469  -4.179  -8.358  0.00  0.00     0.275 HD
ENDBRANCH   9  13
ENDBRANCH   7   9
ENDBRANCH   1   5
BRANCH   1  17
HETATM   17  C           1     -20.507  -8.326  -3.828  0.00  0.00     0.077 C 
BRANCH  17  18
HETATM   18  C           1     -21.398  -9.490  -3.519  0.00  0.00    -0.028 A 
HETATM   19  C           1     -21.682 -10.540  -4.362  0.00  0.00     0.096 A 
HETATM   20  N           1     -22.532 -11.387  -3.702  0.00  0.00    -0.365 N 
HETATM   21  H           1     -22.921 -12.278  -4.100  0.00  0.00     0.165 HD
HETATM   22  C           1     -22.805 -10.903  -2.442  0.00  0.00     0.042 A 
HETATM   23  C           1     -23.613 -11.427  -1.427  0.00  0.00     0.030 A 
HETATM   24  C           1     -22.101  -9.706  -2.303  0.00  0.00    -0.002 A 
HETATM   25  C           1     -23.701 -10.704  -0.233  0.00  0.00     0.002 A 
HETATM   26  C           1     -23.009  -9.506  -0.065  0.00  0.00     0.001 A 
HETATM   27  C           1     -22.206  -8.996  -1.091  0.00  0.00     0.014 A 
ENDBRANCH  17  18
ENDBRANCH   1  17
TORSDOF 8
ENDMDL
MODEL 9
REMARK VINA RESULT:      -6.4      4.345      7.658
REMARK  8 active torsions:
REMARK  status: ('A' for Active; 'I' for Inactive)
REMARK    1  A    between atoms: C_2  and  C_10 
REMARK    2  A    between atoms: N_8  and  C_10 
REMARK       I    between atoms: N_8  and  C_14 
REMARK    3  A    between atoms: C_10  and  C_13 
REMARK    4  A    between atoms: C_11  and  C_13 
REMARK    5  A    between atoms: C_14  and  C_15 
REMARK    6  A    between atoms: C_15  and  C_23 
REMARK    7  A    between atoms: C_15  and  N_27 
REMARK    8  A    between atoms: C_23  and  O_24 
ROOT
HETATM    1  C           1     -21.231  -7.794  -3.586  0.00  0.00     0.190 C 
ENDROOT
BRANCH   1   2
HETATM    2  C           1     -21.582  -6.328  -3.662  0.00  0.00     0.197 C 
HETATM    3  O           1     -20.979  -5.582  -4.462  0.00  0.00    -0.646 OA
HETATM    4  O           1     -22.476  -5.860  -2.923  0.00  0.00    -0.646 OA
ENDBRANCH   1   2
BRANCH   1   5
HETATM    5  N           1     -20.325  -8.130  -4.666  0.00  0.00    -0.344 N 
HETATM    6  H           1     -19.758  -7.410  -5.094  0.00  0.00     0.163 HD
HETATM    7  C           1     -20.237  -9.423  -5.109  0.00  0.00     0.251 C 
HETATM    8  O           1     -20.957  -9.807  -5.999  0.00  0.00    -0.271 OA
BRANCH   7   9
HETATM    9  C           1     -19.238 -10.367  -4.485  0.00  0.00     0.297 C 
BRANCH   9  10
HETATM   10  C           1     -17.887 -10.202  -5.169  0.00  0.00     0.206 C 
BRANCH  10  11
HETATM   11  O           1     -18.044  -9.444  -6.337  0.00  0.00    -0.398 OA
HETATM   12  H           1     -18.968  -9.289  -6.441  0.00  0.00     0.209 HD
ENDBRANCH  10  11
ENDBRANCH   9  10
BRANCH   9  13
HETATM   13  N           1     -19.715 -11.780  -4.656  0.00  0.00    -0.064 N 
HETATM   14  H           1     -20.743 -11.780  -4.843  0.00  0.00     0.275 HD
HETATM   15  H           1     -19.213 -12.222  -5.459  0.00  0.00     0.275 HD
HETATM   16  H           1     -19.520 -12.322  -3.783  0.00  0.00     0.275 HD
ENDBRANCH   9  13
ENDBRANCH   7   9
ENDBRANCH   1   5
BRANCH   1  17
HETATM   17  C           1     -20.559  -8.087  -2.250  0.00  0.00     0.077 C 
BRANCH  17  18
HETATM   18  C           1     -21.585  -8.563  -1.269  0.00  0.00    -0.028 A 
HETATM   19  C           1     -21.995  -7.895  -0.137  0.00  0.00     0.096 A 
HETATM   20  N           1     -22.943  -8.666   0.483  0.00  0.00    -0.365 N 
HETATM   21  H           1     -23.436  -8.411   1.374  0.00  0.00     0.165 HD
HETATM   22  C           1     -23.155  -9.826  -0.230  0.00  0.00     0.042 A 
HETATM   23  C           1     -24.021 -10.896   0.021  0.00  0.00     0.030 A 
HETATM   24  C           1     -22.310  -9.784  -1.340  0.00  0.00    -0.002 A 
HETATM   25  C           1     -24.021 -11.955  -0.893  0.00  0.00     0.002 A 
HETATM   26  C           1     -23.188 -11.940  -2.010  0.00  0.00     0.001 A 
HETATM   27  C           1     -22.329 -10.862  -2.246  0.00  0.00     0.014 A 
ENDBRANCH  17  18
ENDBRANCH   1  17
TORSDOF 8
ENDMDL
