MODEL 1
REMARK VINA RESULT:      -5.8      0.000      0.000
REMARK  10 active torsions:
REMARK  status: ('A' for Active; 'I' for Inactive)
REMARK    1  A    between atoms: N_1  and  C_7 
REMARK    2  A    between atoms: C_4  and  C_5 
REMARK    3  A    between atoms: C_4  and  C_14 
REMARK    4  A    between atoms: C_5  and  C_6 
REMARK    5  A    between atoms: C_6  and  N_20 
REMARK    6  A    between atoms: C_7  and  C_19 
REMARK    7  A    between atoms: C_7  and  C_8 
REMARK    8  A    between atoms: C_14  and  C_17 
REMARK    9  A    between atoms: C_16  and  C_17 
REMARK   10  A    between atoms: C_17  and  N_24 
REMARK       I    between atoms: C_19  and  N_24 
ROOT
HETATM    1  C           1     -21.233  -5.496  -6.413  0.00  0.00     0.185 C 
ENDROOT
BRANCH   1   2
HETATM    2  C           1     -21.786  -4.152  -6.867  0.00  0.00     0.036 C 
BRANCH   2   3
HETATM    3  C           1     -23.060  -4.370  -7.673  0.00  0.00     0.004 C 
BRANCH   3   4
HETATM    4  C           1     -22.850  -3.878  -9.099  0.00  0.00     0.027 C 
BRANCH   4   5
HETATM    5  C           1     -24.005  -4.348  -9.973  0.00  0.00     0.229 C 
BRANCH   5   6
HETATM    6  N           1     -25.249  -3.593  -9.609  0.00  0.00    -0.079 N 
HETATM    7  H           1     -25.216  -2.641 -10.036  0.00  0.00     0.274 HD
HETATM    8  H           1     -25.313  -3.509  -8.569  0.00  0.00     0.274 HD
HETATM    9  H           1     -26.086  -4.106  -9.968  0.00  0.00     0.274 HD
ENDBRANCH   5   6
ENDBRANCH   4   5
ENDBRANCH   3   4
ENDBRANCH   2   3
ENDBRANCH   1   2
BRANCH   1  10
HETATM   10  C           1     -19.891  -5.734  -7.059  0.00  0.00     0.196 C 
HETATM   11  O           1     -19.395  -6.882  -7.064  0.00  0.00    -0.646 OA
HETATM   12  O           1     -19.276  -4.784  -7.590  0.00  0.00    -0.646 OA
ENDBRANCH   1  10
BRANCH   1  13
HETATM   13  N           1     -21.081  -5.494  -4.971  0.00  0.00    -0.345 N 
HETATM   14  C           1     -21.482  -6.578  -4.238  0.00  0.00     0.249 C 
HETATM   15  O           1     -21.963  -7.538  -4.793  0.00  0.00    -0.271 OA
HETATM   16  H           1     -20.678  -4.690  -4.506  0.00  0.00     0.163 HD
BRANCH  14  17
HETATM   17  C           1     -21.323  -6.575  -2.737  0.00  0.00     0.278 C 
BRANCH  17  18
HETATM   18  N           1     -22.449  -5.800  -2.118  0.00  0.00    -0.066 N 
HETATM   19  H           1     -23.136  -6.464  -1.694  0.00  0.00     0.275 HD
HETATM   20  H           1     -22.069  -5.171  -1.376  0.00  0.00     0.275 HD
HETATM   21  H           1     -22.923  -5.229  -2.853  0.00  0.00     0.275 HD
ENDBRANCH  17  18
BRANCH  17  22
HETATM   22  C           1     -21.351  -8.008  -2.221  0.00  0.00     0.017 C 
HETATM   23  C           1     -22.032  -8.044  -0.859  0.00  0.00     0.012 C 
HETATM   24  C           1     -19.925  -8.528  -2.089  0.00  0.00     0.012 C 
ENDBRANCH  17  22
ENDBRANCH  14  17
ENDBRANCH   1  13
TORSDOF 10
ENDMDL
MODEL 2
REMARK VINA RESULT:      -5.6      1.784      6.426
REMARK  10 active torsions:
REMARK  status: ('A' for Active; 'I' for Inactive)
REMARK    1  A    between atoms: N_1  and  C_7 
REMARK    2  A    between atoms: C_4  and  C_5 
REMARK    3  A    between atoms: C_4  and  C_14 
REMARK    4  A    between atoms: C_5  and  C_6 
REMARK    5  A    between atoms: C_6  and  N_20 
REMARK    6  A    between atoms: C_7  and  C_19 
REMARK    7  A    between atoms: C_7  and  C_8 
REMARK    8  A    between atoms: C_14  and  C_17 
REMARK    9  A    between atoms: C_16  and  C_17 
REMARK   10  A    between atoms: C_17  and  N_24 
REMARK       I    between atoms: C_19  and  N_24 
ROOT
HETATM    1  C           1     -20.933  -6.502  -5.004  0.00  0.00     0.185 C 
ENDROOT
BRANCH   1   2
HETATM    2  C           1     -21.989  -6.701  -3.925  0.00  0.00     0.036 C 
BRANCH   2   3
HETATM    3  C           1     -21.533  -6.029  -2.636  0.00  0.00     0.004 C 
BRANCH   3   4
HETATM    4  C           1     -22.219  -6.691  -1.447  0.00  0.00     0.027 C 
BRANCH   4   5
HETATM    5  C           1     -21.331  -7.800  -0.902  0.00  0.00     0.229 C 
BRANCH   5   6
HETATM    6  N           1     -21.744  -9.113  -1.499  0.00  0.00    -0.079 N 
HETATM    7  H           1     -22.586  -8.972  -2.100  0.00  0.00     0.274 HD
HETATM    8  H           1     -21.970  -9.788  -0.733  0.00  0.00     0.274 HD
HETATM    9  H           1     -20.963  -9.494  -2.079  0.00  0.00     0.274 HD
ENDBRANCH   5   6
ENDBRANCH   4   5
ENDBRANCH   3   4
ENDBRANCH   2   3
ENDBRANCH   1   2
BRANCH   1  10
HETATM   10  C           1     -20.065  -7.733  -5.092  0.00  0.00     0.196 C 
HETATM   11  O           1     -19.423  -7.971  -6.138  0.00  0.00    -0.646 OA
HETATM   12  O           1     -19.987  -8.514  -4.119  0.00  0.00    -0.646 OA
ENDBRANCH   1  10
BRANCH   1  13
HETATM   13  N           1     -21.583  -6.278  -6.280  0.00  0.00    -0.345 N 
HETATM   14  C           1     -21.562  -5.034  -6.850  0.00  0.00     0.249 C 
HETATM   15  O           1     -21.002  -4.121  -6.289  0.00  0.00    -0.271 OA
HETATM   16  H           1     -22.053  -7.042  -6.750  0.00  0.00     0.163 HD
BRANCH  14  17
HETATM   17  C           1     -22.239  -4.800  -8.179  0.00  0.00     0.278 C 
BRANCH  17  18
HETATM   18  N           1     -23.537  -4.081  -7.958  0.00  0.00    -0.066 N 
HETATM   19  H           1     -23.506  -3.581  -7.041  0.00  0.00     0.275 HD
HETATM   20  H           1     -23.685  -3.389  -8.727  0.00  0.00     0.275 HD
HETATM   21  H           1     -24.320  -4.772  -7.952  0.00  0.00     0.275 HD
ENDBRANCH  17  18
BRANCH  17  22
HETATM   22  C           1     -21.335  -3.954  -9.067  0.00  0.00     0.017 C 
HETATM   23  C           1     -22.093  -3.554 -10.327  0.00  0.00     0.012 C 
HETATM   24  C           1     -20.102  -4.760  -9.452  0.00  0.00     0.012 C 
ENDBRANCH  17  22
ENDBRANCH  14  17
ENDBRANCH   1  13
TORSDOF 10
ENDMDL
MODEL 3
REMARK VINA RESULT:      -5.3      2.240      3.120
REMARK  10 active torsions:
REMARK  status: ('A' for Active; 'I' for Inactive)
REMARK    1  A    between atoms: N_1  and  C_7 
REMARK    2  A    between atoms: C_4  and  C_5 
REMARK    3  A    between atoms: C_4  and  C_14 
REMARK    4  A    between atoms: C_5  and  C_6 
REMARK    5  A    between atoms: C_6  and  N_20 
REMARK    6  A    between atoms: C_7  and  C_19 
REMARK    7  A    between atoms: C_7  and  C_8 
REMARK    8  A    between atoms: C_14  and  C_17 
REMARK    9  A    between atoms: C_16  and  C_17 
REMARK   10  A    between atoms: C_17  and  N_24 
REMARK       I    between atoms: C_19  and  N_24 
ROOT
HETATM    1  C           1     -20.628  -8.207  -4.804  0.00  0.00     0.185 C 
ENDROOT
BRANCH   1   2
HETATM    2  C           1     -20.913  -7.115  -5.825  0.00  0.00     0.036 C 
BRANCH   2   3
HETATM    3  C           1     -20.817  -5.752  -5.153  0.00  0.00     0.004 C 
BRANCH   3   4
HETATM    4  C           1     -20.711  -4.666  -6.217  0.00  0.00     0.027 C 
BRANCH   4   5
HETATM    5  C           1     -21.601  -5.026  -7.399  0.00  0.00     0.229 C 
BRANCH   5   6
HETATM    6  N           1     -22.760  -4.075  -7.462  0.00  0.00    -0.079 N 
HETATM    7  H           1     -22.514  -3.194  -6.958  0.00  0.00     0.274 HD
HETATM    8  H           1     -23.595  -4.514  -7.013  0.00  0.00     0.274 HD
HETATM    9  H           1     -22.978  -3.856  -8.460  0.00  0.00     0.274 HD
ENDBRANCH   5   6
ENDBRANCH   4   5
ENDBRANCH   3   4
ENDBRANCH   2   3
ENDBRANCH   1   2
BRANCH   1  10
HETATM   10  C           1     -19.234  -8.744  -5.016  0.00  0.00     0.196 C 
HETATM   11  O           1     -18.540  -9.085  -4.034  0.00  0.00    -0.646 OA
HETATM   12  O           1     -18.773  -8.847  -6.173  0.00  0.00    -0.646 OA
ENDBRANCH   1  10
BRANCH   1  13
HETATM   13  N           1     -20.735  -7.658  -3.466  0.00  0.00    -0.345 N 
HETATM   14  C           1     -21.379  -8.362  -2.486  0.00  0.00     0.249 C 
HETATM   15  O           1     -21.859  -9.444  -2.734  0.00  0.00    -0.271 OA
HETATM   16  H           1     -20.333  -6.752  -3.258  0.00  0.00     0.163 HD
BRANCH  14  17
HETATM   17  C           1     -21.491  -7.790  -1.094  0.00  0.00     0.278 C 
BRANCH  17  18
HETATM   18  N           1     -22.314  -6.537  -1.134  0.00  0.00    -0.066 N 
HETATM   19  H           1     -21.801  -5.801  -1.671  0.00  0.00     0.275 HD
HETATM   20  H           1     -23.227  -6.736  -1.601  0.00  0.00     0.275 HD
HETATM   21  H           1     -22.485  -6.202  -0.159  0.00  0.00     0.275 HD
ENDBRANCH  17  18
BRANCH  17  22
HETATM   22  C           1     -22.160  -8.807  -0.179  0.00  0.00     0.017 C 
HETATM   23  C           1     -23.295  -8.134   0.584  0.00  0.00     0.012 C 
HETATM   24  C           1     -21.138  -9.353   0.810  0.00  0.00     0.012 C 
ENDBRANCH  17  22
ENDBRANCH  14  17
ENDBRANCH   1  13
TORSDOF 10
ENDMDL
MODEL 4
REMARK VINA RESULT:      -5.3      2.216      6.308
REMARK  10 active torsions:
REMARK  status: ('A' for Active; 'I' for Inactive)
REMARK    1  A    between atoms: N_1  and  C_7 
REMARK    2  A    between atoms: C_4  and  C_5 
REMARK    3  A    between atoms: C_4  and  C_14 
REMARK    4  A    between atoms: C_5  and  C_6 
REMARK    5  A    between atoms: C_6  and  N_20 
REMARK    6  A    between atoms: C_7  and  C_19 
REMARK    7  A    between atoms: C_7  and  C_8 
REMARK    8  A    between atoms: C_14  and  C_17 
REMARK    9  A    between atoms: C_16  and  C_17 
REMARK   10  A    between atoms: C_17  and  N_24 
REMARK       I    between atoms: C_19  and  N_24 
ROOT
HETATM    1  C           1     -20.688  -8.107  -4.315  0.00  0.00     0.185 C 
ENDROOT
BRANCH   1   2
HETATM    2  C           1     -20.915  -7.786  -2.844  0.00  0.00     0.036 C 
BRANCH   2   3
HETATM    3  C           1     -21.889  -6.622  -2.721  0.00  0.00     0.004 C 
BRANCH   3   4
HETATM    4  C           1     -22.313  -6.464  -1.266  0.00  0.00     0.027 C 
BRANCH   4   5
HETATM    5  C           1     -22.309  -7.826  -0.586  0.00  0.00     0.229 C 
BRANCH   5   6
HETATM    6  N           1     -23.422  -7.888   0.418  0.00  0.00    -0.079 N 
HETATM    7  H           1     -24.100  -8.633   0.141  0.00  0.00     0.274 HD
HETATM    8  H           1     -23.911  -6.965   0.453  0.00  0.00     0.274 HD
HETATM    9  H           1     -23.029  -8.109   1.361  0.00  0.00     0.274 HD
ENDBRANCH   5   6
ENDBRANCH   4   5
ENDBRANCH   3   4
ENDBRANCH   2   3
ENDBRANCH   1   2
BRANCH   1  10
HETATM   10  C           1     -21.198  -9.495  -4.613  0.00  0.00     0.196 C 
HETATM   11  O           1     -20.932 -10.037  -5.708  0.00  0.00    -0.646 OA
HETATM   12  O           1     -21.888 -10.103  -3.766  0.00  0.00    -0.646 OA
ENDBRANCH   1  10
BRANCH   1  13
HETATM   13  N           1     -21.399  -7.145  -5.134  0.00  0.00    -0.345 N 
HETATM   14  C           1     -20.812  -6.639  -6.263  0.00  0.00     0.249 C 
HETATM   15  O           1     -19.700  -6.995  -6.576  0.00  0.00    -0.271 OA
HETATM   16  H           1     -22.330  -6.847  -4.871  0.00  0.00     0.163 HD
BRANCH  14  17
HETATM   17  C           1     -21.551  -5.638  -7.115  0.00  0.00     0.278 C 
BRANCH  17  18
HETATM   18  N           1     -22.677  -5.042  -6.322  0.00  0.00    -0.066 N 
HETATM   19  H           1     -23.531  -5.634  -6.433  0.00  0.00     0.275 HD
HETATM   20  H           1     -22.408  -5.005  -5.313  0.00  0.00     0.275 HD
HETATM   21  H           1     -22.873  -4.076  -6.668  0.00  0.00     0.275 HD
ENDBRANCH  17  18
BRANCH  17  22
HETATM   22  C           1     -20.596  -4.533  -7.547  0.00  0.00     0.017 C 
HETATM   23  C           1     -21.241  -3.177  -7.294  0.00  0.00     0.012 C 
HETATM   24  C           1     -20.286  -4.679  -9.031  0.00  0.00     0.012 C 
ENDBRANCH  17  22
ENDBRANCH  14  17
ENDBRANCH   1  13
TORSDOF 10
ENDMDL
MODEL 5
REMARK VINA RESULT:      -5.3      3.139      4.135
REMARK  10 active torsions:
REMARK  status: ('A' for Active; 'I' for Inactive)
REMARK    1  A    between atoms: N_1  and  C_7 
REMARK    2  A    between atoms: C_4  and  C_5 
REMARK    3  A    between atoms: C_4  and  C_14 
REMARK    4  A    between atoms: C_5  and  C_6 
REMARK    5  A    between atoms: C_6  and  N_20 
REMARK    6  A    between atoms: C_7  and  C_19 
REMARK    7  A    between atoms: C_7  and  C_8 
REMARK    8  A    between atoms: C_14  and  C_17 
REMARK    9  A    between atoms: C_16  and  C_17 
REMARK   10  A    between atoms: C_17  and  N_24 
REMARK       I    between atoms: C_19  and  N_24 
ROOT
HETATM    1  C           1     -20.734  -6.744  -5.513  0.00  0.00     0.185 C 
ENDROOT
BRANCH   1   2
HETATM    2  C           1     -20.757  -6.028  -6.856  0.00  0.00     0.036 C 
BRANCH   2   3
HETATM    3  C           1     -20.239  -4.606  -6.684  0.00  0.00     0.004 C 
BRANCH   3   4
HETATM    4  C           1     -21.284  -3.619  -7.189  0.00  0.00     0.027 C 
BRANCH   4   5
HETATM    5  C           1     -22.267  -4.342  -8.100  0.00  0.00     0.229 C 
BRANCH   5   6
HETATM    6  N           1     -23.656  -4.200  -7.551  0.00  0.00    -0.079 N 
HETATM    7  H           1     -23.989  -3.221  -7.697  0.00  0.00     0.274 HD
HETATM    8  H           1     -23.651  -4.420  -6.530  0.00  0.00     0.274 HD
HETATM    9  H           1     -24.296  -4.862  -8.046  0.00  0.00     0.274 HD
ENDBRANCH   5   6
ENDBRANCH   4   5
ENDBRANCH   3   4
ENDBRANCH   2   3
ENDBRANCH   1   2
BRANCH   1  10
HETATM   10  C           1     -21.899  -6.280  -4.674  0.00  0.00     0.196 C 
HETATM   11  O           1     -21.729  -6.009  -3.465  0.00  0.00    -0.646 OA
HETATM   12  O           1     -23.033  -6.165  -5.187  0.00  0.00    -0.646 OA
ENDBRANCH   1  10
BRANCH   1  13
HETATM   13  N           1     -20.834  -8.175  -5.727  0.00  0.00    -0.345 N 
HETATM   14  C           1     -20.019  -9.029  -5.035  0.00  0.00     0.249 C 
HETATM   15  O           1     -19.215  -8.591  -4.245  0.00  0.00    -0.271 OA
HETATM   16  H           1     -21.507  -8.542  -6.388  0.00  0.00     0.163 HD
BRANCH  14  17
HETATM   17  C           1     -20.123 -10.518  -5.258  0.00  0.00     0.278 C 
BRANCH  17  18
HETATM   18  N           1     -21.110 -10.791  -6.354  0.00  0.00    -0.066 N 
HETATM   19  H           1     -21.088 -10.007  -7.044  0.00  0.00     0.275 HD
HETATM   20  H           1     -20.858 -11.684  -6.833  0.00  0.00     0.275 HD
HETATM   21  H           1     -22.069 -10.871  -5.946  0.00  0.00     0.275 HD
ENDBRANCH  17  18
BRANCH  17  22
HETATM   22  C           1     -18.759 -11.069  -5.655  0.00  0.00     0.017 C 
HETATM   23  C           1     -18.894 -11.880  -6.938  0.00  0.00     0.012 C 
HETATM   24  C           1     -18.227 -11.963  -4.543  0.00  0.00     0.012 C 
ENDBRANCH  17  22
ENDBRANCH  14  17
ENDBRANCH   1  13
TORSDOF 10
ENDMDL
MODEL 6
REMARK VINA RESULT:      -5.2      4.188      6.555
REMARK  10 active torsions:
REMARK  status: ('A' for Active; 'I' for Inactive)
REMARK    1  A    between atoms: N_1  and  C_7 
REMARK    2  A    between atoms: C_4  and  C_5 
REMARK    3  A    between atoms: C_4  and  C_14 
REMARK    4  A    between atoms: C_5  and  C_6 
REMARK    5  A    between atoms: C_6  and  N_20 
REMARK    6  A    between atoms: C_7  and  C_19 
REMARK    7  A    between atoms: C_7  and  C_8 
REMARK    8  A    between atoms: C_14  and  C_17 
REMARK    9  A    between atoms: C_16  and  C_17 
REMARK   10  A    between atoms: C_17  and  N_24 
REMARK       I    between atoms: C_19  and  N_24 
ROOT
HETATM    1  C           1     -21.217  -8.151  -0.677  0.00  0.00     0.185 C 
ENDROOT
BRANCH   1   2
HETATM    2  C           1     -20.299  -7.729  -1.816  0.00  0.00     0.036 C 
BRANCH   2   3
HETATM    3  C           1     -20.473  -8.682  -2.991  0.00  0.00     0.004 C 
BRANCH   3   4
HETATM    4  C           1     -20.466  -7.892  -4.293  0.00  0.00     0.027 C 
BRANCH   4   5
HETATM    5  C           1     -21.899  -7.641  -4.743  0.00  0.00     0.229 C 
BRANCH   5   6
HETATM    6  N           1     -22.271  -6.216  -4.460  0.00  0.00    -0.079 N 
HETATM    7  H           1     -22.547  -6.121  -3.457  0.00  0.00     0.274 HD
HETATM    8  H           1     -23.073  -5.938  -5.071  0.00  0.00     0.274 HD
HETATM    9  H           1     -21.453  -5.596  -4.657  0.00  0.00     0.274 HD
ENDBRANCH   5   6
ENDBRANCH   4   5
ENDBRANCH   3   4
ENDBRANCH   2   3
ENDBRANCH   1   2
BRANCH   1  10
HETATM   10  C           1     -22.432  -7.257  -0.653  0.00  0.00     0.196 C 
HETATM   11  O           1     -22.498  -6.271  -1.417  0.00  0.00    -0.646 OA
HETATM   12  O           1     -23.374  -7.503   0.133  0.00  0.00    -0.646 OA
ENDBRANCH   1  10
BRANCH   1  13
HETATM   13  N           1     -21.634  -9.525  -0.877  0.00  0.00    -0.345 N 
HETATM   14  C           1     -21.350 -10.471   0.070  0.00  0.00     0.249 C 
HETATM   15  O           1     -20.752 -10.161   1.074  0.00  0.00    -0.271 OA
HETATM   16  H           1     -22.134  -9.785  -1.718  0.00  0.00     0.163 HD
BRANCH  14  17
HETATM   17  C           1     -21.783 -11.902  -0.137  0.00  0.00     0.278 C 
BRANCH  17  18
HETATM   18  N           1     -20.897 -12.812   0.661  0.00  0.00    -0.066 N 
HETATM   19  H           1     -20.487 -12.283   1.463  0.00  0.00     0.275 HD
HETATM   20  H           1     -21.460 -13.614   1.024  0.00  0.00     0.275 HD
HETATM   21  H           1     -20.128 -13.172   0.051  0.00  0.00     0.275 HD
ENDBRANCH  17  18
BRANCH  17  22
HETATM   22  C           1     -23.225 -12.068   0.322  0.00  0.00     0.017 C 
HETATM   23  C           1     -23.328 -13.274   1.247  0.00  0.00     0.012 C 
HETATM   24  C           1     -24.124 -12.280  -0.889  0.00  0.00     0.012 C 
ENDBRANCH  17  22
ENDBRANCH  14  17
ENDBRANCH   1  13
TORSDOF 10
ENDMDL
MODEL 7
REMARK VINA RESULT:      -5.2      3.096      4.446
REMARK  10 active torsions:
REMARK  status: ('A' for Active; 'I' for Inactive)
REMARK    1  A    between atoms: N_1  and  C_7 
REMARK    2  A    between atoms: C_4  and  C_5 
REMARK    3  A    between atoms: C_4  and  C_14 
REMARK    4  A    between atoms: C_5  and  C_6 
REMARK    5  A    between atoms: C_6  and  N_20 
REMARK    6  A    between atoms: C_7  and  C_19 
REMARK    7  A    between atoms: C_7  and  C_8 
REMARK    8  A    between atoms: C_14  and  C_17 
REMARK    9  A    between atoms: C_16  and  C_17 
REMARK   10  A    between atoms: C_17  and  N_24 
REMARK       I    between atoms: C_19  and  N_24 
ROOT
HETATM    1  C           1     -21.167  -8.995  -4.032  0.00  0.00     0.185 C 
ENDROOT
BRANCH   1   2
HETATM    2  C           1     -21.854  -7.748  -4.571  0.00  0.00     0.036 C 
BRANCH   2   3
HETATM    3  C           1     -21.247  -6.511  -3.923  0.00  0.00     0.004 C 
BRANCH   3   4
HETATM    4  C           1     -20.844  -5.516  -5.004  0.00  0.00     0.027 C 
BRANCH   4   5
HETATM    5  C           1     -21.212  -6.075  -6.372  0.00  0.00     0.229 C 
BRANCH   5   6
HETATM    6  N           1     -19.964  -6.319  -7.166  0.00  0.00    -0.079 N 
HETATM    7  H           1     -19.841  -5.553  -7.866  0.00  0.00     0.274 HD
HETATM    8  H           1     -20.040  -7.236  -7.662  0.00  0.00     0.274 HD
HETATM    9  H           1     -19.139  -6.339  -6.524  0.00  0.00     0.274 HD
ENDBRANCH   5   6
ENDBRANCH   4   5
ENDBRANCH   3   4
ENDBRANCH   2   3
ENDBRANCH   1   2
BRANCH   1  10
HETATM   10  C           1     -19.718  -8.992  -4.450  0.00  0.00     0.196 C 
HETATM   11  O           1     -19.417  -8.953  -5.663  0.00  0.00    -0.646 OA
HETATM   12  O           1     -18.817  -9.029  -3.583  0.00  0.00    -0.646 OA
ENDBRANCH   1  10
BRANCH   1  13
HETATM   13  N           1     -21.252  -9.005  -2.584  0.00  0.00    -0.345 N 
HETATM   14  C           1     -21.950  -9.994  -1.946  0.00  0.00     0.249 C 
HETATM   15  O           1     -22.495 -10.860  -2.589  0.00  0.00    -0.271 OA
HETATM   16  H           1     -20.795  -8.280  -2.046  0.00  0.00     0.163 HD
BRANCH  14  17
HETATM   17  C           1     -22.038 -10.005  -0.439  0.00  0.00     0.278 C 
BRANCH  17  18
HETATM   18  N           1     -20.979 -10.911   0.116  0.00  0.00    -0.066 N 
HETATM   19  H           1     -21.424 -11.627   0.733  0.00  0.00     0.275 HD
HETATM   20  H           1     -20.483 -11.387  -0.670  0.00  0.00     0.275 HD
HETATM   21  H           1     -20.296 -10.348   0.671  0.00  0.00     0.275 HD
ENDBRANCH  17  18
BRANCH  17  22
HETATM   22  C           1     -21.827  -8.593   0.091  0.00  0.00     0.017 C 
HETATM   23  C           1     -21.040  -8.653   1.395  0.00  0.00     0.012 C 
HETATM   24  C           1     -23.177  -7.937   0.344  0.00  0.00     0.012 C 
ENDBRANCH  17  22
ENDBRANCH  14  17
ENDBRANCH   1  13
TORSDOF 10
ENDMDL
MODEL 8
REMARK VINA RESULT:      -5.2      2.209      5.925
REMARK  10 active torsions:
REMARK  status: ('A' for Active; 'I' for Inactive)
REMARK    1  A    between atoms: N_1  and  C_7 
REMARK    2  A    between atoms: C_4  and  C_5 
REMARK    3  A    between atoms: C_4  and  C_14 
REMARK    4  A    between atoms: C_5  and  C_6 
REMARK    5  A    between atoms: C_6  and  N_20 
REMARK    6  A    between atoms: C_7  and  C_19 
REMARK    7  A    between atoms: C_7  and  C_8 
REMARK    8  A    between atoms: C_14  and  C_17 
REMARK    9  A    between atoms: C_16  and  C_17 
REMARK   10  A    between atoms: C_17  and  N_24 
REMARK       I    between atoms: C_19  and  N_24 
ROOT
HETATM    1  C           1     -20.380  -8.415  -4.583  0.00  0.00     0.185 C 
ENDROOT
BRANCH   1   2
HETATM    2  C           1     -21.518  -9.167  -3.906  0.00  0.00     0.036 C 
BRANCH   2   3
HETATM    3  C           1     -21.299  -9.174  -2.399  0.00  0.00     0.004 C 
BRANCH   3   4
HETATM    4  C           1     -20.861  -7.787  -1.942  0.00  0.00     0.027 C 
BRANCH   4   5
HETATM    5  C           1     -22.047  -7.056  -1.330  0.00  0.00     0.229 C 
BRANCH   5   6
HETATM    6  N           1     -22.402  -5.874  -2.183  0.00  0.00    -0.079 N 
HETATM    7  H           1     -23.397  -5.608  -2.012  0.00  0.00     0.274 HD
HETATM    8  H           1     -22.274  -6.121  -3.190  0.00  0.00     0.274 HD
HETATM    9  H           1     -21.781  -5.069  -1.940  0.00  0.00     0.274 HD
ENDBRANCH   5   6
ENDBRANCH   4   5
ENDBRANCH   3   4
ENDBRANCH   2   3
ENDBRANCH   1   2
BRANCH   1  10
HETATM   10  C           1     -19.326  -9.395  -5.034  0.00  0.00     0.196 C 
HETATM   11  O           1     -19.203 -10.493  -4.448  0.00  0.00    -0.646 OA
HETATM   12  O           1     -18.576  -9.110  -5.992  0.00  0.00    -0.646 OA
ENDBRANCH   1  10
BRANCH   1  13
HETATM   13  N           1     -20.894  -7.695  -5.732  0.00  0.00    -0.345 N 
HETATM   14  C           1     -21.069  -6.339  -5.669  0.00  0.00     0.249 C 
HETATM   15  O           1     -20.795  -5.741  -4.655  0.00  0.00    -0.271 OA
HETATM   16  H           1     -21.122  -8.196  -6.582  0.00  0.00     0.163 HD
BRANCH  14  17
HETATM   17  C           1     -21.603  -5.590  -6.865  0.00  0.00     0.278 C 
BRANCH  17  18
HETATM   18  N           1     -22.908  -4.943  -6.507  0.00  0.00    -0.066 N 
HETATM   19  H           1     -23.289  -4.444  -7.342  0.00  0.00     0.275 HD
HETATM   20  H           1     -23.586  -5.676  -6.199  0.00  0.00     0.275 HD
HETATM   21  H           1     -22.755  -4.259  -5.731  0.00  0.00     0.275 HD
ENDBRANCH  17  18
BRANCH  17  22
HETATM   22  C           1     -20.603  -4.519  -7.282  0.00  0.00     0.017 C 
HETATM   23  C           1     -21.303  -3.167  -7.341  0.00  0.00     0.012 C 
HETATM   24  C           1     -20.038  -4.858  -8.655  0.00  0.00     0.012 C 
ENDBRANCH  17  22
ENDBRANCH  14  17
ENDBRANCH   1  13
TORSDOF 10
ENDMDL
MODEL 9
REMARK VINA RESULT:      -5.1      2.634      6.401
REMARK  10 active torsions:
REMARK  status: ('A' for Active; 'I' for Inactive)
REMARK    1  A    between atoms: N_1  and  C_7 
REMARK    2  A    between atoms: C_4  and  C_5 
REMARK    3  A    between atoms: C_4  and  C_14 
REMARK    4  A    between atoms: C_5  and  C_6 
REMARK    5  A    between atoms: C_6  and  N_20 
REMARK    6  A    between atoms: C_7  and  C_19 
REMARK    7  A    between atoms: C_7  and  C_8 
REMARK    8  A    between atoms: C_14  and  C_17 
REMARK    9  A    between atoms: C_16  and  C_17 
REMARK   10  A    between atoms: C_17  and  N_24 
REMARK       I    between atoms: C_19  and  N_24 
ROOT
HETATM    1  C           1     -21.659  -7.336  -4.128  0.00  0.00     0.185 C 
ENDROOT
BRANCH   1   2
HETATM    2  C           1     -20.953  -8.683  -4.209  0.00  0.00     0.036 C 
BRANCH   2   3
HETATM    3  C           1     -19.617  -8.516  -4.920  0.00  0.00     0.004 C 
BRANCH   3   4
HETATM    4  C           1     -18.542  -9.299  -4.175  0.00  0.00     0.027 C 
BRANCH   4   5
HETATM    5  C           1     -17.581  -9.922  -5.178  0.00  0.00     0.229 C 
BRANCH   5   6
HETATM    6  N           1     -18.324 -10.273  -6.433  0.00  0.00    -0.079 N 
HETATM    7  H           1     -18.522 -11.298  -6.445  0.00  0.00     0.274 HD
HETATM    8  H           1     -17.742 -10.020  -7.264  0.00  0.00     0.274 HD
HETATM    9  H           1     -19.224  -9.744  -6.465  0.00  0.00     0.274 HD
ENDBRANCH   5   6
ENDBRANCH   4   5
ENDBRANCH   3   4
ENDBRANCH   2   3
ENDBRANCH   1   2
BRANCH   1  10
HETATM   10  C           1     -21.635  -6.839  -2.704  0.00  0.00     0.196 C 
HETATM   11  O           1     -22.389  -5.905  -2.356  0.00  0.00    -0.646 OA
HETATM   12  O           1     -20.862  -7.362  -1.872  0.00  0.00    -0.646 OA
ENDBRANCH   1  10
BRANCH   1  13
HETATM   13  N           1     -20.979  -6.383  -4.983  0.00  0.00    -0.345 N 
HETATM   14  C           1     -21.704  -5.549  -5.792  0.00  0.00     0.249 C 
HETATM   15  O           1     -22.911  -5.608  -5.792  0.00  0.00    -0.271 OA
HETATM   16  H           1     -19.968  -6.334  -4.983  0.00  0.00     0.163 HD
BRANCH  14  17
HETATM   17  C           1     -20.996  -4.557  -6.682  0.00  0.00     0.278 C 
BRANCH  17  18
HETATM   18  N           1     -19.513  -4.697  -6.504  0.00  0.00    -0.066 N 
HETATM   19  H           1     -19.207  -5.632  -6.855  0.00  0.00     0.275 HD
HETATM   20  H           1     -19.027  -3.946  -7.044  0.00  0.00     0.275 HD
HETATM   21  H           1     -19.275  -4.610  -5.490  0.00  0.00     0.275 HD
ENDBRANCH  17  18
BRANCH  17  22
HETATM   22  C           1     -21.360  -4.830  -8.136  0.00  0.00     0.017 C 
HETATM   23  C           1     -20.104  -4.759  -8.995  0.00  0.00     0.012 C 
HETATM   24  C           1     -22.360  -3.786  -8.614  0.00  0.00     0.012 C 
ENDBRANCH  17  22
ENDBRANCH  14  17
ENDBRANCH   1  13
TORSDOF 10
ENDMDL
