MODEL 1
REMARK VINA RESULT:      -5.9      0.000      0.000
REMARK  6 active torsions:
REMARK  status: ('A' for Active; 'I' for Inactive)
REMARK    1  A    between atoms: C_1  and  C_2 
REMARK    2  A    between atoms: C_1  and  C_19 
REMARK    3  A    between atoms: C_1  and  N_15 
REMARK       I    between atoms: C_2  and  N_3 
REMARK    4  A    between atoms: C_4  and  C_6 
REMARK    5  A    between atoms: Se_17  and  C_18 
REMARK    6  A    between atoms: C_18  and  C_19 
ROOT
HETATM    1  C           1     -21.615  -4.658  -7.994  0.00  0.00     0.251 C 
HETATM    2  N           1     -21.516  -4.461  -9.345  0.00  0.00    -0.336 N 
HETATM    3  C           1     -22.428  -3.710 -10.204  0.00  0.00     0.188 C 
HETATM    4  C           1     -21.502  -2.966 -11.151  0.00  0.00     0.038 C 
HETATM    5  C           1     -20.219  -3.788 -11.180  0.00  0.00     0.022 C 
HETATM    6  C           1     -20.474  -4.954 -10.241  0.00  0.00     0.127 C 
HETATM    7  O           1     -22.541  -4.184  -7.381  0.00  0.00    -0.271 OA
ENDROOT
BRANCH   1   8
HETATM    8  C           1     -20.568  -5.468  -7.271  0.00  0.00     0.275 C 
BRANCH   8   9
HETATM    9  C           1     -21.246  -6.418  -6.293  0.00  0.00     0.042 C 
BRANCH   9  10
HETATM   10  C           1     -20.989  -5.948  -4.867  0.00  0.00     0.003 C 
BRANCH  10  11
HETATM   11 Se           1     -21.357  -7.405  -3.626  0.00  0.00     0.000 Se
HETATM   12  C           1     -22.020  -6.246  -2.205  0.00  0.00     0.000 C 
ENDBRANCH  10  11
ENDBRANCH   9  10
ENDBRANCH   8   9
BRANCH   8  13
HETATM   13  N           1     -19.654  -4.547  -6.520  0.00  0.00    -0.067 N 
HETATM   14  H           1     -20.221  -3.850  -5.985  0.00  0.00     0.275 HD
HETATM   15  H           1     -19.069  -5.103  -5.855  0.00  0.00     0.275 HD
HETATM   16  H           1     -19.033  -4.046  -7.195  0.00  0.00     0.275 HD
ENDBRANCH   8  13
ENDBRANCH   1   8
BRANCH   3  17
HETATM   17  C           1     -23.338  -4.643 -10.964  0.00  0.00     0.196 C 
HETATM   18  O           1     -24.044  -5.468 -10.346  0.00  0.00    -0.646 OA
HETATM   19  O           1     -23.386  -4.590 -12.212  0.00  0.00    -0.646 OA
ENDBRANCH   3  17
TORSDOF 6
ENDMDL
MODEL 2
REMARK VINA RESULT:      -5.4     10.340     12.035
REMARK  6 active torsions:
REMARK  status: ('A' for Active; 'I' for Inactive)
REMARK    1  A    between atoms: C_1  and  C_2 
REMARK    2  A    between atoms: C_1  and  C_19 
REMARK    3  A    between atoms: C_1  and  N_15 
REMARK       I    between atoms: C_2  and  N_3 
REMARK    4  A    between atoms: C_4  and  C_6 
REMARK    5  A    between atoms: Se_17  and  C_18 
REMARK    6  A    between atoms: C_18  and  C_19 
ROOT
HETATM    1  C           1     -27.044  -6.675 -16.318  0.00  0.00     0.251 C 
HETATM    2  N           1     -28.177  -6.093 -16.820  0.00  0.00    -0.336 N 
HETATM    3  C           1     -29.552  -6.286 -16.367  0.00  0.00     0.188 C 
HETATM    4  C           1     -30.150  -4.891 -16.422  0.00  0.00     0.038 C 
HETATM    5  C           1     -29.313  -4.140 -17.451  0.00  0.00     0.022 C 
HETATM    6  C           1     -28.274  -5.141 -17.923  0.00  0.00     0.127 C 
HETATM    7  O           1     -27.121  -7.449 -15.395  0.00  0.00    -0.271 OA
ENDROOT
BRANCH   1   8
HETATM    8  C           1     -25.699  -6.350 -16.920  0.00  0.00     0.275 C 
BRANCH   8   9
HETATM    9  C           1     -25.695  -6.735 -18.393  0.00  0.00     0.042 C 
BRANCH   9  10
HETATM   10  C           1     -24.279  -7.103 -18.818  0.00  0.00     0.003 C 
BRANCH  10  11
HETATM   11 Se           1     -24.313  -7.842 -20.621  0.00  0.00     0.000 Se
HETATM   12  C           1     -26.246  -7.694 -20.822  0.00  0.00     0.000 C 
ENDBRANCH  10  11
ENDBRANCH   9  10
ENDBRANCH   8   9
BRANCH   8  13
HETATM   13  N           1     -24.631  -7.118 -16.200  0.00  0.00    -0.067 N 
HETATM   14  H           1     -23.873  -6.464 -15.899  0.00  0.00     0.275 HD
HETATM   15  H           1     -25.043  -7.583 -15.360  0.00  0.00     0.275 HD
HETATM   16  H           1     -24.232  -7.843 -16.839  0.00  0.00     0.275 HD
ENDBRANCH   8  13
ENDBRANCH   1   8
BRANCH   3  17
HETATM   17  C           1     -30.293  -7.226 -17.287  0.00  0.00     0.196 C 
HETATM   18  O           1     -31.473  -6.978 -17.616  0.00  0.00    -0.646 OA
HETATM   19  O           1     -29.726  -8.253 -17.719  0.00  0.00    -0.646 OA
ENDBRANCH   3  17
TORSDOF 6
ENDMDL
MODEL 3
REMARK VINA RESULT:      -5.4      1.948      2.586
REMARK  6 active torsions:
REMARK  status: ('A' for Active; 'I' for Inactive)
REMARK    1  A    between atoms: C_1  and  C_2 
REMARK    2  A    between atoms: C_1  and  C_19 
REMARK    3  A    between atoms: C_1  and  N_15 
REMARK       I    between atoms: C_2  and  N_3 
REMARK    4  A    between atoms: C_4  and  C_6 
REMARK    5  A    between atoms: Se_17  and  C_18 
REMARK    6  A    between atoms: C_18  and  C_19 
ROOT
HETATM    1  C           1     -21.409  -5.006  -8.058  0.00  0.00     0.251 C 
HETATM    2  N           1     -22.145  -4.468  -9.080  0.00  0.00    -0.336 N 
HETATM    3  C           1     -22.023  -4.750 -10.508  0.00  0.00     0.188 C 
HETATM    4  C           1     -23.462  -4.809 -10.989  0.00  0.00     0.038 C 
HETATM    5  C           1     -24.251  -3.975  -9.986  0.00  0.00     0.022 C 
HETATM    6  C           1     -23.223  -3.489  -8.979  0.00  0.00     0.127 C 
HETATM    7  O           1     -20.543  -5.812  -8.297  0.00  0.00    -0.271 OA
ENDROOT
BRANCH   1   8
HETATM    8  C           1     -21.681  -4.591  -6.633  0.00  0.00     0.275 C 
BRANCH   8   9
HETATM    9  C           1     -20.473  -4.924  -5.768  0.00  0.00     0.042 C 
BRANCH   9  10
HETATM   10  C           1     -20.877  -5.928  -4.696  0.00  0.00     0.003 C 
BRANCH  10  11
HETATM   11 Se           1     -20.181  -7.688  -5.159  0.00  0.00     0.000 Se
HETATM   12  C           1     -21.608  -8.669  -4.264  0.00  0.00     0.000 C 
ENDBRANCH  10  11
ENDBRANCH   9  10
ENDBRANCH   8   9
BRANCH   8  13
HETATM   13  N           1     -22.882  -5.327  -6.119  0.00  0.00    -0.067 N 
HETATM   14  H           1     -23.325  -4.777  -5.347  0.00  0.00     0.275 HD
HETATM   15  H           1     -23.571  -5.455  -6.895  0.00  0.00     0.275 HD
HETATM   16  H           1     -22.589  -6.262  -5.756  0.00  0.00     0.275 HD
ENDBRANCH   8  13
ENDBRANCH   1   8
BRANCH   3  17
HETATM   17  C           1     -21.267  -3.648 -11.209  0.00  0.00     0.196 C 
HETATM   18  O           1     -20.141  -3.300 -10.793  0.00  0.00    -0.646 OA
HETATM   19  O           1     -21.766  -3.084 -12.206  0.00  0.00    -0.646 OA
ENDBRANCH   3  17
TORSDOF 6
ENDMDL
MODEL 4
REMARK VINA RESULT:      -5.4     10.815     12.801
REMARK  6 active torsions:
REMARK  status: ('A' for Active; 'I' for Inactive)
REMARK    1  A    between atoms: C_1  and  C_2 
REMARK    2  A    between atoms: C_1  and  C_19 
REMARK    3  A    between atoms: C_1  and  N_15 
REMARK       I    between atoms: C_2  and  N_3 
REMARK    4  A    between atoms: C_4  and  C_6 
REMARK    5  A    between atoms: Se_17  and  C_18 
REMARK    6  A    between atoms: C_18  and  C_19 
ROOT
HETATM    1  C           1     -25.667  -6.588 -18.876  0.00  0.00     0.251 C 
HETATM    2  N           1     -26.780  -6.233 -18.163  0.00  0.00    -0.336 N 
HETATM    3  C           1     -26.833  -5.682 -16.812  0.00  0.00     0.188 C 
HETATM    4  C           1     -27.910  -4.615 -16.898  0.00  0.00     0.038 C 
HETATM    5  C           1     -28.797  -5.039 -18.064  0.00  0.00     0.022 C 
HETATM    6  C           1     -28.174  -6.320 -18.589  0.00  0.00     0.127 C 
HETATM    7  O           1     -24.570  -6.458 -18.388  0.00  0.00    -0.271 OA
ENDROOT
BRANCH   1   8
HETATM    8  C           1     -25.810  -7.145 -20.271  0.00  0.00     0.275 C 
BRANCH   8   9
HETATM    9  C           1     -24.487  -7.753 -20.714  0.00  0.00     0.042 C 
BRANCH   9  10
HETATM   10  C           1     -24.355  -7.637 -22.228  0.00  0.00     0.003 C 
BRANCH  10  11
HETATM   11 Se           1     -22.802  -8.650 -22.825  0.00  0.00     0.000 Se
HETATM   12  C           1     -21.940  -8.673 -21.077  0.00  0.00     0.000 C 
ENDBRANCH  10  11
ENDBRANCH   9  10
ENDBRANCH   8   9
BRANCH   8  13
HETATM   13  N           1     -26.194  -6.042 -21.212  0.00  0.00    -0.067 N 
HETATM   14  H           1     -27.176  -6.188 -21.539  0.00  0.00     0.275 HD
HETATM   15  H           1     -26.124  -5.124 -20.719  0.00  0.00     0.275 HD
HETATM   16  H           1     -25.549  -6.046 -22.035  0.00  0.00     0.275 HD
ENDBRANCH   8  13
ENDBRANCH   1   8
BRANCH   3  17
HETATM   17  C           1     -27.210  -6.747 -15.812  0.00  0.00     0.196 C 
HETATM   18  O           1     -28.371  -6.790 -15.353  0.00  0.00    -0.646 OA
HETATM   19  O           1     -26.360  -7.585 -15.442  0.00  0.00    -0.646 OA
ENDBRANCH   3  17
TORSDOF 6
ENDMDL
MODEL 5
REMARK VINA RESULT:      -5.0     11.161     13.069
REMARK  6 active torsions:
REMARK  status: ('A' for Active; 'I' for Inactive)
REMARK    1  A    between atoms: C_1  and  C_2 
REMARK    2  A    between atoms: C_1  and  C_19 
REMARK    3  A    between atoms: C_1  and  N_15 
REMARK       I    between atoms: C_2  and  N_3 
REMARK    4  A    between atoms: C_4  and  C_6 
REMARK    5  A    between atoms: Se_17  and  C_18 
REMARK    6  A    between atoms: C_18  and  C_19 
ROOT
HETATM    1  C           1     -26.777  -6.758 -19.392  0.00  0.00     0.251 C 
HETATM    2  N           1     -27.303  -6.446 -18.167  0.00  0.00    -0.336 N 
HETATM    3  C           1     -28.697  -6.545 -17.745  0.00  0.00     0.188 C 
HETATM    4  C           1     -28.609  -7.091 -16.330  0.00  0.00     0.038 C 
HETATM    5  C           1     -27.224  -6.689 -15.835  0.00  0.00     0.022 C 
HETATM    6  C           1     -26.589  -5.943 -16.996  0.00  0.00     0.127 C 
HETATM    7  O           1     -27.497  -7.166 -20.271  0.00  0.00    -0.271 OA
ENDROOT
BRANCH   1   8
HETATM    8  C           1     -25.299  -6.589 -19.645  0.00  0.00     0.275 C 
BRANCH   8   9
HETATM    9  C           1     -24.984  -6.963 -21.087  0.00  0.00     0.042 C 
BRANCH   9  10
HETATM   10  C           1     -23.960  -8.091 -21.107  0.00  0.00     0.003 C 
BRANCH  10  11
HETATM   11 Se           1     -23.208  -8.254 -22.897  0.00  0.00     0.000 Se
HETATM   12  C           1     -21.631  -9.245 -22.322  0.00  0.00     0.000 C 
ENDBRANCH  10  11
ENDBRANCH   9  10
ENDBRANCH   8   9
BRANCH   8  13
HETATM   13  N           1     -24.529  -7.481 -18.717  0.00  0.00    -0.067 N 
HETATM   14  H           1     -25.172  -7.868 -17.989  0.00  0.00     0.275 HD
HETATM   15  H           1     -24.107  -8.268 -19.262  0.00  0.00     0.275 HD
HETATM   16  H           1     -23.770  -6.931 -18.255  0.00  0.00     0.275 HD
ENDBRANCH   8  13
ENDBRANCH   1   8
BRANCH   3  17
HETATM   17  C           1     -29.360  -5.190 -17.759  0.00  0.00     0.196 C 
HETATM   18  O           1     -29.908  -4.751 -16.725  0.00  0.00    -0.646 OA
HETATM   19  O           1     -29.361  -4.506 -18.805  0.00  0.00    -0.646 OA
ENDBRANCH   3  17
TORSDOF 6
ENDMDL
MODEL 6
REMARK VINA RESULT:      -4.9      3.507      6.439
REMARK  6 active torsions:
REMARK  status: ('A' for Active; 'I' for Inactive)
REMARK    1  A    between atoms: C_1  and  C_2 
REMARK    2  A    between atoms: C_1  and  C_19 
REMARK    3  A    between atoms: C_1  and  N_15 
REMARK       I    between atoms: C_2  and  N_3 
REMARK    4  A    between atoms: C_4  and  C_6 
REMARK    5  A    between atoms: Se_17  and  C_18 
REMARK    6  A    between atoms: C_18  and  C_19 
ROOT
HETATM    1  C           1     -20.689  -6.190  -6.558  0.00  0.00     0.251 C 
HETATM    2  N           1     -21.116  -6.786  -5.402  0.00  0.00    -0.336 N 
HETATM    3  C           1     -20.453  -7.847  -4.651  0.00  0.00     0.188 C 
HETATM    4  C           1     -20.648  -7.440  -3.201  0.00  0.00     0.038 C 
HETATM    5  C           1     -21.890  -6.556  -3.200  0.00  0.00     0.022 C 
HETATM    6  C           1     -22.335  -6.496  -4.651  0.00  0.00     0.127 C 
HETATM    7  O           1     -19.651  -6.537  -7.069  0.00  0.00    -0.271 OA
ENDROOT
BRANCH   1   8
HETATM    8  C           1     -21.515  -5.100  -7.196  0.00  0.00     0.275 C 
BRANCH   8   9
HETATM    9  C           1     -21.531  -5.291  -8.706  0.00  0.00     0.042 C 
BRANCH   9  10
HETATM   10  C           1     -20.821  -4.121  -9.374  0.00  0.00     0.003 C 
BRANCH  10  11
HETATM   11 Se           1     -21.581  -3.824 -11.144  0.00  0.00     0.000 Se
HETATM   12  C           1     -23.289  -4.670 -10.732  0.00  0.00     0.000 C 
ENDBRANCH  10  11
ENDBRANCH   9  10
ENDBRANCH   8   9
BRANCH   8  13
HETATM   13  N           1     -20.919  -3.764  -6.868  0.00  0.00    -0.067 N 
HETATM   14  H           1     -20.941  -3.153  -7.716  0.00  0.00     0.275 HD
HETATM   15  H           1     -21.470  -3.315  -6.102  0.00  0.00     0.275 HD
HETATM   16  H           1     -19.929  -3.891  -6.556  0.00  0.00     0.275 HD
ENDBRANCH   8  13
ENDBRANCH   1   8
BRANCH   3  17
HETATM   17  C           1     -21.098  -9.183  -4.926  0.00  0.00     0.196 C 
HETATM   18  O           1     -21.622  -9.828  -3.993  0.00  0.00    -0.646 OA
HETATM   19  O           1     -21.106  -9.646  -6.087  0.00  0.00    -0.646 OA
ENDBRANCH   3  17
TORSDOF 6
ENDMDL
MODEL 7
REMARK VINA RESULT:      -4.9      3.225      6.513
REMARK  6 active torsions:
REMARK  status: ('A' for Active; 'I' for Inactive)
REMARK    1  A    between atoms: C_1  and  C_2 
REMARK    2  A    between atoms: C_1  and  C_19 
REMARK    3  A    between atoms: C_1  and  N_15 
REMARK       I    between atoms: C_2  and  N_3 
REMARK    4  A    between atoms: C_4  and  C_6 
REMARK    5  A    between atoms: Se_17  and  C_18 
REMARK    6  A    between atoms: C_18  and  C_19 
ROOT
HETATM    1  C           1     -21.751  -5.663  -5.947  0.00  0.00     0.251 C 
HETATM    2  N           1     -21.282  -6.682  -5.161  0.00  0.00    -0.336 N 
HETATM    3  C           1     -22.035  -7.482  -4.199  0.00  0.00     0.188 C 
HETATM    4  C           1     -21.508  -8.891  -4.409  0.00  0.00     0.038 C 
HETATM    5  C           1     -20.114  -8.709  -4.999  0.00  0.00     0.022 C 
HETATM    6  C           1     -19.921  -7.207  -5.104  0.00  0.00     0.127 C 
HETATM    7  O           1     -22.911  -5.337  -5.884  0.00  0.00    -0.271 OA
ENDROOT
BRANCH   1   8
HETATM    8  C           1     -20.815  -4.946  -6.889  0.00  0.00     0.275 C 
BRANCH   8   9
HETATM    9  C           1     -21.507  -3.711  -7.450  0.00  0.00     0.042 C 
BRANCH   9  10
HETATM   10  C           1     -21.811  -3.926  -8.927  0.00  0.00     0.003 C 
BRANCH  10  11
HETATM   11 Se           1     -23.741  -3.965  -9.195  0.00  0.00     0.000 Se
HETATM   12  C           1     -23.643  -4.780 -10.963  0.00  0.00     0.000 C 
ENDBRANCH  10  11
ENDBRANCH   9  10
ENDBRANCH   8   9
BRANCH   8  13
HETATM   13  N           1     -20.440  -5.863  -8.015  0.00  0.00    -0.067 N 
HETATM   14  H           1     -20.313  -5.308  -8.891  0.00  0.00     0.275 HD
HETATM   15  H           1     -19.548  -6.354  -7.781  0.00  0.00     0.275 HD
HETATM   16  H           1     -21.199  -6.569  -8.157  0.00  0.00     0.275 HD
ENDBRANCH   8  13
ENDBRANCH   1   8
BRANCH   3  17
HETATM   17  C           1     -21.773  -7.013  -2.789  0.00  0.00     0.196 C 
HETATM   18  O           1     -21.241  -7.786  -1.963  0.00  0.00    -0.646 OA
HETATM   19  O           1     -22.088  -5.853  -2.447  0.00  0.00    -0.646 OA
ENDBRANCH   3  17
TORSDOF 6
ENDMDL
MODEL 8
REMARK VINA RESULT:      -4.8      5.187      9.247
REMARK  6 active torsions:
REMARK  status: ('A' for Active; 'I' for Inactive)
REMARK    1  A    between atoms: C_1  and  C_2 
REMARK    2  A    between atoms: C_1  and  C_19 
REMARK    3  A    between atoms: C_1  and  N_15 
REMARK       I    between atoms: C_2  and  N_3 
REMARK    4  A    between atoms: C_4  and  C_6 
REMARK    5  A    between atoms: Se_17  and  C_18 
REMARK    6  A    between atoms: C_18  and  C_19 
ROOT
HETATM    1  C           1     -20.886  -8.129  -2.319  0.00  0.00     0.251 C 
HETATM    2  N           1     -21.381  -8.549  -1.114  0.00  0.00    -0.336 N 
HETATM    3  C           1     -20.756  -9.469  -0.167  0.00  0.00     0.188 C 
HETATM    4  C           1     -21.051  -8.848   1.188  0.00  0.00     0.038 C 
HETATM    5  C           1     -22.300  -8.002   0.974  0.00  0.00     0.022 C 
HETATM    6  C           1     -22.649  -8.174  -0.494  0.00  0.00     0.127 C 
HETATM    7  O           1     -19.814  -8.528  -2.704  0.00  0.00    -0.271 OA
ENDROOT
BRANCH   1   8
HETATM    8  C           1     -21.682  -7.167  -3.167  0.00  0.00     0.275 C 
BRANCH   8   9
HETATM    9  C           1     -21.122  -7.155  -4.583  0.00  0.00     0.042 C 
BRANCH   9  10
HETATM   10  C           1     -21.667  -5.948  -5.335  0.00  0.00     0.003 C 
BRANCH  10  11
HETATM   11 Se           1     -20.187  -4.833  -5.937  0.00  0.00     0.000 Se
HETATM   12  C           1     -21.262  -3.795  -7.188  0.00  0.00     0.000 C 
ENDBRANCH  10  11
ENDBRANCH   9  10
ENDBRANCH   8   9
BRANCH   8  13
HETATM   13  N           1     -21.590  -5.790  -2.582  0.00  0.00    -0.067 N 
HETATM   14  H           1     -22.491  -5.549  -2.111  0.00  0.00     0.275 HD
HETATM   15  H           1     -20.813  -5.760  -1.883  0.00  0.00     0.275 HD
HETATM   16  H           1     -21.400  -5.099  -3.343  0.00  0.00     0.275 HD
ENDBRANCH   8  13
ENDBRANCH   1   8
BRANCH   3  17
HETATM   17  C           1     -21.366 -10.845  -0.273  0.00  0.00     0.196 C 
HETATM   18  O           1     -21.539 -11.367  -1.395  0.00  0.00    -0.646 OA
HETATM   19  O           1     -21.700 -11.462   0.762  0.00  0.00    -0.646 OA
ENDBRANCH   3  17
TORSDOF 6
ENDMDL
MODEL 9
REMARK VINA RESULT:      -4.8      6.240      9.752
REMARK  6 active torsions:
REMARK  status: ('A' for Active; 'I' for Inactive)
REMARK    1  A    between atoms: C_1  and  C_2 
REMARK    2  A    between atoms: C_1  and  C_19 
REMARK    3  A    between atoms: C_1  and  N_15 
REMARK       I    between atoms: C_2  and  N_3 
REMARK    4  A    between atoms: C_4  and  C_6 
REMARK    5  A    between atoms: Se_17  and  C_18 
REMARK    6  A    between atoms: C_18  and  C_19 
ROOT
HETATM    1  C           1     -22.120  -8.163  -0.849  0.00  0.00     0.251 C 
HETATM    2  N           1     -22.406  -9.502  -0.857  0.00  0.00    -0.336 N 
HETATM    3  C           1     -22.655 -10.365   0.294  0.00  0.00     0.188 C 
HETATM    4  C           1     -23.803 -11.250  -0.160  0.00  0.00     0.038 C 
HETATM    5  C           1     -23.718 -11.263  -1.682  0.00  0.00     0.022 C 
HETATM    6  C           1     -22.531 -10.377  -2.019  0.00  0.00     0.127 C 
HETATM    7  O           1     -22.048  -7.567   0.198  0.00  0.00    -0.271 OA
ENDROOT
BRANCH   1   8
HETATM    8  C           1     -21.891  -7.433  -2.150  0.00  0.00     0.275 C 
BRANCH   8   9
HETATM    9  C           1     -20.406  -7.449  -2.488  0.00  0.00     0.042 C 
BRANCH   9  10
HETATM   10  C           1     -20.179  -8.290  -3.738  0.00  0.00     0.003 C 
BRANCH  10  11
HETATM   11 Se           1     -21.466  -7.780  -5.109  0.00  0.00     0.000 Se
HETATM   12  C           1     -20.319  -6.423  -5.911  0.00  0.00     0.000 C 
ENDBRANCH  10  11
ENDBRANCH   9  10
ENDBRANCH   8   9
BRANCH   8  13
HETATM   13  N           1     -22.357  -6.014  -2.015  0.00  0.00    -0.067 N 
HETATM   14  H           1     -21.804  -5.534  -1.268  0.00  0.00     0.275 HD
HETATM   15  H           1     -22.221  -5.515  -2.923  0.00  0.00     0.275 HD
HETATM   16  H           1     -23.370  -6.002  -1.759  0.00  0.00     0.275 HD
ENDBRANCH   8  13
ENDBRANCH   1   8
BRANCH   3  17
HETATM   17  C           1     -21.435 -11.191   0.620  0.00  0.00     0.196 C 
HETATM   18  O           1     -20.321 -10.638   0.741  0.00  0.00    -0.646 OA
HETATM   19  O           1     -21.539 -12.428   0.768  0.00  0.00    -0.646 OA
ENDBRANCH   3  17
TORSDOF 6
ENDMDL
