MODEL 1
REMARK VINA RESULT:      -6.2      0.000      0.000
REMARK  10 active torsions:
REMARK  status: ('A' for Active; 'I' for Inactive)
REMARK       I    between atoms: N_6  and  C_23 
REMARK    1  A    between atoms: C_7  and  C_20 
REMARK    2  A    between atoms: C_7  and  C_22 
REMARK    3  A    between atoms: Se_10  and  C_20 
REMARK    4  A    between atoms: N_13  and  C_15 
REMARK    5  A    between atoms: C_14  and  C_15 
REMARK    6  A    between atoms: C_14  and  C_24 
REMARK    7  A    between atoms: C_15  and  C_16 
REMARK       I    between atoms: C_16  and  N_17 
REMARK    8  A    between atoms: N_17  and  C_22 
REMARK    9  A    between atoms: C_18  and  C_22 
REMARK   10  A    between atoms: C_23  and  C_24 
ROOT
HETATM    1  C           1     -33.379  -2.395 -11.380  0.00  0.00     0.275 C 
ENDROOT
BRANCH   1   2
HETATM    2  N           1     -33.797  -2.070  -9.976  0.00  0.00    -0.066 N 
HETATM    3  H           1     -33.135  -2.517  -9.302  0.00  0.00     0.275 HD
HETATM    4  H           1     -33.784  -1.033  -9.841  0.00  0.00     0.275 HD
HETATM    5  H           1     -34.762  -2.432  -9.807  0.00  0.00     0.275 HD
ENDBRANCH   1   2
BRANCH   1   6
HETATM    6  C           1     -33.056  -3.881 -11.481  0.00  0.00     0.052 C 
BRANCH   6   7
HETATM    7  C           1     -33.962  -4.663 -10.537  0.00  0.00     0.105 C 
BRANCH   7   8
HETATM    8  C           1     -34.478  -5.894 -11.240  0.00  0.00     0.215 C 
HETATM    9  N           1     -34.828  -5.831 -12.563  0.00  0.00    -0.370 N 
HETATM   10  H           1     -35.174  -6.656 -13.035  0.00  0.00     0.159 HD
HETATM   11  H           1     -34.740  -4.957 -13.068  0.00  0.00     0.159 HD
HETATM   12  O           1     -34.583  -6.936 -10.637  0.00  0.00    -0.274 OA
ENDBRANCH   7   8
ENDBRANCH   6   7
ENDBRANCH   1   6
BRANCH   1  13
HETATM   13  C           1     -34.502  -2.057 -12.330  0.00  0.00     0.249 C 
HETATM   14  O           1     -34.709  -2.756 -13.293  0.00  0.00    -0.271 OA
HETATM   15  N           1     -35.285  -0.959 -12.100  0.00  0.00    -0.345 N 
HETATM   16  H           1     -35.111  -0.373 -11.293  0.00  0.00     0.163 HD
BRANCH  15  17
HETATM   17  C           1     -36.363  -0.634 -13.013  0.00  0.00     0.185 C 
BRANCH  17  18
HETATM   18  C           1     -37.556  -0.110 -12.223  0.00  0.00     0.036 C 
BRANCH  18  19
HETATM   19  C           1     -37.475  -0.610 -10.788  0.00  0.00     0.003 C 
BRANCH  19  20
HETATM   20 Se           1     -37.418   0.912  -9.571  0.00  0.00     0.000 Se
HETATM   21  C           1     -37.636  -0.160  -7.958  0.00  0.00     0.000 C 
ENDBRANCH  19  20
ENDBRANCH  18  19
ENDBRANCH  17  18
BRANCH  17  22
HETATM   22  C           1     -35.899   0.423 -13.984  0.00  0.00     0.196 C 
HETATM   23  O           1     -34.903   1.128 -13.712  0.00  0.00    -0.646 OA
HETATM   24  O           1     -36.512   0.595 -15.061  0.00  0.00    -0.646 OA
ENDBRANCH  17  22
ENDBRANCH  15  17
ENDBRANCH   1  13
TORSDOF 10
ENDMDL
MODEL 2
REMARK VINA RESULT:      -5.5     14.570     17.155
REMARK  10 active torsions:
REMARK  status: ('A' for Active; 'I' for Inactive)
REMARK       I    between atoms: N_6  and  C_23 
REMARK    1  A    between atoms: C_7  and  C_20 
REMARK    2  A    between atoms: C_7  and  C_22 
REMARK    3  A    between atoms: Se_10  and  C_20 
REMARK    4  A    between atoms: N_13  and  C_15 
REMARK    5  A    between atoms: C_14  and  C_15 
REMARK    6  A    between atoms: C_14  and  C_24 
REMARK    7  A    between atoms: C_15  and  C_16 
REMARK       I    between atoms: C_16  and  N_17 
REMARK    8  A    between atoms: N_17  and  C_22 
REMARK    9  A    between atoms: C_18  and  C_22 
REMARK   10  A    between atoms: C_23  and  C_24 
ROOT
HETATM    1  C           1     -20.475  -4.745  -6.535  0.00  0.00     0.275 C 
ENDROOT
BRANCH   1   2
HETATM    2  N           1     -19.820  -5.571  -7.602  0.00  0.00    -0.066 N 
HETATM    3  H           1     -20.081  -5.198  -8.543  0.00  0.00     0.275 HD
HETATM    4  H           1     -18.781  -5.528  -7.486  0.00  0.00     0.275 HD
HETATM    5  H           1     -20.138  -6.563  -7.520  0.00  0.00     0.275 HD
ENDBRANCH   1   2
BRANCH   1   6
HETATM    6  C           1     -21.321  -3.658  -7.186  0.00  0.00     0.052 C 
BRANCH   6   7
HETATM    7  C           1     -21.514  -3.980  -8.663  0.00  0.00     0.105 C 
BRANCH   7   8
HETATM    8  C           1     -22.969  -3.816  -9.027  0.00  0.00     0.215 C 
HETATM    9  N           1     -23.940  -4.046  -8.089  0.00  0.00    -0.370 N 
HETATM   10  H           1     -24.915  -3.937  -8.332  0.00  0.00     0.159 HD
HETATM   11  H           1     -23.680  -4.325  -7.151  0.00  0.00     0.159 HD
HETATM   12  O           1     -23.279  -3.484 -10.147  0.00  0.00    -0.274 OA
ENDBRANCH   7   8
ENDBRANCH   6   7
ENDBRANCH   1   6
BRANCH   1  13
HETATM   13  C           1     -21.355  -5.628  -5.685  0.00  0.00     0.249 C 
HETATM   14  O           1     -22.557  -5.535  -5.761  0.00  0.00    -0.271 OA
HETATM   15  N           1     -20.791  -6.534  -4.828  0.00  0.00    -0.345 N 
HETATM   16  H           1     -19.784  -6.611  -4.764  0.00  0.00     0.163 HD
BRANCH  15  17
HETATM   17  C           1     -21.637  -7.382  -4.011  0.00  0.00     0.185 C 
BRANCH  17  18
HETATM   18  C           1     -21.102  -8.808  -4.037  0.00  0.00     0.036 C 
BRANCH  18  19
HETATM   19  C           1     -19.743  -8.828  -4.721  0.00  0.00     0.003 C 
BRANCH  19  20
HETATM   20 Se           1     -18.394  -9.470  -3.468  0.00  0.00     0.000 Se
HETATM   21  C           1     -17.117  -9.981  -4.850  0.00  0.00     0.000 C 
ENDBRANCH  19  20
ENDBRANCH  18  19
ENDBRANCH  17  18
BRANCH  17  22
HETATM   22  C           1     -21.641  -6.871  -2.591  0.00  0.00     0.196 C 
HETATM   23  O           1     -20.914  -7.412  -1.730  0.00  0.00    -0.646 OA
HETATM   24  O           1     -22.372  -5.907  -2.276  0.00  0.00    -0.646 OA
ENDBRANCH  17  22
ENDBRANCH  15  17
ENDBRANCH   1  13
TORSDOF 10
ENDMDL
MODEL 3
REMARK VINA RESULT:      -5.4      1.871      2.145
REMARK  10 active torsions:
REMARK  status: ('A' for Active; 'I' for Inactive)
REMARK       I    between atoms: N_6  and  C_23 
REMARK    1  A    between atoms: C_7  and  C_20 
REMARK    2  A    between atoms: C_7  and  C_22 
REMARK    3  A    between atoms: Se_10  and  C_20 
REMARK    4  A    between atoms: N_13  and  C_15 
REMARK    5  A    between atoms: C_14  and  C_15 
REMARK    6  A    between atoms: C_14  and  C_24 
REMARK    7  A    between atoms: C_15  and  C_16 
REMARK       I    between atoms: C_16  and  N_17 
REMARK    8  A    between atoms: N_17  and  C_22 
REMARK    9  A    between atoms: C_18  and  C_22 
REMARK   10  A    between atoms: C_23  and  C_24 
ROOT
HETATM    1  C           1     -33.937  -4.253 -12.059  0.00  0.00     0.275 C 
ENDROOT
BRANCH   1   2
HETATM    2  N           1     -32.616  -3.751 -11.554  0.00  0.00    -0.066 N 
HETATM    3  H           1     -31.918  -4.528 -11.572  0.00  0.00     0.275 HD
HETATM    4  H           1     -32.284  -2.970 -12.166  0.00  0.00     0.275 HD
HETATM    5  H           1     -32.726  -3.403 -10.576  0.00  0.00     0.275 HD
ENDBRANCH   1   2
BRANCH   1   6
HETATM    6  C           1     -34.510  -5.255 -11.066  0.00  0.00     0.052 C 
BRANCH   6   7
HETATM    7  C           1     -33.545  -6.423 -10.908  0.00  0.00     0.105 C 
BRANCH   7   8
HETATM    8  C           1     -34.226  -7.540 -10.157  0.00  0.00     0.215 C 
HETATM    9  N           1     -33.697  -8.803 -10.180  0.00  0.00    -0.370 N 
HETATM   10  H           1     -34.153  -9.553  -9.676  0.00  0.00     0.159 HD
HETATM   11  H           1     -32.848  -8.986 -10.701  0.00  0.00     0.159 HD
HETATM   12  O           1     -35.239  -7.322  -9.535  0.00  0.00    -0.274 OA
ENDBRANCH   7   8
ENDBRANCH   6   7
ENDBRANCH   1   6
BRANCH   1  13
HETATM   13  C           1     -34.889  -3.092 -12.213  0.00  0.00     0.249 C 
HETATM   14  O           1     -35.840  -2.990 -11.475  0.00  0.00    -0.271 OA
HETATM   15  N           1     -34.676  -2.157 -13.189  0.00  0.00    -0.345 N 
HETATM   16  H           1     -33.881  -2.243 -13.808  0.00  0.00     0.163 HD
BRANCH  15  17
HETATM   17  C           1     -35.593  -1.043 -13.337  0.00  0.00     0.185 C 
BRANCH  17  18
HETATM   18  C           1     -35.011   0.187 -12.652  0.00  0.00     0.036 C 
BRANCH  18  19
HETATM   19  C           1     -35.794   0.479 -11.380  0.00  0.00     0.003 C 
BRANCH  19  20
HETATM   20 Se           1     -37.671   0.027 -11.654  0.00  0.00     0.000 Se
HETATM   21  C           1     -38.075  -0.151  -9.756  0.00  0.00     0.000 C 
ENDBRANCH  19  20
ENDBRANCH  18  19
ENDBRANCH  17  18
BRANCH  17  22
HETATM   22  C           1     -35.800  -0.753 -14.803  0.00  0.00     0.196 C 
HETATM   23  O           1     -36.393   0.290 -15.156  0.00  0.00    -0.646 OA
HETATM   24  O           1     -35.379  -1.555 -15.665  0.00  0.00    -0.646 OA
ENDBRANCH  17  22
ENDBRANCH  15  17
ENDBRANCH   1  13
TORSDOF 10
ENDMDL
MODEL 4
REMARK VINA RESULT:      -5.4     14.300     16.389
REMARK  10 active torsions:
REMARK  status: ('A' for Active; 'I' for Inactive)
REMARK       I    between atoms: N_6  and  C_23 
REMARK    1  A    between atoms: C_7  and  C_20 
REMARK    2  A    between atoms: C_7  and  C_22 
REMARK    3  A    between atoms: Se_10  and  C_20 
REMARK    4  A    between atoms: N_13  and  C_15 
REMARK    5  A    between atoms: C_14  and  C_15 
REMARK    6  A    between atoms: C_14  and  C_24 
REMARK    7  A    between atoms: C_15  and  C_16 
REMARK       I    between atoms: C_16  and  N_17 
REMARK    8  A    between atoms: N_17  and  C_22 
REMARK    9  A    between atoms: C_18  and  C_22 
REMARK   10  A    between atoms: C_23  and  C_24 
ROOT
HETATM    1  C           1     -21.293  -6.537  -2.810  0.00  0.00     0.275 C 
ENDROOT
BRANCH   1   2
HETATM    2  N           1     -22.345  -5.717  -2.124  0.00  0.00    -0.066 N 
HETATM    3  H           1     -23.290  -6.010  -2.461  0.00  0.00     0.275 HD
HETATM    4  H           1     -22.282  -5.866  -1.091  0.00  0.00     0.275 HD
HETATM    5  H           1     -22.196  -4.706  -2.340  0.00  0.00     0.275 HD
ENDBRANCH   1   2
BRANCH   1   6
HETATM    6  C           1     -21.344  -7.967  -2.288  0.00  0.00     0.052 C 
BRANCH   6   7
HETATM    7  C           1     -21.288  -7.954  -0.765  0.00  0.00     0.105 C 
BRANCH   7   8
HETATM    8  C           1     -22.620  -8.391  -0.209  0.00  0.00     0.215 C 
HETATM    9  N           1     -22.966  -9.716  -0.222  0.00  0.00    -0.370 N 
HETATM   10  H           1     -23.859 -10.010   0.151  0.00  0.00     0.159 HD
HETATM   11  H           1     -22.326 -10.402  -0.604  0.00  0.00     0.159 HD
HETATM   12  O           1     -23.384  -7.573   0.247  0.00  0.00    -0.274 OA
ENDBRANCH   7   8
ENDBRANCH   6   7
ENDBRANCH   1   6
BRANCH   1  13
HETATM   13  C           1     -21.545  -6.534  -4.298  0.00  0.00     0.249 C 
HETATM   14  O           1     -22.162  -7.439  -4.808  0.00  0.00    -0.271 OA
HETATM   15  N           1     -21.075  -5.505  -5.070  0.00  0.00    -0.345 N 
HETATM   16  H           1     -20.558  -4.748  -4.643  0.00  0.00     0.163 HD
BRANCH  15  17
HETATM   17  C           1     -21.317  -5.503  -6.499  0.00  0.00     0.185 C 
BRANCH  17  18
HETATM   18  C           1     -21.825  -4.132  -6.925  0.00  0.00     0.036 C 
BRANCH  18  19
HETATM   19  C           1     -23.099  -4.293  -7.742  0.00  0.00     0.003 C 
BRANCH  19  20
HETATM   20 Se           1     -22.742  -3.833  -9.603  0.00  0.00     0.000 Se
HETATM   21  C           1     -24.599  -3.423 -10.029  0.00  0.00     0.000 C 
ENDBRANCH  19  20
ENDBRANCH  18  19
ENDBRANCH  17  18
BRANCH  17  22
HETATM   22  C           1     -20.033  -5.814  -7.228  0.00  0.00     0.196 C 
HETATM   23  O           1     -19.569  -4.996  -8.052  0.00  0.00    -0.646 OA
HETATM   24  O           1     -19.434  -6.889  -7.009  0.00  0.00    -0.646 OA
ENDBRANCH  17  22
ENDBRANCH  15  17
ENDBRANCH   1  13
TORSDOF 10
ENDMDL
MODEL 5
REMARK VINA RESULT:      -5.3     14.134     16.689
REMARK  10 active torsions:
REMARK  status: ('A' for Active; 'I' for Inactive)
REMARK       I    between atoms: N_6  and  C_23 
REMARK    1  A    between atoms: C_7  and  C_20 
REMARK    2  A    between atoms: C_7  and  C_22 
REMARK    3  A    between atoms: Se_10  and  C_20 
REMARK    4  A    between atoms: N_13  and  C_15 
REMARK    5  A    between atoms: C_14  and  C_15 
REMARK    6  A    between atoms: C_14  and  C_24 
REMARK    7  A    between atoms: C_15  and  C_16 
REMARK       I    between atoms: C_16  and  N_17 
REMARK    8  A    between atoms: N_17  and  C_22 
REMARK    9  A    between atoms: C_18  and  C_22 
REMARK   10  A    between atoms: C_23  and  C_24 
ROOT
HETATM    1  C           1     -20.590  -4.679  -6.744  0.00  0.00     0.275 C 
ENDROOT
BRANCH   1   2
HETATM    2  N           1     -19.930  -5.482  -7.826  0.00  0.00    -0.066 N 
HETATM    3  H           1     -19.361  -6.245  -7.396  0.00  0.00     0.275 HD
HETATM    4  H           1     -20.663  -5.900  -8.444  0.00  0.00     0.275 HD
HETATM    5  H           1     -19.310  -4.861  -8.392  0.00  0.00     0.275 HD
ENDBRANCH   1   2
BRANCH   1   6
HETATM    6  C           1     -21.509  -3.640  -7.374  0.00  0.00     0.052 C 
BRANCH   6   7
HETATM    7  C           1     -21.660  -3.931  -8.862  0.00  0.00     0.105 C 
BRANCH   7   8
HETATM    8  C           1     -23.101  -3.741  -9.268  0.00  0.00     0.215 C 
HETATM    9  N           1     -24.103  -3.968  -8.362  0.00  0.00    -0.370 N 
HETATM   10  H           1     -25.069  -3.840  -8.633  0.00  0.00     0.159 HD
HETATM   11  H           1     -23.876  -4.262  -7.420  0.00  0.00     0.159 HD
HETATM   12  O           1     -23.372  -3.390 -10.392  0.00  0.00    -0.274 OA
ENDBRANCH   7   8
ENDBRANCH   6   7
ENDBRANCH   1   6
BRANCH   1  13
HETATM   13  C           1     -21.397  -5.596  -5.859  0.00  0.00     0.249 C 
HETATM   14  O           1     -22.604  -5.553  -5.885  0.00  0.00    -0.271 OA
HETATM   15  N           1     -20.762  -6.477  -5.026  0.00  0.00    -0.345 N 
HETATM   16  H           1     -19.751  -6.514  -5.004  0.00  0.00     0.163 HD
BRANCH  15  17
HETATM   17  C           1     -21.538  -7.358  -4.175  0.00  0.00     0.185 C 
BRANCH  17  18
HETATM   18  C           1     -20.883  -8.733  -4.137  0.00  0.00     0.036 C 
BRANCH  18  19
HETATM   19  C           1     -21.948  -9.798  -3.923  0.00  0.00     0.003 C 
BRANCH  19  20
HETATM   20 Se           1     -21.574 -10.773  -2.277  0.00  0.00     0.000 Se
HETATM   21  C           1     -22.415 -12.427  -2.871  0.00  0.00     0.000 C 
ENDBRANCH  19  20
ENDBRANCH  18  19
ENDBRANCH  17  18
BRANCH  17  22
HETATM   22  C           1     -21.595  -6.788  -2.780  0.00  0.00     0.196 C 
HETATM   23  O           1     -20.786  -7.180  -1.910  0.00  0.00    -0.646 OA
HETATM   24  O           1     -22.453  -5.925  -2.492  0.00  0.00    -0.646 OA
ENDBRANCH  17  22
ENDBRANCH  15  17
ENDBRANCH   1  13
TORSDOF 10
ENDMDL
MODEL 6
REMARK VINA RESULT:      -5.2     14.554     16.961
REMARK  10 active torsions:
REMARK  status: ('A' for Active; 'I' for Inactive)
REMARK       I    between atoms: N_6  and  C_23 
REMARK    1  A    between atoms: C_7  and  C_20 
REMARK    2  A    between atoms: C_7  and  C_22 
REMARK    3  A    between atoms: Se_10  and  C_20 
REMARK    4  A    between atoms: N_13  and  C_15 
REMARK    5  A    between atoms: C_14  and  C_15 
REMARK    6  A    between atoms: C_14  and  C_24 
REMARK    7  A    between atoms: C_15  and  C_16 
REMARK       I    between atoms: C_16  and  N_17 
REMARK    8  A    between atoms: N_17  and  C_22 
REMARK    9  A    between atoms: C_18  and  C_22 
REMARK   10  A    between atoms: C_23  and  C_24 
ROOT
HETATM    1  C           1     -21.569  -5.060  -7.623  0.00  0.00     0.275 C 
ENDROOT
BRANCH   1   2
HETATM    2  N           1     -22.828  -4.305  -7.316  0.00  0.00    -0.066 N 
HETATM    3  H           1     -23.199  -3.873  -8.192  0.00  0.00     0.275 HD
HETATM    4  H           1     -23.541  -4.962  -6.923  0.00  0.00     0.275 HD
HETATM    5  H           1     -22.624  -3.556  -6.617  0.00  0.00     0.275 HD
ENDBRANCH   1   2
BRANCH   1   6
HETATM    6  C           1     -20.566  -4.123  -8.284  0.00  0.00     0.052 C 
BRANCH   6   7
HETATM    7  C           1     -20.369  -4.536  -9.738  0.00  0.00     0.105 C 
BRANCH   7   8
HETATM    8  C           1     -21.229  -3.672 -10.627  0.00  0.00     0.215 C 
HETATM    9  N           1     -20.740  -3.223 -11.825  0.00  0.00    -0.370 N 
HETATM   10  H           1     -21.316  -2.644 -12.422  0.00  0.00     0.159 HD
HETATM   11  H           1     -19.802  -3.471 -12.114  0.00  0.00     0.159 HD
HETATM   12  O           1     -22.348  -3.375 -10.283  0.00  0.00    -0.274 OA
ENDBRANCH   7   8
ENDBRANCH   6   7
ENDBRANCH   1   6
BRANCH   1  13
HETATM   13  C           1     -20.984  -5.603  -6.342  0.00  0.00     0.249 C 
HETATM   14  O           1     -20.485  -4.851  -5.540  0.00  0.00    -0.271 OA
HETATM   15  N           1     -21.019  -6.948  -6.090  0.00  0.00    -0.345 N 
HETATM   16  H           1     -21.436  -7.578  -6.763  0.00  0.00     0.163 HD
BRANCH  15  17
HETATM   17  C           1     -20.456  -7.470  -4.860  0.00  0.00     0.185 C 
BRANCH  17  18
HETATM   18  C           1     -21.570  -7.686  -3.844  0.00  0.00     0.036 C 
BRANCH  18  19
HETATM   19  C           1     -21.256  -6.909  -2.573  0.00  0.00     0.003 C 
BRANCH  19  20
HETATM   20 Se           1     -20.986  -8.156  -1.099  0.00  0.00     0.000 Se
HETATM   21  C           1     -22.595  -7.624  -0.138  0.00  0.00     0.000 C 
ENDBRANCH  19  20
ENDBRANCH  18  19
ENDBRANCH  17  18
BRANCH  17  22
HETATM   22  C           1     -19.766  -8.782  -5.139  0.00  0.00     0.196 C 
HETATM   23  O           1     -18.636  -9.010  -4.655  0.00  0.00    -0.646 OA
HETATM   24  O           1     -20.324  -9.642  -5.856  0.00  0.00    -0.646 OA
ENDBRANCH  17  22
ENDBRANCH  15  17
ENDBRANCH   1  13
TORSDOF 10
ENDMDL
MODEL 7
REMARK VINA RESULT:      -5.0      3.006      4.052
REMARK  10 active torsions:
REMARK  status: ('A' for Active; 'I' for Inactive)
REMARK       I    between atoms: N_6  and  C_23 
REMARK    1  A    between atoms: C_7  and  C_20 
REMARK    2  A    between atoms: C_7  and  C_22 
REMARK    3  A    between atoms: Se_10  and  C_20 
REMARK    4  A    between atoms: N_13  and  C_15 
REMARK    5  A    between atoms: C_14  and  C_15 
REMARK    6  A    between atoms: C_14  and  C_24 
REMARK    7  A    between atoms: C_15  and  C_16 
REMARK       I    between atoms: C_16  and  N_17 
REMARK    8  A    between atoms: N_17  and  C_22 
REMARK    9  A    between atoms: C_18  and  C_22 
REMARK   10  A    between atoms: C_23  and  C_24 
ROOT
HETATM    1  C           1     -34.423  -1.547 -11.689  0.00  0.00     0.275 C 
ENDROOT
BRANCH   1   2
HETATM    2  N           1     -35.259  -1.420 -10.451  0.00  0.00    -0.066 N 
HETATM    3  H           1     -35.402  -0.409 -10.228  0.00  0.00     0.275 HD
HETATM    4  H           1     -36.187  -1.876 -10.609  0.00  0.00     0.275 HD
HETATM    5  H           1     -34.773  -1.887  -9.653  0.00  0.00     0.275 HD
ENDBRANCH   1   2
BRANCH   1   6
HETATM    6  C           1     -34.561  -2.956 -12.252  0.00  0.00     0.052 C 
BRANCH   6   7
HETATM    7  C           1     -34.066  -3.964 -11.222  0.00  0.00     0.105 C 
BRANCH   7   8
HETATM    8  C           1     -34.342  -5.363 -11.715  0.00  0.00     0.215 C 
HETATM    9  N           1     -33.699  -6.429 -11.145  0.00  0.00    -0.370 N 
HETATM   10  H           1     -33.884  -7.368 -11.475  0.00  0.00     0.159 HD
HETATM   11  H           1     -33.039  -6.278 -10.392  0.00  0.00     0.159 HD
HETATM   12  O           1     -35.130  -5.544 -12.614  0.00  0.00    -0.274 OA
ENDBRANCH   7   8
ENDBRANCH   6   7
ENDBRANCH   1   6
BRANCH   1  13
HETATM   13  C           1     -34.892  -0.545 -12.716  0.00  0.00     0.249 C 
HETATM   14  O           1     -34.893   0.634 -12.453  0.00  0.00    -0.271 OA
HETATM   15  N           1     -35.316  -0.973 -13.945  0.00  0.00    -0.345 N 
HETATM   16  H           1     -35.315  -1.961 -14.165  0.00  0.00     0.163 HD
BRANCH  15  17
HETATM   17  C           1     -35.767  -0.011 -14.931  0.00  0.00     0.185 C 
BRANCH  17  18
HETATM   18  C           1     -35.200  -0.379 -16.296  0.00  0.00     0.036 C 
BRANCH  18  19
HETATM   19  C           1     -35.523  -1.834 -16.605  0.00  0.00     0.003 C 
BRANCH  19  20
HETATM   20 Se           1     -33.877  -2.791 -17.027  0.00  0.00     0.000 Se
HETATM   21  C           1     -34.187  -4.223 -15.742  0.00  0.00     0.000 C 
ENDBRANCH  19  20
ENDBRANCH  18  19
ENDBRANCH  17  18
BRANCH  17  22
HETATM   22  C           1     -37.274  -0.021 -14.992  0.00  0.00     0.196 C 
HETATM   23  O           1     -37.872   0.706 -15.815  0.00  0.00    -0.646 OA
HETATM   24  O           1     -37.926  -0.755 -14.218  0.00  0.00    -0.646 OA
ENDBRANCH  17  22
ENDBRANCH  15  17
ENDBRANCH   1  13
TORSDOF 10
ENDMDL
MODEL 8
REMARK VINA RESULT:      -4.9     14.287     16.525
REMARK  10 active torsions:
REMARK  status: ('A' for Active; 'I' for Inactive)
REMARK       I    between atoms: N_6  and  C_23 
REMARK    1  A    between atoms: C_7  and  C_20 
REMARK    2  A    between atoms: C_7  and  C_22 
REMARK    3  A    between atoms: Se_10  and  C_20 
REMARK    4  A    between atoms: N_13  and  C_15 
REMARK    5  A    between atoms: C_14  and  C_15 
REMARK    6  A    between atoms: C_14  and  C_24 
REMARK    7  A    between atoms: C_15  and  C_16 
REMARK       I    between atoms: C_16  and  N_17 
REMARK    8  A    between atoms: N_17  and  C_22 
REMARK    9  A    between atoms: C_18  and  C_22 
REMARK   10  A    between atoms: C_23  and  C_24 
ROOT
HETATM    1  C           1     -21.713  -4.177  -7.579  0.00  0.00     0.275 C 
ENDROOT
BRANCH   1   2
HETATM    2  N           1     -20.238  -4.022  -7.355  0.00  0.00    -0.066 N 
HETATM    3  H           1     -19.968  -4.498  -6.464  0.00  0.00     0.275 HD
HETATM    4  H           1     -19.718  -4.456  -8.152  0.00  0.00     0.275 HD
HETATM    5  H           1     -19.999  -3.007  -7.294  0.00  0.00     0.275 HD
ENDBRANCH   1   2
BRANCH   1   6
HETATM    6  C           1     -21.954  -4.823  -8.938  0.00  0.00     0.052 C 
BRANCH   6   7
HETATM    7  C           1     -22.528  -3.788  -9.897  0.00  0.00     0.105 C 
BRANCH   7   8
HETATM    8  C           1     -21.513  -3.478 -10.969  0.00  0.00     0.215 C 
HETATM    9  N           1     -20.386  -4.246 -11.087  0.00  0.00    -0.370 N 
HETATM   10  H           1     -19.704  -4.039 -11.806  0.00  0.00     0.159 HD
HETATM   11  H           1     -20.235  -5.023 -10.455  0.00  0.00     0.159 HD
HETATM   12  O           1     -21.693  -2.551 -11.723  0.00  0.00    -0.274 OA
ENDBRANCH   7   8
ENDBRANCH   6   7
ENDBRANCH   1   6
BRANCH   1  13
HETATM   13  C           1     -22.297  -5.050  -6.495  0.00  0.00     0.249 C 
HETATM   14  O           1     -23.481  -5.011  -6.260  0.00  0.00    -0.271 OA
HETATM   15  N           1     -21.484  -5.885  -5.777  0.00  0.00    -0.345 N 
HETATM   16  H           1     -20.492  -5.918  -5.973  0.00  0.00     0.163 HD
BRANCH  15  17
HETATM   17  C           1     -22.045  -6.723  -4.735  0.00  0.00     0.185 C 
BRANCH  17  18
HETATM   18  C           1     -21.409  -8.105  -4.798  0.00  0.00     0.036 C 
BRANCH  18  19
HETATM   19  C           1     -19.977  -7.984  -5.300  0.00  0.00     0.003 C 
BRANCH  19  20
HETATM   20 Se           1     -18.871  -9.344  -4.446  0.00  0.00     0.000 Se
HETATM   21  C           1     -19.558  -9.010  -2.653  0.00  0.00     0.000 C 
ENDBRANCH  19  20
ENDBRANCH  18  19
ENDBRANCH  17  18
BRANCH  17  22
HETATM   22  C           1     -21.770  -6.103  -3.388  0.00  0.00     0.196 C 
HETATM   23  O           1     -22.616  -6.196  -2.472  0.00  0.00    -0.646 OA
HETATM   24  O           1     -20.696  -5.494  -3.187  0.00  0.00    -0.646 OA
ENDBRANCH  17  22
ENDBRANCH  15  17
ENDBRANCH   1  13
TORSDOF 10
ENDMDL
MODEL 9
REMARK VINA RESULT:      -4.7     15.874     18.011
REMARK  10 active torsions:
REMARK  status: ('A' for Active; 'I' for Inactive)
REMARK       I    between atoms: N_6  and  C_23 
REMARK    1  A    between atoms: C_7  and  C_20 
REMARK    2  A    between atoms: C_7  and  C_22 
REMARK    3  A    between atoms: Se_10  and  C_20 
REMARK    4  A    between atoms: N_13  and  C_15 
REMARK    5  A    between atoms: C_14  and  C_15 
REMARK    6  A    between atoms: C_14  and  C_24 
REMARK    7  A    between atoms: C_15  and  C_16 
REMARK       I    between atoms: C_16  and  N_17 
REMARK    8  A    between atoms: N_17  and  C_22 
REMARK    9  A    between atoms: C_18  and  C_22 
REMARK   10  A    between atoms: C_23  and  C_24 
ROOT
HETATM    1  C           1     -21.616  -6.863  -5.459  0.00  0.00     0.275 C 
ENDROOT
BRANCH   1   2
HETATM    2  N           1     -21.981  -5.999  -4.288  0.00  0.00    -0.066 N 
HETATM    3  H           1     -21.276  -5.234  -4.186  0.00  0.00     0.275 HD
HETATM    4  H           1     -22.927  -5.582  -4.446  0.00  0.00     0.275 HD
HETATM    5  H           1     -21.996  -6.578  -3.419  0.00  0.00     0.275 HD
ENDBRANCH   1   2
BRANCH   1   6
HETATM    6  C           1     -20.439  -6.240  -6.200  0.00  0.00     0.052 C 
BRANCH   6   7
HETATM    7  C           1     -20.401  -4.742  -5.925  0.00  0.00     0.105 C 
BRANCH   7   8
HETATM    8  C           1     -20.739  -3.990  -7.189  0.00  0.00     0.215 C 
HETATM    9  N           1     -22.011  -3.522  -7.388  0.00  0.00    -0.370 N 
HETATM   10  H           1     -22.238  -3.017  -8.234  0.00  0.00     0.159 HD
HETATM   11  H           1     -22.723  -3.680  -6.686  0.00  0.00     0.159 HD
HETATM   12  O           1     -19.889  -3.801  -8.026  0.00  0.00    -0.274 OA
ENDBRANCH   7   8
ENDBRANCH   6   7
ENDBRANCH   1   6
BRANCH   1  13
HETATM   13  C           1     -21.233  -8.238  -4.968  0.00  0.00     0.249 C 
HETATM   14  O           1     -20.672  -9.009  -5.710  0.00  0.00    -0.271 OA
HETATM   15  N           1     -21.522  -8.611  -3.683  0.00  0.00    -0.345 N 
HETATM   16  H           1     -21.992  -7.965  -3.063  0.00  0.00     0.163 HD
BRANCH  15  17
HETATM   17  C           1     -21.154  -9.932  -3.213  0.00  0.00     0.185 C 
BRANCH  17  18
HETATM   18  C           1     -20.501  -9.818  -1.842  0.00  0.00     0.036 C 
BRANCH  18  19
HETATM   19  C           1     -20.673  -8.402  -1.312  0.00  0.00     0.003 C 
BRANCH  19  20
HETATM   20 Se           1     -21.483  -8.464   0.461  0.00  0.00     0.000 Se
HETATM   21  C           1     -20.927 -10.296   0.829  0.00  0.00     0.000 C 
ENDBRANCH  19  20
ENDBRANCH  18  19
ENDBRANCH  17  18
BRANCH  17  22
HETATM   22  C           1     -22.390 -10.792  -3.113  0.00  0.00     0.196 C 
HETATM   23  O           1     -23.033 -10.841  -2.042  0.00  0.00    -0.646 OA
HETATM   24  O           1     -22.770 -11.458  -4.101  0.00  0.00    -0.646 OA
ENDBRANCH  17  22
ENDBRANCH  15  17
ENDBRANCH   1  13
TORSDOF 10
ENDMDL
