MODEL 1
REMARK VINA RESULT:      -5.5      0.000      0.000
REMARK  6 active torsions:
REMARK  status: ('A' for Active; 'I' for Inactive)
REMARK    1  A    between atoms: C_1  and  C_4 
REMARK    2  A    between atoms: C_1  and  C_9 
REMARK       I    between atoms: N_2  and  C_3 
REMARK    3  A    between atoms: C_3  and  C_4 
REMARK    4  A    between atoms: C_4  and  N_15 
REMARK    5  A    between atoms: C_9  and  S_14 
REMARK    6  A    between atoms: C_16  and  C_18 
ROOT
HETATM    1  N           1     -36.137   0.133 -13.516  0.00  0.00    -0.336 N 
HETATM    2  C           1     -36.984  -0.281 -12.525  0.00  0.00     0.251 C 
HETATM    3  C           1     -34.745   1.807 -14.390  0.00  0.00     0.022 C 
HETATM    4  C           1     -34.794   0.689 -13.363  0.00  0.00     0.127 C 
HETATM    5  O           1     -38.073  -0.722 -12.807  0.00  0.00    -0.271 OA
HETATM    6  C           1     -35.790   1.434 -15.436  0.00  0.00     0.038 C 
HETATM    7  C           1     -36.377   0.117 -14.956  0.00  0.00     0.188 C 
ENDROOT
BRANCH   2   8
HETATM    8  C           1     -36.559  -0.188 -11.080  0.00  0.00     0.275 C 
BRANCH   8   9
HETATM    9  C           1     -36.295  -1.586 -10.536  0.00  0.00     0.053 C 
BRANCH   9  10
HETATM   10  C           1     -34.850  -1.976 -10.816  0.00  0.00     0.076 C 
BRANCH  10  11
HETATM   11  S           1     -34.808  -3.572 -11.678  0.00  0.00    -0.173 SA
HETATM   12  C           1     -33.007  -3.785 -11.620  0.00  0.00     0.089 C 
ENDBRANCH  10  11
ENDBRANCH   9  10
ENDBRANCH   8   9
BRANCH   8  13
HETATM   13  N           1     -37.649   0.461 -10.280  0.00  0.00    -0.066 N 
HETATM   14  H           1     -37.501   1.496 -10.263  0.00  0.00     0.275 HD
HETATM   15  H           1     -38.574   0.251 -10.718  0.00  0.00     0.275 HD
HETATM   16  H           1     -37.633   0.091  -9.303  0.00  0.00     0.275 HD
ENDBRANCH   8  13
ENDBRANCH   2   8
BRANCH   7  17
HETATM   17  C           1     -35.676  -1.051 -15.604  0.00  0.00     0.196 C 
HETATM   18  O           1     -35.630  -1.140 -16.850  0.00  0.00    -0.646 OA
HETATM   19  O           1     -35.140  -1.930 -14.895  0.00  0.00    -0.646 OA
ENDBRANCH   7  17
TORSDOF 6
ENDMDL
MODEL 2
REMARK VINA RESULT:      -5.5      9.449     11.365
REMARK  6 active torsions:
REMARK  status: ('A' for Active; 'I' for Inactive)
REMARK    1  A    between atoms: C_1  and  C_4 
REMARK    2  A    between atoms: C_1  and  C_9 
REMARK       I    between atoms: N_2  and  C_3 
REMARK    3  A    between atoms: C_3  and  C_4 
REMARK    4  A    between atoms: C_4  and  N_15 
REMARK    5  A    between atoms: C_9  and  S_14 
REMARK    6  A    between atoms: C_16  and  C_18 
ROOT
HETATM    1  N           1     -28.483  -6.029 -16.706  0.00  0.00    -0.336 N 
HETATM    2  C           1     -27.412  -6.586 -16.062  0.00  0.00     0.251 C 
HETATM    3  C           1     -29.560  -4.103 -17.501  0.00  0.00     0.022 C 
HETATM    4  C           1     -28.457  -5.094 -17.829  0.00  0.00     0.127 C 
HETATM    5  O           1     -27.591  -7.349 -15.142  0.00  0.00    -0.271 OA
HETATM    6  C           1     -30.507  -4.853 -16.571  0.00  0.00     0.038 C 
HETATM    7  C           1     -29.900  -6.238 -16.422  0.00  0.00     0.188 C 
ENDROOT
BRANCH   2   8
HETATM    8  C           1     -26.008  -6.249 -16.500  0.00  0.00     0.275 C 
BRANCH   8   9
HETATM    9  C           1     -25.820  -6.648 -17.958  0.00  0.00     0.053 C 
BRANCH   9  10
HETATM   10  C           1     -24.374  -7.064 -18.189  0.00  0.00     0.076 C 
BRANCH  10  11
HETATM   11  S           1     -24.142  -7.507 -19.934  0.00  0.00    -0.173 SA
HETATM   12  C           1     -25.779  -6.966 -20.499  0.00  0.00     0.089 C 
ENDBRANCH  10  11
ENDBRANCH   9  10
ENDBRANCH   8   9
BRANCH   8  13
HETATM   13  N           1     -25.026  -6.997 -15.648  0.00  0.00    -0.066 N 
HETATM   14  H           1     -25.287  -6.892 -14.641  0.00  0.00     0.275 HD
HETATM   15  H           1     -25.042  -8.009 -15.907  0.00  0.00     0.275 HD
HETATM   16  H           1     -24.067  -6.612 -15.801  0.00  0.00     0.275 HD
ENDBRANCH   8  13
ENDBRANCH   2   8
BRANCH   7  17
HETATM   17  C           1     -30.509  -7.201 -17.411  0.00  0.00     0.196 C 
HETATM   18  O           1     -29.841  -8.170 -17.832  0.00  0.00    -0.646 OA
HETATM   19  O           1     -31.682  -7.031 -17.808  0.00  0.00    -0.646 OA
ENDBRANCH   7  17
TORSDOF 6
ENDMDL
MODEL 3
REMARK VINA RESULT:      -4.9     15.036     17.792
REMARK  6 active torsions:
REMARK  status: ('A' for Active; 'I' for Inactive)
REMARK    1  A    between atoms: C_1  and  C_4 
REMARK    2  A    between atoms: C_1  and  C_9 
REMARK       I    between atoms: N_2  and  C_3 
REMARK    3  A    between atoms: C_3  and  C_4 
REMARK    4  A    between atoms: C_4  and  N_15 
REMARK    5  A    between atoms: C_9  and  S_14 
REMARK    6  A    between atoms: C_16  and  C_18 
ROOT
HETATM    1  N           1     -21.003  -6.975  -5.247  0.00  0.00    -0.336 N 
HETATM    2  C           1     -20.637  -6.305  -6.383  0.00  0.00     0.251 C 
HETATM    3  C           1     -21.554  -6.900  -2.968  0.00  0.00     0.022 C 
HETATM    4  C           1     -22.123  -6.672  -4.358  0.00  0.00     0.127 C 
HETATM    5  O           1     -19.679  -6.675  -7.019  0.00  0.00    -0.271 OA
HETATM    6  C           1     -20.390  -7.865  -3.166  0.00  0.00     0.038 C 
HETATM    7  C           1     -20.360  -8.146  -4.658  0.00  0.00     0.188 C 
ENDROOT
BRANCH   2   8
HETATM    8  C           1     -21.429  -5.105  -6.840  0.00  0.00     0.275 C 
BRANCH   8   9
HETATM    9  C           1     -21.693  -5.210  -8.337  0.00  0.00     0.053 C 
BRANCH   9  10
HETATM   10  C           1     -22.579  -4.053  -8.779  0.00  0.00     0.076 C 
BRANCH  10  11
HETATM   11  S           1     -22.251  -3.669 -10.522  0.00  0.00    -0.173 SA
HETATM   12  C           1     -23.542  -4.742 -11.211  0.00  0.00     0.089 C 
ENDBRANCH  10  11
ENDBRANCH   9  10
ENDBRANCH   8   9
BRANCH   8  13
HETATM   13  N           1     -20.650  -3.855  -6.557  0.00  0.00    -0.066 N 
HETATM   14  H           1     -20.033  -4.009  -5.727  0.00  0.00     0.275 HD
HETATM   15  H           1     -20.063  -3.616  -7.387  0.00  0.00     0.275 HD
HETATM   16  H           1     -21.310  -3.070  -6.357  0.00  0.00     0.275 HD
ENDBRANCH   8  13
ENDBRANCH   2   8
BRANCH   7  17
HETATM   17  C           1     -21.130  -9.402  -4.985  0.00  0.00     0.196 C 
HETATM   18  O           1     -21.243  -9.775  -6.172  0.00  0.00    -0.646 OA
HETATM   19  O           1     -21.654 -10.070  -4.067  0.00  0.00    -0.646 OA
ENDBRANCH   7  17
TORSDOF 6
ENDMDL
MODEL 4
REMARK VINA RESULT:      -4.9     18.613     20.589
REMARK  6 active torsions:
REMARK  status: ('A' for Active; 'I' for Inactive)
REMARK    1  A    between atoms: C_1  and  C_4 
REMARK    2  A    between atoms: C_1  and  C_9 
REMARK       I    between atoms: N_2  and  C_3 
REMARK    3  A    between atoms: C_3  and  C_4 
REMARK    4  A    between atoms: C_4  and  N_15 
REMARK    5  A    between atoms: C_9  and  S_14 
REMARK    6  A    between atoms: C_16  and  C_18 
ROOT
HETATM    1  N           1     -22.398  -9.473  -0.816  0.00  0.00    -0.336 N 
HETATM    2  C           1     -22.115  -8.134  -0.822  0.00  0.00     0.251 C 
HETATM    3  C           1     -23.749 -11.236  -1.570  0.00  0.00     0.022 C 
HETATM    4  C           1     -22.585 -10.347  -1.973  0.00  0.00     0.127 C 
HETATM    5  O           1     -21.988  -7.540   0.223  0.00  0.00    -0.271 OA
HETATM    6  C           1     -23.750 -11.227  -0.046  0.00  0.00     0.038 C 
HETATM    7  C           1     -22.581 -10.339   0.345  0.00  0.00     0.188 C 
ENDROOT
BRANCH   2   8
HETATM    8  C           1     -21.961  -7.400  -2.131  0.00  0.00     0.275 C 
BRANCH   8   9
HETATM    9  C           1     -20.503  -7.447  -2.572  0.00  0.00     0.053 C 
BRANCH   9  10
HETATM   10  C           1     -20.390  -8.233  -3.871  0.00  0.00     0.076 C 
BRANCH  10  11
HETATM   11  S           1     -21.508  -7.520  -5.110  0.00  0.00    -0.173 SA
HETATM   12  C           1     -20.672  -5.914  -5.236  0.00  0.00     0.089 C 
ENDBRANCH  10  11
ENDBRANCH   9  10
ENDBRANCH   8   9
BRANCH   8  13
HETATM   13  N           1     -22.383  -5.972  -1.955  0.00  0.00    -0.066 N 
HETATM   14  H           1     -22.075  -5.630  -1.017  0.00  0.00     0.275 HD
HETATM   15  H           1     -21.945  -5.385  -2.700  0.00  0.00     0.275 HD
HETATM   16  H           1     -23.424  -5.905  -2.024  0.00  0.00     0.275 HD
ENDBRANCH   8  13
ENDBRANCH   2   8
BRANCH   7  17
HETATM   17  C           1     -21.342 -11.162   0.600  0.00  0.00     0.196 C 
HETATM   18  O           1     -21.433 -12.402   0.735  0.00  0.00    -0.646 OA
HETATM   19  O           1     -20.226 -10.605   0.675  0.00  0.00    -0.646 OA
ENDBRANCH   7  17
TORSDOF 6
ENDMDL
MODEL 5
REMARK VINA RESULT:      -4.9     17.662     20.329
REMARK  6 active torsions:
REMARK  status: ('A' for Active; 'I' for Inactive)
REMARK    1  A    between atoms: C_1  and  C_4 
REMARK    2  A    between atoms: C_1  and  C_9 
REMARK       I    between atoms: N_2  and  C_3 
REMARK    3  A    between atoms: C_3  and  C_4 
REMARK    4  A    between atoms: C_4  and  N_15 
REMARK    5  A    between atoms: C_9  and  S_14 
REMARK    6  A    between atoms: C_16  and  C_18 
ROOT
HETATM    1  N           1     -21.374  -8.536  -1.137  0.00  0.00    -0.336 N 
HETATM    2  C           1     -20.855  -8.118  -2.332  0.00  0.00     0.251 C 
HETATM    3  C           1     -22.330  -7.984   0.932  0.00  0.00     0.022 C 
HETATM    4  C           1     -22.653  -8.155  -0.542  0.00  0.00     0.127 C 
HETATM    5  O           1     -19.775  -8.521  -2.695  0.00  0.00    -0.271 OA
HETATM    6  C           1     -21.089  -8.837   1.171  0.00  0.00     0.038 C 
HETATM    7  C           1     -20.772  -9.458  -0.179  0.00  0.00     0.188 C 
ENDROOT
BRANCH   2   8
HETATM    8  C           1     -21.630  -7.153  -3.196  0.00  0.00     0.275 C 
BRANCH   8   9
HETATM    9  C           1     -20.992  -7.083  -4.578  0.00  0.00     0.053 C 
BRANCH   9  10
HETATM   10  C           1     -21.563  -5.895  -5.341  0.00  0.00     0.076 C 
BRANCH  10  11
HETATM   11  S           1     -20.205  -4.841  -5.925  0.00  0.00    -0.173 SA
HETATM   12  C           1     -21.198  -3.859  -7.084  0.00  0.00     0.089 C 
ENDBRANCH  10  11
ENDBRANCH   9  10
ENDBRANCH   8   9
BRANCH   8  13
HETATM   13  N           1     -21.607  -5.792  -2.567  0.00  0.00    -0.066 N 
HETATM   14  H           1     -20.654  -5.600  -2.183  0.00  0.00     0.275 HD
HETATM   15  H           1     -21.843  -5.072  -3.287  0.00  0.00     0.275 HD
HETATM   16  H           1     -22.308  -5.754  -1.792  0.00  0.00     0.275 HD
ENDBRANCH   8  13
ENDBRANCH   2   8
BRANCH   7  17
HETATM   17  C           1     -21.386 -10.831  -0.297  0.00  0.00     0.196 C 
HETATM   18  O           1     -21.735 -11.450   0.732  0.00  0.00    -0.646 OA
HETATM   19  O           1     -21.546 -11.350  -1.423  0.00  0.00    -0.646 OA
ENDBRANCH   7  17
TORSDOF 6
ENDMDL
MODEL 6
REMARK VINA RESULT:      -4.8     19.981     21.464
REMARK  6 active torsions:
REMARK  status: ('A' for Active; 'I' for Inactive)
REMARK    1  A    between atoms: C_1  and  C_4 
REMARK    2  A    between atoms: C_1  and  C_9 
REMARK       I    between atoms: N_2  and  C_3 
REMARK    3  A    between atoms: C_3  and  C_4 
REMARK    4  A    between atoms: C_4  and  N_15 
REMARK    5  A    between atoms: C_9  and  S_14 
REMARK    6  A    between atoms: C_16  and  C_18 
ROOT
HETATM    1  N           1     -21.207  -9.682  -0.694  0.00  0.00    -0.336 N 
HETATM    2  C           1     -20.949 -10.639   0.249  0.00  0.00     0.251 C 
HETATM    3  C           1     -20.886  -8.884  -2.877  0.00  0.00     0.022 C 
HETATM    4  C           1     -21.685  -9.885  -2.060  0.00  0.00     0.127 C 
HETATM    5  O           1     -20.554 -10.317   1.344  0.00  0.00    -0.271 OA
HETATM    6  C           1     -20.472  -7.801  -1.887  0.00  0.00     0.038 C 
HETATM    7  C           1     -21.064  -8.235  -0.556  0.00  0.00     0.188 C 
ENDROOT
BRANCH   2   8
HETATM    8  C           1     -21.158 -12.097  -0.079  0.00  0.00     0.275 C 
BRANCH   8   9
HETATM    9  C           1     -21.946 -12.763   1.042  0.00  0.00     0.053 C 
BRANCH   9  10
HETATM   10  C           1     -23.433 -12.709   0.720  0.00  0.00     0.076 C 
BRANCH  10  11
HETATM   11  S           1     -23.678 -12.983  -1.058  0.00  0.00    -0.173 SA
HETATM   12  C           1     -24.386 -14.648  -0.909  0.00  0.00     0.089 C 
ENDBRANCH  10  11
ENDBRANCH   9  10
ENDBRANCH   8   9
BRANCH   8  13
HETATM   13  N           1     -19.826 -12.772  -0.222  0.00  0.00    -0.066 N 
HETATM   14  H           1     -19.624 -13.330   0.639  0.00  0.00     0.275 HD
HETATM   15  H           1     -19.846 -13.407  -1.051  0.00  0.00     0.275 HD
HETATM   16  H           1     -19.082 -12.051  -0.351  0.00  0.00     0.275 HD
ENDBRANCH   8  13
ENDBRANCH   2   8
BRANCH   7  17
HETATM   17  C           1     -22.404  -7.583  -0.325  0.00  0.00     0.196 C 
HETATM   18  O           1     -23.178  -8.036   0.545  0.00  0.00    -0.646 OA
HETATM   19  O           1     -22.740  -6.588  -1.003  0.00  0.00    -0.646 OA
ENDBRANCH   7  17
TORSDOF 6
ENDMDL
MODEL 7
REMARK VINA RESULT:      -4.7     18.660     20.722
REMARK  6 active torsions:
REMARK  status: ('A' for Active; 'I' for Inactive)
REMARK    1  A    between atoms: C_1  and  C_4 
REMARK    2  A    between atoms: C_1  and  C_9 
REMARK       I    between atoms: N_2  and  C_3 
REMARK    3  A    between atoms: C_3  and  C_4 
REMARK    4  A    between atoms: C_4  and  N_15 
REMARK    5  A    between atoms: C_9  and  S_14 
REMARK    6  A    between atoms: C_16  and  C_18 
ROOT
HETATM    1  N           1     -21.114  -9.174  -1.185  0.00  0.00    -0.336 N 
HETATM    2  C           1     -19.975  -9.710  -1.721  0.00  0.00     0.251 C 
HETATM    3  C           1     -22.204  -7.326  -0.238  0.00  0.00     0.022 C 
HETATM    4  C           1     -21.775  -7.927  -1.565  0.00  0.00     0.127 C 
HETATM    5  O           1     -19.544 -10.757  -1.300  0.00  0.00    -0.271 OA
HETATM    6  C           1     -22.304  -8.506   0.722  0.00  0.00     0.038 C 
HETATM    7  C           1     -21.935  -9.723  -0.109  0.00  0.00     0.188 C 
ENDROOT
BRANCH   2   8
HETATM    8  C           1     -19.256  -8.993  -2.837  0.00  0.00     0.275 C 
BRANCH   8   9
HETATM    9  C           1     -19.870  -9.389  -4.174  0.00  0.00     0.053 C 
BRANCH   9  10
HETATM   10  C           1     -19.827  -8.200  -5.125  0.00  0.00     0.076 C 
BRANCH  10  11
HETATM   11  S           1     -21.486  -7.476  -5.267  0.00  0.00    -0.173 SA
HETATM   12  C           1     -20.971  -5.750  -5.048  0.00  0.00     0.089 C 
ENDBRANCH  10  11
ENDBRANCH   9  10
ENDBRANCH   8   9
BRANCH   8  13
HETATM   13  N           1     -17.806  -9.373  -2.822  0.00  0.00    -0.066 N 
HETATM   14  H           1     -17.619 -10.005  -2.011  0.00  0.00     0.275 HD
HETATM   15  H           1     -17.566  -9.868  -3.711  0.00  0.00     0.275 HD
HETATM   16  H           1     -17.220  -8.512  -2.733  0.00  0.00     0.275 HD
ENDBRANCH   8  13
ENDBRANCH   2   8
BRANCH   7  17
HETATM   17  C           1     -23.169 -10.391  -0.663  0.00  0.00     0.196 C 
HETATM   18  O           1     -23.140 -10.916  -1.798  0.00  0.00    -0.646 OA
HETATM   19  O           1     -24.220 -10.421   0.012  0.00  0.00    -0.646 OA
ENDBRANCH   7  17
TORSDOF 6
ENDMDL
MODEL 8
REMARK VINA RESULT:      -4.7     17.938     19.798
REMARK  6 active torsions:
REMARK  status: ('A' for Active; 'I' for Inactive)
REMARK    1  A    between atoms: C_1  and  C_4 
REMARK    2  A    between atoms: C_1  and  C_9 
REMARK       I    between atoms: N_2  and  C_3 
REMARK    3  A    between atoms: C_3  and  C_4 
REMARK    4  A    between atoms: C_4  and  N_15 
REMARK    5  A    between atoms: C_9  and  S_14 
REMARK    6  A    between atoms: C_16  and  C_18 
ROOT
HETATM    1  N           1     -21.049  -8.513  -3.046  0.00  0.00    -0.336 N 
HETATM    2  C           1     -20.679  -8.764  -1.753  0.00  0.00     0.251 C 
HETATM    3  C           1     -21.107  -9.213  -5.284  0.00  0.00     0.022 C 
HETATM    4  C           1     -21.798  -9.390  -3.943  0.00  0.00     0.127 C 
HETATM    5  O           1     -20.056  -7.936  -1.132  0.00  0.00    -0.271 OA
HETATM    6  C           1     -20.434  -7.847  -5.209  0.00  0.00     0.038 C 
HETATM    7  C           1     -20.783  -7.310  -3.831  0.00  0.00     0.188 C 
ENDROOT
BRANCH   2   8
HETATM    8  C           1     -21.048 -10.075  -1.103  0.00  0.00     0.275 C 
BRANCH   8   9
HETATM    9  C           1     -21.813  -9.806   0.186  0.00  0.00     0.053 C 
BRANCH   9  10
HETATM   10  C           1     -23.308  -9.799  -0.103  0.00  0.00     0.076 C 
BRANCH  10  11
HETATM   11  S           1     -23.760 -11.312  -0.998  0.00  0.00    -0.173 SA
HETATM   12  C           1     -23.446 -12.459   0.372  0.00  0.00     0.089 C 
ENDBRANCH  10  11
ENDBRANCH   9  10
ENDBRANCH   8   9
BRANCH   8  13
HETATM   13  N           1     -19.800 -10.846  -0.791  0.00  0.00    -0.066 N 
HETATM   14  H           1     -19.016 -10.180  -0.603  0.00  0.00     0.275 HD
HETATM   15  H           1     -19.960 -11.441   0.052  0.00  0.00     0.275 HD
HETATM   16  H           1     -19.551 -11.452  -1.605  0.00  0.00     0.275 HD
ENDBRANCH   8  13
ENDBRANCH   2   8
BRANCH   7  17
HETATM   17  C           1     -22.004  -6.426  -3.891  0.00  0.00     0.196 C 
HETATM   18  O           1     -22.491  -6.107  -4.997  0.00  0.00    -0.646 OA
HETATM   19  O           1     -22.529  -6.014  -2.834  0.00  0.00    -0.646 OA
ENDBRANCH   7  17
TORSDOF 6
ENDMDL
MODEL 9
REMARK VINA RESULT:      -4.4     20.002     21.323
REMARK  6 active torsions:
REMARK  status: ('A' for Active; 'I' for Inactive)
REMARK    1  A    between atoms: C_1  and  C_4 
REMARK    2  A    between atoms: C_1  and  C_9 
REMARK       I    between atoms: N_2  and  C_3 
REMARK    3  A    between atoms: C_3  and  C_4 
REMARK    4  A    between atoms: C_4  and  N_15 
REMARK    5  A    between atoms: C_9  and  S_14 
REMARK    6  A    between atoms: C_16  and  C_18 
ROOT
HETATM    1  N           1     -21.931  -9.882  -1.238  0.00  0.00    -0.336 N 
HETATM    2  C           1     -21.254  -8.745  -1.586  0.00  0.00     0.251 C 
HETATM    3  C           1     -23.791 -11.277  -1.544  0.00  0.00     0.022 C 
HETATM    4  C           1     -22.435 -10.924  -2.130  0.00  0.00     0.127 C 
HETATM    5  O           1     -20.899  -7.969  -0.730  0.00  0.00    -0.271 OA
HETATM    6  C           1     -23.710 -10.874  -0.077  0.00  0.00     0.038 C 
HETATM    7  C           1     -22.307 -10.319   0.104  0.00  0.00     0.188 C 
ENDROOT
BRANCH   2   8
HETATM    8  C           1     -20.953  -8.459  -3.036  0.00  0.00     0.275 C 
BRANCH   8   9
HETATM    9  C           1     -19.507  -8.832  -3.338  0.00  0.00     0.053 C 
BRANCH   9  10
HETATM   10  C           1     -19.308  -8.919  -4.845  0.00  0.00     0.076 C 
BRANCH  10  11
HETATM   11  S           1     -17.823  -9.898  -5.206  0.00  0.00    -0.173 SA
HETATM   12  C           1     -17.034  -9.670  -3.588  0.00  0.00     0.089 C 
ENDBRANCH  10  11
ENDBRANCH   9  10
ENDBRANCH   8   9
BRANCH   8  13
HETATM   13  N           1     -21.159  -6.999  -3.311  0.00  0.00    -0.066 N 
HETATM   14  H           1     -20.231  -6.524  -3.389  0.00  0.00     0.275 HD
HETATM   15  H           1     -21.685  -6.885  -4.206  0.00  0.00     0.275 HD
HETATM   16  H           1     -21.704  -6.571  -2.529  0.00  0.00     0.275 HD
ENDBRANCH   8  13
ENDBRANCH   2   8
BRANCH   7  17
HETATM   17  C           1     -21.367 -11.387   0.604  0.00  0.00     0.196 C 
HETATM   18  O           1     -21.819 -12.483   1.000  0.00  0.00    -0.646 OA
HETATM   19  O           1     -20.135 -11.176   0.622  0.00  0.00    -0.646 OA
ENDBRANCH   7  17
TORSDOF 6
ENDMDL
