MODEL 1
REMARK VINA RESULT:      -7.5      0.000      0.000
REMARK  10 active torsions:
REMARK  status: ('A' for Active; 'I' for Inactive)
REMARK    1  A    between atoms: C_5  and  C_25 
REMARK    2  A    between atoms: C_5  and  C_14 
REMARK    3  A    between atoms: C_6  and  C_14 
REMARK    4  A    between atoms: N_7  and  C_14 
REMARK       I    between atoms: N_7  and  C_8 
REMARK    5  A    between atoms: C_8  and  C_9 
REMARK    6  A    between atoms: C_9  and  C_27 
REMARK    7  A    between atoms: C_9  and  N_21 
REMARK       I    between atoms: N_12  and  C_15 
REMARK    8  A    between atoms: N_12  and  C_29 
REMARK       I    between atoms: N_13  and  C_15 
REMARK    9  A    between atoms: C_25  and  C_29 
REMARK   10  A    between atoms: C_26  and  C_27 
ROOT
HETATM    1  C           1     -34.104  -3.861 -13.028  0.00  0.00     0.185 C 
ENDROOT
BRANCH   1   2
HETATM    2  C           1     -33.150  -3.877 -11.842  0.00  0.00     0.038 C 
BRANCH   2   3
HETATM    3  C           1     -33.814  -4.578 -10.664  0.00  0.00     0.023 C 
BRANCH   3   4
HETATM    4  C           1     -34.635  -5.757 -11.172  0.00  0.00     0.138 C 
BRANCH   4   5
HETATM    5  N           1     -33.846  -6.992 -11.054  0.00  0.00    -0.227 N 
HETATM    6  H           1     -32.989  -7.126 -11.645  0.00  0.00     0.177 HD
HETATM    7  C           1     -34.199  -7.894 -10.239  0.00  0.00     0.665 C 
HETATM    8  N           1     -35.232  -7.732  -9.525  0.00  0.00    -0.235 N 
HETATM    9  N           1     -33.501  -8.985 -10.134  0.00  0.00    -0.235 N 
HETATM   10  H           1     -35.796  -6.850  -9.609  0.00  0.00     0.174 HD
HETATM   11  H           1     -35.525  -8.480  -8.849  0.00  0.00     0.174 HD
HETATM   12  H           1     -32.648  -9.118 -10.723  0.00  0.00     0.174 HD
HETATM   13  H           1     -33.793  -9.729  -9.461  0.00  0.00     0.174 HD
ENDBRANCH   4   5
ENDBRANCH   3   4
ENDBRANCH   2   3
ENDBRANCH   1   2
BRANCH   1  14
HETATM   14  C           1     -34.930  -2.598 -12.993  0.00  0.00     0.196 C 
HETATM   15  O           1     -34.812  -1.750 -13.904  0.00  0.00    -0.646 OA
HETATM   16  O           1     -35.732  -2.401 -12.054  0.00  0.00    -0.646 OA
ENDBRANCH   1  14
BRANCH   1  17
HETATM   17  N           1     -33.342  -3.904 -14.262  0.00  0.00    -0.345 N 
HETATM   18  C           1     -33.877  -4.491 -15.377  0.00  0.00     0.249 C 
HETATM   19  O           1     -34.984  -4.972 -15.335  0.00  0.00    -0.271 OA
HETATM   20  H           1     -32.414  -3.501 -14.297  0.00  0.00     0.163 HD
BRANCH  18  21
HETATM   21  C           1     -33.084  -4.536 -16.659  0.00  0.00     0.275 C 
BRANCH  21  22
HETATM   22  C           1     -31.611  -4.757 -16.339  0.00  0.00     0.046 C 
BRANCH  22  23
HETATM   23  C           1     -30.899  -5.297 -17.572  0.00  0.00    -0.020 C 
HETATM   24  C           1     -30.497  -6.746 -17.330  0.00  0.00     0.009 C 
HETATM   25  C           1     -29.654  -4.465 -17.845  0.00  0.00     0.009 C 
ENDBRANCH  22  23
ENDBRANCH  21  22
BRANCH  21  26
HETATM   26  N           1     -33.246  -3.238 -17.393  0.00  0.00    -0.066 N 
HETATM   27  H           1     -33.941  -3.358 -18.164  0.00  0.00     0.275 HD
HETATM   28  H           1     -33.584  -2.503 -16.730  0.00  0.00     0.275 HD
HETATM   29  H           1     -32.327  -2.947 -17.796  0.00  0.00     0.275 HD
ENDBRANCH  21  26
ENDBRANCH  18  21
ENDBRANCH   1  17
TORSDOF 10
ENDMDL
MODEL 2
REMARK VINA RESULT:      -7.3      3.423      6.371
REMARK  10 active torsions:
REMARK  status: ('A' for Active; 'I' for Inactive)
REMARK    1  A    between atoms: C_5  and  C_25 
REMARK    2  A    between atoms: C_5  and  C_14 
REMARK    3  A    between atoms: C_6  and  C_14 
REMARK    4  A    between atoms: N_7  and  C_14 
REMARK       I    between atoms: N_7  and  C_8 
REMARK    5  A    between atoms: C_8  and  C_9 
REMARK    6  A    between atoms: C_9  and  C_27 
REMARK    7  A    between atoms: C_9  and  N_21 
REMARK       I    between atoms: N_12  and  C_15 
REMARK    8  A    between atoms: N_12  and  C_29 
REMARK       I    between atoms: N_13  and  C_15 
REMARK    9  A    between atoms: C_25  and  C_29 
REMARK   10  A    between atoms: C_26  and  C_27 
ROOT
HETATM    1  C           1     -35.796  -0.364 -15.266  0.00  0.00     0.185 C 
ENDROOT
BRANCH   1   2
HETATM    2  C           1     -35.463  -1.107 -16.553  0.00  0.00     0.038 C 
BRANCH   2   3
HETATM    3  C           1     -34.953  -2.502 -16.217  0.00  0.00     0.023 C 
BRANCH   3   4
HETATM    4  C           1     -33.899  -2.918 -17.236  0.00  0.00     0.138 C 
BRANCH   4   5
HETATM    5  N           1     -33.174  -4.096 -16.739  0.00  0.00    -0.227 N 
HETATM    6  H           1     -33.691  -4.855 -16.231  0.00  0.00     0.177 HD
HETATM    7  C           1     -31.926  -4.196 -16.924  0.00  0.00     0.665 C 
HETATM    8  N           1     -31.301  -3.281 -17.537  0.00  0.00    -0.235 N 
HETATM    9  N           1     -31.285  -5.239 -16.485  0.00  0.00    -0.235 N 
HETATM   10  H           1     -31.819  -2.439 -17.892  0.00  0.00     0.174 HD
HETATM   11  H           1     -30.266  -3.364 -17.690  0.00  0.00     0.174 HD
HETATM   12  H           1     -31.801  -5.994 -15.979  0.00  0.00     0.174 HD
HETATM   13  H           1     -30.255  -5.321 -16.638  0.00  0.00     0.174 HD
ENDBRANCH   4   5
ENDBRANCH   3   4
ENDBRANCH   2   3
ENDBRANCH   1   2
BRANCH   1  14
HETATM   14  C           1     -37.284  -0.122 -15.196  0.00  0.00     0.196 C 
HETATM   15  O           1     -37.984  -0.765 -14.383  0.00  0.00    -0.646 OA
HETATM   16  O           1     -37.817   0.722 -15.949  0.00  0.00    -0.646 OA
ENDBRANCH   1  14
BRANCH   1  17
HETATM   17  N           1     -35.383  -1.163 -14.128  0.00  0.00    -0.345 N 
HETATM   18  C           1     -34.934  -0.550 -12.989  0.00  0.00     0.249 C 
HETATM   19  O           1     -34.882   0.656 -12.931  0.00  0.00    -0.271 OA
HETATM   20  H           1     -35.428  -2.172 -14.176  0.00  0.00     0.163 HD
BRANCH  18  21
HETATM   21  C           1     -34.505  -1.380 -11.805  0.00  0.00     0.275 C 
BRANCH  21  22
HETATM   22  C           1     -34.532  -2.856 -12.182  0.00  0.00     0.046 C 
BRANCH  22  23
HETATM   23  C           1     -33.605  -3.634 -11.258  0.00  0.00    -0.020 C 
HETATM   24  C           1     -32.468  -4.238 -12.071  0.00  0.00     0.009 C 
HETATM   25  C           1     -34.386  -4.747 -10.573  0.00  0.00     0.009 C 
ENDBRANCH  22  23
ENDBRANCH  21  22
BRANCH  21  26
HETATM   26  N           1     -35.443  -1.140 -10.660  0.00  0.00    -0.066 N 
HETATM   27  H           1     -36.408  -1.435 -10.932  0.00  0.00     0.275 HD
HETATM   28  H           1     -35.130  -1.696  -9.831  0.00  0.00     0.275 HD
HETATM   29  H           1     -35.445  -0.125 -10.417  0.00  0.00     0.275 HD
ENDBRANCH  21  26
ENDBRANCH  18  21
ENDBRANCH   1  17
TORSDOF 10
ENDMDL
MODEL 3
REMARK VINA RESULT:      -6.8     13.957     15.982
REMARK  10 active torsions:
REMARK  status: ('A' for Active; 'I' for Inactive)
REMARK    1  A    between atoms: C_5  and  C_25 
REMARK    2  A    between atoms: C_5  and  C_14 
REMARK    3  A    between atoms: C_6  and  C_14 
REMARK    4  A    between atoms: N_7  and  C_14 
REMARK       I    between atoms: N_7  and  C_8 
REMARK    5  A    between atoms: C_8  and  C_9 
REMARK    6  A    between atoms: C_9  and  C_27 
REMARK    7  A    between atoms: C_9  and  N_21 
REMARK       I    between atoms: N_12  and  C_15 
REMARK    8  A    between atoms: N_12  and  C_29 
REMARK       I    between atoms: N_13  and  C_15 
REMARK    9  A    between atoms: C_25  and  C_29 
REMARK   10  A    between atoms: C_26  and  C_27 
ROOT
HETATM    1  C           1     -21.491  -6.070  -5.903  0.00  0.00     0.185 C 
ENDROOT
BRANCH   1   2
HETATM    2  C           1     -22.408  -5.048  -6.564  0.00  0.00     0.038 C 
BRANCH   2   3
HETATM    3  C           1     -22.171  -5.050  -8.068  0.00  0.00     0.023 C 
BRANCH   3   4
HETATM    4  C           1     -22.512  -3.679  -8.638  0.00  0.00     0.138 C 
BRANCH   4   5
HETATM    5  N           1     -23.969  -3.488  -8.621  0.00  0.00    -0.227 N 
HETATM    6  H           1     -24.455  -3.231  -7.726  0.00  0.00     0.177 HD
HETATM    7  C           1     -24.639  -3.633  -9.685  0.00  0.00     0.665 C 
HETATM    8  N           1     -24.054  -3.943 -10.765  0.00  0.00    -0.235 N 
HETATM    9  N           1     -25.928  -3.465  -9.670  0.00  0.00    -0.235 N 
HETATM   10  H           1     -23.013  -4.079 -10.777  0.00  0.00     0.174 HD
HETATM   11  H           1     -24.610  -4.063 -11.647  0.00  0.00     0.174 HD
HETATM   12  H           1     -26.411  -3.209  -8.779  0.00  0.00     0.174 HD
HETATM   13  H           1     -26.481  -3.584 -10.548  0.00  0.00     0.174 HD
ENDBRANCH   4   5
ENDBRANCH   3   4
ENDBRANCH   2   3
ENDBRANCH   1   2
BRANCH   1  14
HETATM   14  C           1     -20.070  -5.836  -6.356  0.00  0.00     0.196 C 
HETATM   15  O           1     -19.504  -4.751  -6.099  0.00  0.00    -0.646 OA
HETATM   16  O           1     -19.460  -6.727  -6.986  0.00  0.00    -0.646 OA
ENDBRANCH   1  14
BRANCH   1  17
HETATM   17  N           1     -21.568  -5.926  -4.462  0.00  0.00    -0.345 N 
HETATM   18  C           1     -21.336  -7.006  -3.654  0.00  0.00     0.249 C 
HETATM   19  O           1     -21.067  -8.079  -4.140  0.00  0.00    -0.271 OA
HETATM   20  H           1     -21.793  -5.027  -4.055  0.00  0.00     0.163 HD
BRANCH  18  21
HETATM   21  C           1     -21.416  -6.857  -2.154  0.00  0.00     0.275 C 
BRANCH  21  22
HETATM   22  C           1     -21.910  -8.160  -1.539  0.00  0.00     0.046 C 
BRANCH  22  23
HETATM   23  C           1     -22.234  -7.937  -0.069  0.00  0.00    -0.020 C 
HETATM   24  C           1     -21.075  -8.431   0.786  0.00  0.00     0.009 C 
HETATM   25  C           1     -23.497  -8.705   0.296  0.00  0.00     0.009 C 
ENDBRANCH  22  23
ENDBRANCH  21  22
BRANCH  21  26
HETATM   26  N           1     -22.368  -5.750  -1.812  0.00  0.00    -0.066 N 
HETATM   27  H           1     -21.953  -5.152  -1.063  0.00  0.00     0.275 HD
HETATM   28  H           1     -22.547  -5.169  -2.664  0.00  0.00     0.275 HD
HETATM   29  H           1     -23.269  -6.156  -1.474  0.00  0.00     0.275 HD
ENDBRANCH  21  26
ENDBRANCH  18  21
ENDBRANCH   1  17
TORSDOF 10
ENDMDL
MODEL 4
REMARK VINA RESULT:      -6.8     13.980     15.908
REMARK  10 active torsions:
REMARK  status: ('A' for Active; 'I' for Inactive)
REMARK    1  A    between atoms: C_5  and  C_25 
REMARK    2  A    between atoms: C_5  and  C_14 
REMARK    3  A    between atoms: C_6  and  C_14 
REMARK    4  A    between atoms: N_7  and  C_14 
REMARK       I    between atoms: N_7  and  C_8 
REMARK    5  A    between atoms: C_8  and  C_9 
REMARK    6  A    between atoms: C_9  and  C_27 
REMARK    7  A    between atoms: C_9  and  N_21 
REMARK       I    between atoms: N_12  and  C_15 
REMARK    8  A    between atoms: N_12  and  C_29 
REMARK       I    between atoms: N_13  and  C_15 
REMARK    9  A    between atoms: C_25  and  C_29 
REMARK   10  A    between atoms: C_26  and  C_27 
ROOT
HETATM    1  C           1     -21.349  -5.388  -6.712  0.00  0.00     0.185 C 
ENDROOT
BRANCH   1   2
HETATM    2  C           1     -21.872  -4.052  -7.222  0.00  0.00     0.038 C 
BRANCH   2   3
HETATM    3  C           1     -23.185  -4.270  -7.964  0.00  0.00     0.023 C 
BRANCH   3   4
HETATM    4  C           1     -22.896  -4.586  -9.426  0.00  0.00     0.138 C 
BRANCH   4   5
HETATM    5  N           1     -21.806  -3.726  -9.909  0.00  0.00    -0.227 N 
HETATM    6  H           1     -21.319  -3.074  -9.246  0.00  0.00     0.177 HD
HETATM    7  C           1     -21.456  -3.771 -11.124  0.00  0.00     0.665 C 
HETATM    8  N           1     -22.043  -4.557 -11.924  0.00  0.00    -0.235 N 
HETATM    9  N           1     -20.492  -3.009 -11.551  0.00  0.00    -0.235 N 
HETATM   10  H           1     -22.822  -5.172 -11.580  0.00  0.00     0.174 HD
HETATM   11  H           1     -21.753  -4.594 -12.932  0.00  0.00     0.174 HD
HETATM   12  H           1     -20.008  -2.361 -10.891  0.00  0.00     0.174 HD
HETATM   13  H           1     -20.203  -3.047 -12.555  0.00  0.00     0.174 HD
ENDBRANCH   4   5
ENDBRANCH   3   4
ENDBRANCH   2   3
ENDBRANCH   1   2
BRANCH   1  14
HETATM   14  C           1     -20.046  -5.714  -7.402  0.00  0.00     0.196 C 
HETATM   15  O           1     -19.455  -6.786  -7.145  0.00  0.00    -0.646 OA
HETATM   16  O           1     -19.559  -4.914  -8.230  0.00  0.00    -0.646 OA
ENDBRANCH   1  14
BRANCH   1  17
HETATM   17  N           1     -21.129  -5.306  -5.281  0.00  0.00    -0.345 N 
HETATM   18  C           1     -21.505  -6.343  -4.470  0.00  0.00     0.249 C 
HETATM   19  O           1     -22.018  -7.327  -4.946  0.00  0.00    -0.271 OA
HETATM   20  H           1     -20.699  -4.481  -4.882  0.00  0.00     0.163 HD
BRANCH  18  21
HETATM   21  C           1     -21.277  -6.257  -2.981  0.00  0.00     0.275 C 
BRANCH  21  22
HETATM   22  C           1     -20.767  -7.597  -2.467  0.00  0.00     0.046 C 
BRANCH  22  23
HETATM   23  C           1     -21.780  -8.186  -1.494  0.00  0.00    -0.020 C 
HETATM   24  C           1     -21.195  -8.178  -0.088  0.00  0.00     0.009 C 
HETATM   25  C           1     -22.103  -9.617  -1.900  0.00  0.00     0.009 C 
ENDBRANCH  22  23
ENDBRANCH  21  22
BRANCH  21  26
HETATM   26  N           1     -22.567  -5.917  -2.297  0.00  0.00    -0.066 N 
HETATM   27  H           1     -22.380  -5.683  -1.296  0.00  0.00     0.275 HD
HETATM   28  H           1     -23.007  -5.095  -2.771  0.00  0.00     0.275 HD
HETATM   29  H           1     -23.215  -6.735  -2.347  0.00  0.00     0.275 HD
ENDBRANCH  21  26
ENDBRANCH  18  21
ENDBRANCH   1  17
TORSDOF 10
ENDMDL
MODEL 5
REMARK VINA RESULT:      -6.7      3.445      6.630
REMARK  10 active torsions:
REMARK  status: ('A' for Active; 'I' for Inactive)
REMARK    1  A    between atoms: C_5  and  C_25 
REMARK    2  A    between atoms: C_5  and  C_14 
REMARK    3  A    between atoms: C_6  and  C_14 
REMARK    4  A    between atoms: N_7  and  C_14 
REMARK       I    between atoms: N_7  and  C_8 
REMARK    5  A    between atoms: C_8  and  C_9 
REMARK    6  A    between atoms: C_9  and  C_27 
REMARK    7  A    between atoms: C_9  and  N_21 
REMARK       I    between atoms: N_12  and  C_15 
REMARK    8  A    between atoms: N_12  and  C_29 
REMARK       I    between atoms: N_13  and  C_15 
REMARK    9  A    between atoms: C_25  and  C_29 
REMARK   10  A    between atoms: C_26  and  C_27 
ROOT
HETATM    1  C           1     -34.175  -2.401 -12.324  0.00  0.00     0.185 C 
ENDROOT
BRANCH   1   2
HETATM    2  C           1     -33.568  -3.574 -11.564  0.00  0.00     0.038 C 
BRANCH   2   3
HETATM    3  C           1     -34.551  -4.057 -10.506  0.00  0.00     0.023 C 
BRANCH   3   4
HETATM    4  C           1     -35.179  -5.370 -10.958  0.00  0.00     0.138 C 
BRANCH   4   5
HETATM    5  N           1     -34.143  -6.411 -11.028  0.00  0.00    -0.227 N 
HETATM    6  H           1     -33.315  -6.286 -11.660  0.00  0.00     0.177 HD
HETATM    7  C           1     -34.250  -7.459 -10.326  0.00  0.00     0.665 C 
HETATM    8  N           1     -35.249  -7.611  -9.563  0.00  0.00    -0.235 N 
HETATM    9  N           1     -33.334  -8.379 -10.388  0.00  0.00    -0.235 N 
HETATM   10  H           1     -35.989  -6.868  -9.513  0.00  0.00     0.174 HD
HETATM   11  H           1     -35.338  -8.480  -8.981  0.00  0.00     0.174 HD
HETATM   12  H           1     -32.510  -8.254 -11.018  0.00  0.00     0.174 HD
HETATM   13  H           1     -33.422  -9.244  -9.809  0.00  0.00     0.174 HD
ENDBRANCH   4   5
ENDBRANCH   3   4
ENDBRANCH   2   3
ENDBRANCH   1   2
BRANCH   1  14
HETATM   14  C           1     -34.563  -2.849 -13.712  0.00  0.00     0.196 C 
HETATM   15  O           1     -34.334  -4.023 -14.077  0.00  0.00    -0.646 OA
HETATM   16  O           1     -35.115  -2.047 -14.496  0.00  0.00    -0.646 OA
ENDBRANCH   1  14
BRANCH   1  17
HETATM   17  N           1     -35.353  -1.929 -11.622  0.00  0.00    -0.345 N 
HETATM   18  C           1     -35.617  -0.588 -11.554  0.00  0.00     0.249 C 
HETATM   19  O           1     -34.871   0.203 -12.079  0.00  0.00    -0.271 OA
HETATM   20  H           1     -35.979  -2.592 -11.182  0.00  0.00     0.163 HD
BRANCH  18  21
HETATM   21  C           1     -36.843  -0.097 -10.824  0.00  0.00     0.275 C 
BRANCH  21  22
HETATM   22  C           1     -36.853  -0.663  -9.410  0.00  0.00     0.046 C 
BRANCH  22  23
HETATM   23  C           1     -37.882   0.082  -8.571  0.00  0.00    -0.020 C 
HETATM   24  C           1     -37.691   1.582  -8.749  0.00  0.00     0.009 C 
HETATM   25  C           1     -37.703  -0.281  -7.104  0.00  0.00     0.009 C 
ENDBRANCH  22  23
ENDBRANCH  21  22
BRANCH  21  26
HETATM   26  N           1     -38.073  -0.550 -11.552  0.00  0.00    -0.066 N 
HETATM   27  H           1     -37.836  -1.359 -12.168  0.00  0.00     0.275 HD
HETATM   28  H           1     -38.801  -0.841 -10.859  0.00  0.00     0.275 HD
HETATM   29  H           1     -38.443   0.234 -12.135  0.00  0.00     0.275 HD
ENDBRANCH  21  26
ENDBRANCH  18  21
ENDBRANCH   1  17
TORSDOF 10
ENDMDL
MODEL 6
REMARK VINA RESULT:      -6.6      5.471      8.206
REMARK  10 active torsions:
REMARK  status: ('A' for Active; 'I' for Inactive)
REMARK    1  A    between atoms: C_5  and  C_25 
REMARK    2  A    between atoms: C_5  and  C_14 
REMARK    3  A    between atoms: C_6  and  C_14 
REMARK    4  A    between atoms: N_7  and  C_14 
REMARK       I    between atoms: N_7  and  C_8 
REMARK    5  A    between atoms: C_8  and  C_9 
REMARK    6  A    between atoms: C_9  and  C_27 
REMARK    7  A    between atoms: C_9  and  N_21 
REMARK       I    between atoms: N_12  and  C_15 
REMARK    8  A    between atoms: N_12  and  C_29 
REMARK       I    between atoms: N_13  and  C_15 
REMARK    9  A    between atoms: C_25  and  C_29 
REMARK   10  A    between atoms: C_26  and  C_27 
ROOT
HETATM    1  C           1     -27.463  -5.590 -16.880  0.00  0.00     0.185 C 
ENDROOT
BRANCH   1   2
HETATM    2  C           1     -28.257  -4.311 -17.115  0.00  0.00     0.038 C 
BRANCH   2   3
HETATM    3  C           1     -29.415  -4.599 -18.061  0.00  0.00     0.023 C 
BRANCH   3   4
HETATM    4  C           1     -30.616  -3.747 -17.668  0.00  0.00     0.138 C 
BRANCH   4   5
HETATM    5  N           1     -31.563  -4.562 -16.893  0.00  0.00    -0.227 N 
HETATM    6  H           1     -31.229  -5.423 -16.394  0.00  0.00     0.177 HD
HETATM    7  C           1     -32.782  -4.225 -16.828  0.00  0.00     0.665 C 
HETATM    8  N           1     -33.185  -3.187 -17.430  0.00  0.00    -0.235 N 
HETATM    9  N           1     -33.619  -4.945 -16.143  0.00  0.00    -0.235 N 
HETATM   10  H           1     -32.509  -2.605 -17.984  0.00  0.00     0.174 HD
HETATM   11  H           1     -34.196  -2.907 -17.376  0.00  0.00     0.174 HD
HETATM   12  H           1     -33.286  -5.802 -15.646  0.00  0.00     0.174 HD
HETATM   13  H           1     -34.625  -4.667 -16.089  0.00  0.00     0.174 HD
ENDBRANCH   4   5
ENDBRANCH   3   4
ENDBRANCH   2   3
ENDBRANCH   1   2
BRANCH   1  14
HETATM   14  C           1     -28.123  -6.398 -15.790  0.00  0.00     0.196 C 
HETATM   15  O           1     -27.557  -7.420 -15.340  0.00  0.00    -0.646 OA
HETATM   16  O           1     -29.233  -6.047 -15.335  0.00  0.00    -0.646 OA
ENDBRANCH   1  14
BRANCH   1  17
HETATM   17  N           1     -27.429  -6.368 -18.104  0.00  0.00    -0.345 N 
HETATM   18  C           1     -26.228  -6.682 -18.681  0.00  0.00     0.249 C 
HETATM   19  O           1     -25.197  -6.312 -18.172  0.00  0.00    -0.271 OA
HETATM   20  H           1     -28.292  -6.678 -18.530  0.00  0.00     0.163 HD
BRANCH  18  21
HETATM   21  C           1     -26.192  -7.491 -19.955  0.00  0.00     0.275 C 
BRANCH  21  22
HETATM   22  C           1     -25.229  -6.844 -20.941  0.00  0.00     0.046 C 
BRANCH  22  23
HETATM   23  C           1     -24.332  -7.913 -21.551  0.00  0.00    -0.020 C 
HETATM   24  C           1     -23.157  -8.180 -20.620  0.00  0.00     0.009 C 
HETATM   25  C           1     -23.812  -7.432 -22.899  0.00  0.00     0.009 C 
ENDBRANCH  22  23
ENDBRANCH  21  22
BRANCH  21  26
HETATM   26  N           1     -27.565  -7.538 -20.556  0.00  0.00    -0.066 N 
HETATM   27  H           1     -27.584  -6.962 -21.427  0.00  0.00     0.275 HD
HETATM   28  H           1     -27.810  -8.528 -20.787  0.00  0.00     0.275 HD
HETATM   29  H           1     -28.259  -7.158 -19.873  0.00  0.00     0.275 HD
ENDBRANCH  21  26
ENDBRANCH  18  21
ENDBRANCH   1  17
TORSDOF 10
ENDMDL
MODEL 7
REMARK VINA RESULT:      -6.5     14.045     14.935
REMARK  10 active torsions:
REMARK  status: ('A' for Active; 'I' for Inactive)
REMARK    1  A    between atoms: C_5  and  C_25 
REMARK    2  A    between atoms: C_5  and  C_14 
REMARK    3  A    between atoms: C_6  and  C_14 
REMARK    4  A    between atoms: N_7  and  C_14 
REMARK       I    between atoms: N_7  and  C_8 
REMARK    5  A    between atoms: C_8  and  C_9 
REMARK    6  A    between atoms: C_9  and  C_27 
REMARK    7  A    between atoms: C_9  and  N_21 
REMARK       I    between atoms: N_12  and  C_15 
REMARK    8  A    between atoms: N_12  and  C_29 
REMARK       I    between atoms: N_13  and  C_15 
REMARK    9  A    between atoms: C_25  and  C_29 
REMARK   10  A    between atoms: C_26  and  C_27 
ROOT
HETATM    1  C           1     -21.245  -6.542  -4.897  0.00  0.00     0.185 C 
ENDROOT
BRANCH   1   2
HETATM    2  C           1     -22.195  -6.649  -3.711  0.00  0.00     0.038 C 
BRANCH   2   3
HETATM    3  C           1     -21.513  -6.104  -2.463  0.00  0.00     0.023 C 
BRANCH   3   4
HETATM    4  C           1     -22.258  -6.587  -1.224  0.00  0.00     0.138 C 
BRANCH   4   5
HETATM    5  N           1     -22.070  -8.037  -1.073  0.00  0.00    -0.227 N 
HETATM    6  H           1     -21.413  -8.551  -1.710  0.00  0.00     0.177 HD
HETATM    7  C           1     -22.702  -8.667  -0.175  0.00  0.00     0.665 C 
HETATM    8  N           1     -23.495  -8.047   0.594  0.00  0.00    -0.235 N 
HETATM    9  N           1     -22.536  -9.949  -0.041  0.00  0.00    -0.235 N 
HETATM   10  H           1     -23.629  -7.012   0.486  0.00  0.00     0.174 HD
HETATM   11  H           1     -24.019  -8.570   1.339  0.00  0.00     0.174 HD
HETATM   12  H           1     -21.882 -10.460  -0.675  0.00  0.00     0.174 HD
HETATM   13  H           1     -23.057 -10.468   0.701  0.00  0.00     0.174 HD
ENDBRANCH   4   5
ENDBRANCH   3   4
ENDBRANCH   2   3
ENDBRANCH   1   2
BRANCH   1  14
HETATM   14  C           1     -20.584  -7.878  -5.134  0.00  0.00     0.196 C 
HETATM   15  O           1     -21.089  -8.690  -5.941  0.00  0.00    -0.646 OA
HETATM   16  O           1     -19.533  -8.174  -4.525  0.00  0.00    -0.646 OA
ENDBRANCH   1  14
BRANCH   1  17
HETATM   17  N           1     -21.991  -6.156  -6.079  0.00  0.00    -0.345 N 
HETATM   18  C           1     -21.554  -5.116  -6.855  0.00  0.00     0.249 C 
HETATM   19  O           1     -20.547  -4.520  -6.555  0.00  0.00    -0.271 OA
HETATM   20  H           1     -22.834  -6.656  -6.331  0.00  0.00     0.163 HD
BRANCH  18  21
HETATM   21  C           1     -22.330  -4.714  -8.085  0.00  0.00     0.275 C 
BRANCH  21  22
HETATM   22  C           1     -21.521  -3.706  -8.890  0.00  0.00     0.046 C 
BRANCH  22  23
HETATM   23  C           1     -21.282  -4.249 -10.292  0.00  0.00    -0.020 C 
HETATM   24  C           1     -19.883  -4.845 -10.373  0.00  0.00     0.009 C 
HETATM   25  C           1     -21.411  -3.118 -11.304  0.00  0.00     0.009 C 
ENDBRANCH  22  23
ENDBRANCH  21  22
BRANCH  21  26
HETATM   26  N           1     -23.633  -4.096  -7.673  0.00  0.00    -0.066 N 
HETATM   27  H           1     -24.394  -4.809  -7.740  0.00  0.00     0.275 HD
HETATM   28  H           1     -23.560  -3.754  -6.688  0.00  0.00     0.275 HD
HETATM   29  H           1     -23.853  -3.293  -8.304  0.00  0.00     0.275 HD
ENDBRANCH  21  26
ENDBRANCH  18  21
ENDBRANCH   1  17
TORSDOF 10
ENDMDL
MODEL 8
REMARK VINA RESULT:      -6.4      3.337      4.275
REMARK  10 active torsions:
REMARK  status: ('A' for Active; 'I' for Inactive)
REMARK    1  A    between atoms: C_5  and  C_25 
REMARK    2  A    between atoms: C_5  and  C_14 
REMARK    3  A    between atoms: C_6  and  C_14 
REMARK    4  A    between atoms: N_7  and  C_14 
REMARK       I    between atoms: N_7  and  C_8 
REMARK    5  A    between atoms: C_8  and  C_9 
REMARK    6  A    between atoms: C_9  and  C_27 
REMARK    7  A    between atoms: C_9  and  N_21 
REMARK       I    between atoms: N_12  and  C_15 
REMARK    8  A    between atoms: N_12  and  C_29 
REMARK       I    between atoms: N_13  and  C_15 
REMARK    9  A    between atoms: C_25  and  C_29 
REMARK   10  A    between atoms: C_26  and  C_27 
ROOT
HETATM    1  C           1     -34.842  -2.389 -11.833  0.00  0.00     0.185 C 
ENDROOT
BRANCH   1   2
HETATM    2  C           1     -33.556  -3.203 -11.771  0.00  0.00     0.038 C 
BRANCH   2   3
HETATM    3  C           1     -33.860  -4.658 -12.102  0.00  0.00     0.023 C 
BRANCH   3   4
HETATM    4  C           1     -34.212  -5.408 -10.823  0.00  0.00     0.138 C 
BRANCH   4   5
HETATM    5  N           1     -33.615  -6.751 -10.861  0.00  0.00    -0.227 N 
HETATM    6  H           1     -32.748  -6.924 -11.427  0.00  0.00     0.177 HD
HETATM    7  C           1     -34.145  -7.698 -10.210  0.00  0.00     0.665 C 
HETATM    8  N           1     -35.191  -7.489  -9.526  0.00  0.00    -0.235 N 
HETATM    9  N           1     -33.617  -8.885 -10.243  0.00  0.00    -0.235 N 
HETATM   10  H           1     -35.617  -6.530  -9.499  0.00  0.00     0.174 HD
HETATM   11  H           1     -35.630  -8.275  -8.987  0.00  0.00     0.174 HD
HETATM   12  H           1     -32.754  -9.057 -10.807  0.00  0.00     0.174 HD
HETATM   13  H           1     -34.055  -9.667  -9.706  0.00  0.00     0.174 HD
ENDBRANCH   4   5
ENDBRANCH   3   4
ENDBRANCH   2   3
ENDBRANCH   1   2
BRANCH   1  14
HETATM   14  C           1     -35.197  -1.904 -10.449  0.00  0.00     0.196 C 
HETATM   15  O           1     -34.296  -1.520  -9.671  0.00  0.00    -0.646 OA
HETATM   16  O           1     -36.391  -1.885 -10.079  0.00  0.00    -0.646 OA
ENDBRANCH   1  14
BRANCH   1  17
HETATM   17  N           1     -34.649  -1.249 -12.708  0.00  0.00    -0.345 N 
HETATM   18  C           1     -35.731  -0.624 -13.267  0.00  0.00     0.249 C 
HETATM   19  O           1     -36.847  -1.022 -13.031  0.00  0.00    -0.271 OA
HETATM   20  H           1     -33.714  -0.915 -12.906  0.00  0.00     0.163 HD
BRANCH  18  21
HETATM   21  C           1     -35.531   0.562 -14.178  0.00  0.00     0.275 C 
BRANCH  21  22
HETATM   22  C           1     -35.055   0.081 -15.542  0.00  0.00     0.046 C 
BRANCH  22  23
HETATM   23  C           1     -35.820  -1.177 -15.933  0.00  0.00    -0.020 C 
HETATM   24  C           1     -34.973  -2.009 -16.887  0.00  0.00     0.009 C 
HETATM   25  C           1     -37.122  -0.787 -16.619  0.00  0.00     0.009 C 
ENDBRANCH  22  23
ENDBRANCH  21  22
BRANCH  21  26
HETATM   26  N           1     -34.502   1.479 -13.585  0.00  0.00    -0.066 N 
HETATM   27  H           1     -33.661   0.925 -13.307  0.00  0.00     0.275 HD
HETATM   28  H           1     -34.228   2.198 -14.293  0.00  0.00     0.275 HD
HETATM   29  H           1     -34.900   1.953 -12.744  0.00  0.00     0.275 HD
ENDBRANCH  21  26
ENDBRANCH  18  21
ENDBRANCH   1  17
TORSDOF 10
ENDMDL
MODEL 9
REMARK VINA RESULT:      -6.3      3.840      5.188
REMARK  10 active torsions:
REMARK  status: ('A' for Active; 'I' for Inactive)
REMARK    1  A    between atoms: C_5  and  C_25 
REMARK    2  A    between atoms: C_5  and  C_14 
REMARK    3  A    between atoms: C_6  and  C_14 
REMARK    4  A    between atoms: N_7  and  C_14 
REMARK       I    between atoms: N_7  and  C_8 
REMARK    5  A    between atoms: C_8  and  C_9 
REMARK    6  A    between atoms: C_9  and  C_27 
REMARK    7  A    between atoms: C_9  and  N_21 
REMARK       I    between atoms: N_12  and  C_15 
REMARK    8  A    between atoms: N_12  and  C_29 
REMARK       I    between atoms: N_13  and  C_15 
REMARK    9  A    between atoms: C_25  and  C_29 
REMARK   10  A    between atoms: C_26  and  C_27 
ROOT
HETATM    1  C           1     -36.827  -0.786 -10.702  0.00  0.00     0.185 C 
ENDROOT
BRANCH   1   2
HETATM    2  C           1     -36.058  -1.969 -10.127  0.00  0.00     0.038 C 
BRANCH   2   3
HETATM    3  C           1     -34.642  -1.974 -10.686  0.00  0.00     0.023 C 
BRANCH   3   4
HETATM    4  C           1     -34.077  -3.389 -10.627  0.00  0.00     0.138 C 
BRANCH   4   5
HETATM    5  N           1     -34.834  -4.258 -11.539  0.00  0.00    -0.227 N 
HETATM    6  H           1     -35.754  -3.936 -11.928  0.00  0.00     0.177 HD
HETATM    7  C           1     -34.377  -5.395 -11.854  0.00  0.00     0.665 C 
HETATM    8  N           1     -33.267  -5.784 -11.384  0.00  0.00    -0.235 N 
HETATM    9  N           1     -35.047  -6.165 -12.660  0.00  0.00    -0.235 N 
HETATM   10  H           1     -32.726  -5.163 -10.733  0.00  0.00     0.174 HD
HETATM   11  H           1     -32.888  -6.728 -11.646  0.00  0.00     0.174 HD
HETATM   12  H           1     -35.962  -5.844 -13.048  0.00  0.00     0.174 HD
HETATM   13  H           1     -34.669  -7.103 -12.920  0.00  0.00     0.174 HD
ENDBRANCH   4   5
ENDBRANCH   3   4
ENDBRANCH   2   3
ENDBRANCH   1   2
BRANCH   1  14
HETATM   14  C           1     -36.911   0.310  -9.667  0.00  0.00     0.196 C 
HETATM   15  O           1     -36.241   0.227  -8.614  0.00  0.00    -0.646 OA
HETATM   16  O           1     -37.648   1.300  -9.863  0.00  0.00    -0.646 OA
ENDBRANCH   1  14
BRANCH   1  17
HETATM   17  N           1     -36.138  -0.288 -11.877  0.00  0.00    -0.345 N 
HETATM   18  C           1     -36.816  -0.139 -13.056  0.00  0.00     0.249 C 
HETATM   19  O           1     -37.989  -0.422 -13.119  0.00  0.00    -0.271 OA
HETATM   20  H           1     -35.155  -0.051 -11.824  0.00  0.00     0.163 HD
BRANCH  18  21
HETATM   21  C           1     -36.099   0.378 -14.279  0.00  0.00     0.275 C 
BRANCH  21  22
HETATM   22  C           1     -35.321  -0.757 -14.931  0.00  0.00     0.046 C 
BRANCH  22  23
HETATM   23  C           1     -35.669  -0.826 -16.412  0.00  0.00    -0.020 C 
HETATM   24  C           1     -37.182  -0.870 -16.575  0.00  0.00     0.009 C 
HETATM   25  C           1     -35.057  -2.081 -17.020  0.00  0.00     0.009 C 
ENDBRANCH  22  23
ENDBRANCH  21  22
BRANCH  21  26
HETATM   26  N           1     -35.150   1.468 -13.877  0.00  0.00    -0.066 N 
HETATM   27  H           1     -34.352   1.501 -14.551  0.00  0.00     0.275 HD
HETATM   28  H           1     -35.651   2.386 -13.885  0.00  0.00     0.275 HD
HETATM   29  H           1     -34.787   1.279 -12.917  0.00  0.00     0.275 HD
ENDBRANCH  21  26
ENDBRANCH  18  21
ENDBRANCH   1  17
TORSDOF 10
ENDMDL
