MODEL 1
REMARK VINA RESULT:      -7.4      0.000      0.000
REMARK  12 active torsions:
REMARK  status: ('A' for Active; 'I' for Inactive)
REMARK       I    between atoms: N_1  and  C_2 
REMARK       I    between atoms: C_2  and  N_3 
REMARK    1  A    between atoms: N_4  and  C_5 
REMARK    2  A    between atoms: C_5  and  C_6 
REMARK    3  A    between atoms: C_6  and  C_7 
REMARK    4  A    between atoms: C_7  and  C_8 
REMARK    5  A    between atoms: C_8  and  C_9 
REMARK    6  A    between atoms: C_8  and  N_12 
REMARK       I    between atoms: N_12  and  C_13 
REMARK    7  A    between atoms: C_13  and  C_14 
REMARK    8  A    between atoms: C_14  and  C_15 
REMARK    9  A    between atoms: C_14  and  N_21 
REMARK   10  A    between atoms: C_15  and  O_16 
REMARK   11  A    between atoms: O_16  and  P_17 
REMARK   12  A    between atoms: P_17  and  O_18 
ROOT
HETATM    1  C           1     -34.170  -3.838 -12.962  0.00  0.00     0.185 C 
ENDROOT
BRANCH   1   2
HETATM    2  C           1     -33.225  -3.861 -11.768  0.00  0.00     0.038 C 
BRANCH   2   3
HETATM    3  C           1     -33.910  -4.540 -10.589  0.00  0.00     0.023 C 
BRANCH   3   4
HETATM    4  C           1     -34.719  -5.729 -11.088  0.00  0.00     0.138 C 
BRANCH   4   5
HETATM    5  N           1     -33.909  -6.951 -10.988  0.00  0.00    -0.227 N 
HETATM    6  C           1     -34.253  -7.876 -10.196  0.00  0.00     0.665 C 
HETATM    7  N           1     -33.536  -8.957 -10.107  0.00  0.00    -0.235 N 
HETATM    8  N           1     -35.296  -7.749  -9.489  0.00  0.00    -0.235 N 
HETATM    9  H           1     -32.675  -9.063 -10.690  0.00  0.00     0.174 HD
HETATM   10  H           1     -33.820  -9.721  -9.453  0.00  0.00     0.174 HD
HETATM   11  H           1     -35.875  -6.876  -9.560  0.00  0.00     0.174 HD
HETATM   12  H           1     -35.582  -8.516  -8.832  0.00  0.00     0.174 HD
HETATM   13  H           1     -33.044  -7.057 -11.574  0.00  0.00     0.177 HD
ENDBRANCH   4   5
ENDBRANCH   3   4
ENDBRANCH   2   3
ENDBRANCH   1   2
BRANCH   1  14
HETATM   14  C           1     -34.972  -2.560 -12.945  0.00  0.00     0.196 C 
HETATM   15  O           1     -35.788  -2.345 -12.022  0.00  0.00    -0.646 OA
HETATM   16  O           1     -34.821  -1.715 -13.854  0.00  0.00    -0.646 OA
ENDBRANCH   1  14
BRANCH   1  17
HETATM   17  N           1     -33.399  -3.907 -14.189  0.00  0.00    -0.345 N 
HETATM   18  C           1     -33.915  -4.544 -15.285  0.00  0.00     0.251 C 
HETATM   19  O           1     -35.012  -5.049 -15.231  0.00  0.00    -0.271 OA
HETATM   20  H           1     -32.481  -3.486 -14.234  0.00  0.00     0.163 HD
BRANCH  18  21
HETATM   21  C           1     -33.113  -4.617 -16.561  0.00  0.00     0.298 C 
BRANCH  21  22
HETATM   22  C           1     -31.644  -4.840 -16.227  0.00  0.00     0.224 C 
BRANCH  22  23
HETATM   23  O           1     -30.950  -5.203 -17.389  0.00  0.00    -0.287 OA
BRANCH  23  24
HETATM   24  P           1     -29.668  -4.294 -17.762  0.00  0.00     0.406 P 
HETATM   25  O           1     -29.054  -4.796 -19.011  0.00  0.00    -0.624 OA
HETATM   26  O           1     -28.679  -4.361 -16.663  0.00  0.00    -0.624 OA
BRANCH  24  27
HETATM   27  O           1     -30.137  -2.762 -17.972  0.00  0.00    -0.300 OA
HETATM   28  H           1     -30.684  -2.572 -17.229  0.00  0.00     0.223 HD
ENDBRANCH  24  27
ENDBRANCH  23  24
ENDBRANCH  22  23
ENDBRANCH  21  22
BRANCH  21  29
HETATM   29  N           1     -33.263  -3.331 -17.319  0.00  0.00    -0.064 N 
HETATM   30  H           1     -33.302  -3.532 -18.344  0.00  0.00     0.275 HD
HETATM   31  H           1     -34.146  -2.855 -17.024  0.00  0.00     0.275 HD
HETATM   32  H           1     -32.448  -2.710 -17.116  0.00  0.00     0.275 HD
ENDBRANCH  21  29
ENDBRANCH  18  21
ENDBRANCH   1  17
TORSDOF 12
ENDMDL
MODEL 2
REMARK VINA RESULT:      -7.2      4.625      7.741
REMARK  12 active torsions:
REMARK  status: ('A' for Active; 'I' for Inactive)
REMARK       I    between atoms: N_1  and  C_2 
REMARK       I    between atoms: C_2  and  N_3 
REMARK    1  A    between atoms: N_4  and  C_5 
REMARK    2  A    between atoms: C_5  and  C_6 
REMARK    3  A    between atoms: C_6  and  C_7 
REMARK    4  A    between atoms: C_7  and  C_8 
REMARK    5  A    between atoms: C_8  and  C_9 
REMARK    6  A    between atoms: C_8  and  N_12 
REMARK       I    between atoms: N_12  and  C_13 
REMARK    7  A    between atoms: C_13  and  C_14 
REMARK    8  A    between atoms: C_14  and  C_15 
REMARK    9  A    between atoms: C_14  and  N_21 
REMARK   10  A    between atoms: C_15  and  O_16 
REMARK   11  A    between atoms: O_16  and  P_17 
REMARK   12  A    between atoms: P_17  and  O_18 
ROOT
HETATM    1  C           1     -30.589  -5.811 -17.254  0.00  0.00     0.185 C 
ENDROOT
BRANCH   1   2
HETATM    2  C           1     -29.537  -5.548 -16.185  0.00  0.00     0.038 C 
BRANCH   2   3
HETATM    3  C           1     -28.195  -5.270 -16.849  0.00  0.00     0.023 C 
BRANCH   3   4
HETATM    4  C           1     -27.102  -6.054 -16.135  0.00  0.00     0.138 C 
BRANCH   4   5
HETATM    5  N           1     -26.156  -6.590 -17.125  0.00  0.00    -0.227 N 
HETATM    6  C           1     -25.015  -6.994 -16.756  0.00  0.00     0.665 C 
HETATM    7  N           1     -24.179  -7.468 -17.632  0.00  0.00    -0.235 N 
HETATM    8  N           1     -24.687  -6.936 -15.534  0.00  0.00    -0.235 N 
HETATM    9  H           1     -24.449  -7.516 -18.640  0.00  0.00     0.174 HD
HETATM   10  H           1     -23.236  -7.802 -17.327  0.00  0.00     0.174 HD
HETATM   11  H           1     -25.362  -6.553 -14.827  0.00  0.00     0.174 HD
HETATM   12  H           1     -23.741  -7.271 -15.229  0.00  0.00     0.174 HD
HETATM   13  H           1     -26.428  -6.638 -18.138  0.00  0.00     0.177 HD
ENDBRANCH   4   5
ENDBRANCH   3   4
ENDBRANCH   2   3
ENDBRANCH   1   2
BRANCH   1  14
HETATM   14  C           1     -30.471  -7.235 -17.737  0.00  0.00     0.196 C 
HETATM   15  O           1     -29.783  -8.059 -17.095  0.00  0.00    -0.646 OA
HETATM   16  O           1     -31.062  -7.593 -18.779  0.00  0.00    -0.646 OA
ENDBRANCH   1  14
BRANCH   1  17
HETATM   17  N           1     -31.910  -5.601 -16.692  0.00  0.00    -0.345 N 
HETATM   18  C           1     -32.516  -4.379 -16.811  0.00  0.00     0.251 C 
HETATM   19  O           1     -31.952  -3.477 -17.383  0.00  0.00    -0.271 OA
HETATM   20  H           1     -32.382  -6.356 -16.212  0.00  0.00     0.163 HD
BRANCH  18  21
HETATM   21  C           1     -33.890  -4.160 -16.226  0.00  0.00     0.298 C 
BRANCH  21  22
HETATM   22  C           1     -34.388  -2.770 -16.604  0.00  0.00     0.224 C 
BRANCH  22  23
HETATM   23  O           1     -35.150  -2.244 -15.552  0.00  0.00    -0.287 OA
BRANCH  23  24
HETATM   24  P           1     -35.810  -0.793 -15.813  0.00  0.00     0.406 P 
HETATM   25  O           1     -34.803   0.260 -15.554  0.00  0.00    -0.624 OA
HETATM   26  O           1     -36.965  -0.607 -14.906  0.00  0.00    -0.624 OA
BRANCH  24  27
HETATM   27  O           1     -36.308  -0.695 -17.347  0.00  0.00    -0.300 OA
HETATM   28  H           1     -35.520  -0.728 -17.860  0.00  0.00     0.223 HD
ENDBRANCH  24  27
ENDBRANCH  23  24
ENDBRANCH  22  23
ENDBRANCH  21  22
BRANCH  21  29
HETATM   29  N           1     -33.821  -4.276 -14.732  0.00  0.00    -0.064 N 
HETATM   30  H           1     -33.252  -3.488 -14.347  0.00  0.00     0.275 HD
HETATM   31  H           1     -34.788  -4.233 -14.335  0.00  0.00     0.275 HD
HETATM   32  H           1     -33.377  -5.185 -14.473  0.00  0.00     0.275 HD
ENDBRANCH  21  29
ENDBRANCH  18  21
ENDBRANCH   1  17
TORSDOF 12
ENDMDL
MODEL 3
REMARK VINA RESULT:      -6.6      5.622      9.182
REMARK  12 active torsions:
REMARK  status: ('A' for Active; 'I' for Inactive)
REMARK       I    between atoms: N_1  and  C_2 
REMARK       I    between atoms: C_2  and  N_3 
REMARK    1  A    between atoms: N_4  and  C_5 
REMARK    2  A    between atoms: C_5  and  C_6 
REMARK    3  A    between atoms: C_6  and  C_7 
REMARK    4  A    between atoms: C_7  and  C_8 
REMARK    5  A    between atoms: C_8  and  C_9 
REMARK    6  A    between atoms: C_8  and  N_12 
REMARK       I    between atoms: N_12  and  C_13 
REMARK    7  A    between atoms: C_13  and  C_14 
REMARK    8  A    between atoms: C_14  and  C_15 
REMARK    9  A    between atoms: C_14  and  N_21 
REMARK   10  A    between atoms: C_15  and  O_16 
REMARK   11  A    between atoms: O_16  and  P_17 
REMARK   12  A    between atoms: P_17  and  O_18 
ROOT
HETATM    1  C           1     -27.677  -6.284 -17.367  0.00  0.00     0.185 C 
ENDROOT
BRANCH   1   2
HETATM    2  C           1     -26.846  -6.043 -18.620  0.00  0.00     0.038 C 
BRANCH   2   3
HETATM    3  C           1     -27.574  -6.611 -19.831  0.00  0.00     0.023 C 
BRANCH   3   4
HETATM    4  C           1     -26.597  -7.408 -20.685  0.00  0.00     0.138 C 
BRANCH   4   5
HETATM    5  N           1     -25.287  -7.451 -20.019  0.00  0.00    -0.227 N 
HETATM    6  C           1     -24.283  -7.923 -20.629  0.00  0.00     0.665 C 
HETATM    7  N           1     -23.125  -7.962 -20.040  0.00  0.00    -0.235 N 
HETATM    8  N           1     -24.407  -8.358 -21.812  0.00  0.00    -0.235 N 
HETATM    9  H           1     -23.022  -7.604 -19.064  0.00  0.00     0.174 HD
HETATM   10  H           1     -22.296  -8.352 -20.543  0.00  0.00     0.174 HD
HETATM   11  H           1     -25.343  -8.327 -22.287  0.00  0.00     0.174 HD
HETATM   12  H           1     -23.574  -8.749 -22.317  0.00  0.00     0.174 HD
HETATM   13  H           1     -25.184  -7.091 -19.039  0.00  0.00     0.177 HD
ENDBRANCH   4   5
ENDBRANCH   3   4
ENDBRANCH   2   3
ENDBRANCH   1   2
BRANCH   1  14
HETATM   14  C           1     -26.761  -6.479 -16.184  0.00  0.00     0.196 C 
HETATM   15  O           1     -26.961  -7.420 -15.386  0.00  0.00    -0.646 OA
HETATM   16  O           1     -25.800  -5.700 -16.002  0.00  0.00    -0.646 OA
ENDBRANCH   1  14
BRANCH   1  17
HETATM   17  N           1     -28.533  -5.137 -17.129  0.00  0.00    -0.345 N 
HETATM   18  C           1     -29.892  -5.264 -17.240  0.00  0.00     0.251 C 
HETATM   19  O           1     -30.377  -6.330 -17.536  0.00  0.00    -0.271 OA
HETATM   20  H           1     -28.127  -4.244 -16.882  0.00  0.00     0.163 HD
BRANCH  18  21
HETATM   21  C           1     -30.783  -4.072 -16.993  0.00  0.00     0.298 C 
BRANCH  21  22
HETATM   22  C           1     -32.230  -4.533 -16.883  0.00  0.00     0.224 C 
BRANCH  22  23
HETATM   23  O           1     -32.672  -4.378 -15.561  0.00  0.00    -0.287 OA
BRANCH  23  24
HETATM   24  P           1     -34.242  -4.049 -15.373  0.00  0.00     0.406 P 
HETATM   25  O           1     -34.653  -3.028 -16.363  0.00  0.00    -0.624 OA
HETATM   26  O           1     -34.477  -3.534 -14.005  0.00  0.00    -0.624 OA
BRANCH  24  27
HETATM   27  O           1     -35.105  -5.395 -15.599  0.00  0.00    -0.300 OA
HETATM   28  H           1     -35.979  -5.095 -15.783  0.00  0.00     0.223 HD
ENDBRANCH  24  27
ENDBRANCH  23  24
ENDBRANCH  22  23
ENDBRANCH  21  22
BRANCH  21  29
HETATM   29  N           1     -30.652  -3.106 -18.134  0.00  0.00    -0.064 N 
HETATM   30  H           1     -29.706  -3.203 -18.566  0.00  0.00     0.275 HD
HETATM   31  H           1     -31.384  -3.314 -18.851  0.00  0.00     0.275 HD
HETATM   32  H           1     -30.776  -2.131 -17.781  0.00  0.00     0.275 HD
ENDBRANCH  21  29
ENDBRANCH  18  21
ENDBRANCH   1  17
TORSDOF 12
ENDMDL
MODEL 4
REMARK VINA RESULT:      -6.6     13.028     14.502
REMARK  12 active torsions:
REMARK  status: ('A' for Active; 'I' for Inactive)
REMARK       I    between atoms: N_1  and  C_2 
REMARK       I    between atoms: C_2  and  N_3 
REMARK    1  A    between atoms: N_4  and  C_5 
REMARK    2  A    between atoms: C_5  and  C_6 
REMARK    3  A    between atoms: C_6  and  C_7 
REMARK    4  A    between atoms: C_7  and  C_8 
REMARK    5  A    between atoms: C_8  and  C_9 
REMARK    6  A    between atoms: C_8  and  N_12 
REMARK       I    between atoms: N_12  and  C_13 
REMARK    7  A    between atoms: C_13  and  C_14 
REMARK    8  A    between atoms: C_14  and  C_15 
REMARK    9  A    between atoms: C_14  and  N_21 
REMARK   10  A    between atoms: C_15  and  O_16 
REMARK   11  A    between atoms: O_16  and  P_17 
REMARK   12  A    between atoms: P_17  and  O_18 
ROOT
HETATM    1  C           1     -21.155  -6.461  -4.654  0.00  0.00     0.185 C 
ENDROOT
BRANCH   1   2
HETATM    2  C           1     -22.211  -6.366  -3.561  0.00  0.00     0.038 C 
BRANCH   2   3
HETATM    3  C           1     -21.539  -6.055  -2.230  0.00  0.00     0.023 C 
BRANCH   3   4
HETATM    4  C           1     -22.327  -6.701  -1.099  0.00  0.00     0.138 C 
BRANCH   4   5
HETATM    5  N           1     -22.123  -8.157  -1.127  0.00  0.00    -0.227 N 
HETATM    6  C           1     -22.736  -8.898  -0.305  0.00  0.00     0.665 C 
HETATM    7  N           1     -22.555 -10.185  -0.330  0.00  0.00    -0.235 N 
HETATM    8  N           1     -23.526  -8.387   0.542  0.00  0.00    -0.235 N 
HETATM    9  H           1     -21.903 -10.608  -1.029  0.00  0.00     0.174 HD
HETATM   10  H           1     -23.061 -10.798   0.348  0.00  0.00     0.174 HD
HETATM   11  H           1     -23.672  -7.347   0.562  0.00  0.00     0.174 HD
HETATM   12  H           1     -24.035  -9.002   1.224  0.00  0.00     0.174 HD
HETATM   13  H           1     -21.468  -8.581  -1.829  0.00  0.00     0.177 HD
ENDBRANCH   4   5
ENDBRANCH   3   4
ENDBRANCH   2   3
ENDBRANCH   1   2
BRANCH   1  14
HETATM   14  C           1     -20.887  -7.911  -4.970  0.00  0.00     0.196 C 
HETATM   15  O           1     -19.979  -8.219  -5.774  0.00  0.00    -0.646 OA
HETATM   16  O           1     -21.571  -8.807  -4.429  0.00  0.00    -0.646 OA
ENDBRANCH   1  14
BRANCH   1  17
HETATM   17  N           1     -21.635  -5.788  -5.847  0.00  0.00    -0.345 N 
HETATM   18  C           1     -20.878  -4.807  -6.429  0.00  0.00     0.251 C 
HETATM   19  O           1     -19.812  -4.501  -5.950  0.00  0.00    -0.271 OA
HETATM   20  H           1     -22.528  -6.044  -6.247  0.00  0.00     0.163 HD
BRANCH  18  21
HETATM   21  C           1     -21.376  -4.107  -7.669  0.00  0.00     0.298 C 
BRANCH  21  22
HETATM   22  C           1     -22.804  -4.548  -7.963  0.00  0.00     0.224 C 
BRANCH  22  23
HETATM   23  O           1     -23.462  -3.549  -8.694  0.00  0.00    -0.287 OA
BRANCH  23  24
HETATM   24  P           1     -23.728  -3.870 -10.254  0.00  0.00     0.406 P 
HETATM   25  O           1     -23.841  -5.334 -10.443  0.00  0.00    -0.624 OA
HETATM   26  O           1     -22.601  -3.353 -11.062  0.00  0.00    -0.624 OA
BRANCH  24  27
HETATM   27  O           1     -25.099  -3.159 -10.725  0.00  0.00    -0.300 OA
HETATM   28  H           1     -25.045  -2.281 -10.391  0.00  0.00     0.223 HD
ENDBRANCH  24  27
ENDBRANCH  23  24
ENDBRANCH  22  23
ENDBRANCH  21  22
BRANCH  21  29
HETATM   29  N           1     -20.495  -4.461  -8.830  0.00  0.00    -0.064 N 
HETATM   30  H           1     -20.988  -5.147  -9.446  0.00  0.00     0.275 HD
HETATM   31  H           1     -20.277  -3.597  -9.378  0.00  0.00     0.275 HD
HETATM   32  H           1     -19.608  -4.884  -8.478  0.00  0.00     0.275 HD
ENDBRANCH  21  29
ENDBRANCH  18  21
ENDBRANCH   1  17
TORSDOF 12
ENDMDL
MODEL 5
REMARK VINA RESULT:      -6.5     14.423     16.340
REMARK  12 active torsions:
REMARK  status: ('A' for Active; 'I' for Inactive)
REMARK       I    between atoms: N_1  and  C_2 
REMARK       I    between atoms: C_2  and  N_3 
REMARK    1  A    between atoms: N_4  and  C_5 
REMARK    2  A    between atoms: C_5  and  C_6 
REMARK    3  A    between atoms: C_6  and  C_7 
REMARK    4  A    between atoms: C_7  and  C_8 
REMARK    5  A    between atoms: C_8  and  C_9 
REMARK    6  A    between atoms: C_8  and  N_12 
REMARK       I    between atoms: N_12  and  C_13 
REMARK    7  A    between atoms: C_13  and  C_14 
REMARK    8  A    between atoms: C_14  and  C_15 
REMARK    9  A    between atoms: C_14  and  N_21 
REMARK   10  A    between atoms: C_15  and  O_16 
REMARK   11  A    between atoms: O_16  and  P_17 
REMARK   12  A    between atoms: P_17  and  O_18 
ROOT
HETATM    1  C           1     -21.361  -5.458  -6.818  0.00  0.00     0.185 C 
ENDROOT
BRANCH   1   2
HETATM    2  C           1     -21.944  -4.135  -7.294  0.00  0.00     0.038 C 
BRANCH   2   3
HETATM    3  C           1     -23.283  -4.385  -7.977  0.00  0.00     0.023 C 
BRANCH   3   4
HETATM    4  C           1     -23.268  -3.764  -9.367  0.00  0.00     0.138 C 
BRANCH   4   5
HETATM    5  N           1     -21.879  -3.631  -9.830  0.00  0.00    -0.227 N 
HETATM    6  C           1     -21.555  -4.035 -10.984  0.00  0.00     0.665 C 
HETATM    7  N           1     -20.327  -3.917 -11.394  0.00  0.00    -0.235 N 
HETATM    8  N           1     -22.427  -4.554 -11.742  0.00  0.00    -0.235 N 
HETATM    9  H           1     -19.606  -3.489 -10.769  0.00  0.00     0.174 HD
HETATM   10  H           1     -20.059  -4.251 -12.347  0.00  0.00     0.174 HD
HETATM   11  H           1     -23.419  -4.649 -11.411  0.00  0.00     0.174 HD
HETATM   12  H           1     -22.159  -4.890 -12.699  0.00  0.00     0.174 HD
HETATM   13  H           1     -21.156  -3.200  -9.202  0.00  0.00     0.177 HD
ENDBRANCH   4   5
ENDBRANCH   3   4
ENDBRANCH   2   3
ENDBRANCH   1   2
BRANCH   1  14
HETATM   14  C           1     -20.048  -5.711  -7.517  0.00  0.00     0.196 C 
HETATM   15  O           1     -19.638  -4.911  -8.386  0.00  0.00    -0.646 OA
HETATM   16  O           1     -19.369  -6.720  -7.227  0.00  0.00    -0.646 OA
ENDBRANCH   1  14
BRANCH   1  17
HETATM   17  N           1     -21.140  -5.401  -5.385  0.00  0.00    -0.345 N 
HETATM   18  C           1     -21.557  -6.432  -4.587  0.00  0.00     0.251 C 
HETATM   19  O           1     -22.108  -7.390  -5.076  0.00  0.00    -0.271 OA
HETATM   20  H           1     -20.679  -4.599  -4.976  0.00  0.00     0.163 HD
BRANCH  18  21
HETATM   21  C           1     -21.328  -6.372  -3.097  0.00  0.00     0.298 C 
BRANCH  21  22
HETATM   22  C           1     -21.085  -7.778  -2.563  0.00  0.00     0.224 C 
BRANCH  22  23
HETATM   23  O           1     -20.835  -7.718  -1.185  0.00  0.00    -0.287 OA
BRANCH  23  24
HETATM   24  P           1     -21.956  -8.386  -0.232  0.00  0.00     0.406 P 
HETATM   25  O           1     -22.456  -9.630  -0.858  0.00  0.00    -0.624 OA
HETATM   26  O           1     -23.078  -7.438  -0.052  0.00  0.00    -0.624 OA
BRANCH  24  27
HETATM   27  O           1     -21.306  -8.731   1.205  0.00  0.00    -0.300 OA
HETATM   28  H           1     -20.806  -9.516   1.064  0.00  0.00     0.223 HD
ENDBRANCH  24  27
ENDBRANCH  23  24
ENDBRANCH  22  23
ENDBRANCH  21  22
BRANCH  21  29
HETATM   29  N           1     -22.538  -5.787  -2.429  0.00  0.00    -0.064 N 
HETATM   30  H           1     -22.331  -4.807  -2.131  0.00  0.00     0.275 HD
HETATM   31  H           1     -23.338  -5.784  -3.101  0.00  0.00     0.275 HD
HETATM   32  H           1     -22.785  -6.361  -1.592  0.00  0.00     0.275 HD
ENDBRANCH  21  29
ENDBRANCH  18  21
ENDBRANCH   1  17
TORSDOF 12
ENDMDL
MODEL 6
REMARK VINA RESULT:      -6.0     13.220     14.641
REMARK  12 active torsions:
REMARK  status: ('A' for Active; 'I' for Inactive)
REMARK       I    between atoms: N_1  and  C_2 
REMARK       I    between atoms: C_2  and  N_3 
REMARK    1  A    between atoms: N_4  and  C_5 
REMARK    2  A    between atoms: C_5  and  C_6 
REMARK    3  A    between atoms: C_6  and  C_7 
REMARK    4  A    between atoms: C_7  and  C_8 
REMARK    5  A    between atoms: C_8  and  C_9 
REMARK    6  A    between atoms: C_8  and  N_12 
REMARK       I    between atoms: N_12  and  C_13 
REMARK    7  A    between atoms: C_13  and  C_14 
REMARK    8  A    between atoms: C_14  and  C_15 
REMARK    9  A    between atoms: C_14  and  N_21 
REMARK   10  A    between atoms: C_15  and  O_16 
REMARK   11  A    between atoms: O_16  and  P_17 
REMARK   12  A    between atoms: P_17  and  O_18 
ROOT
HETATM    1  C           1     -21.634  -7.227  -4.399  0.00  0.00     0.185 C 
ENDROOT
BRANCH   1   2
HETATM    2  C           1     -20.755  -8.468  -4.474  0.00  0.00     0.038 C 
BRANCH   2   3
HETATM    3  C           1     -21.624  -9.715  -4.365  0.00  0.00     0.023 C 
BRANCH   3   4
HETATM    4  C           1     -21.331 -10.425  -3.050  0.00  0.00     0.138 C 
BRANCH   4   5
HETATM    5  N           1     -22.383 -10.103  -2.074  0.00  0.00    -0.227 N 
HETATM    6  C           1     -22.070  -9.726  -0.907  0.00  0.00     0.665 C 
HETATM    7  N           1     -23.000  -9.442  -0.044  0.00  0.00    -0.235 N 
HETATM    8  N           1     -20.850  -9.626  -0.580  0.00  0.00    -0.235 N 
HETATM    9  H           1     -24.006  -9.524  -0.314  0.00  0.00     0.174 HD
HETATM   10  H           1     -22.741  -9.130   0.919  0.00  0.00     0.174 HD
HETATM   11  H           1     -20.099  -9.855  -1.276  0.00  0.00     0.174 HD
HETATM   12  H           1     -20.591  -9.313   0.388  0.00  0.00     0.174 HD
HETATM   13  H           1     -23.394 -10.186  -2.345  0.00  0.00     0.177 HD
ENDBRANCH   4   5
ENDBRANCH   3   4
ENDBRANCH   2   3
ENDBRANCH   1   2
BRANCH   1  14
HETATM   14  C           1     -21.624  -6.687  -2.990  0.00  0.00     0.196 C 
HETATM   15  O           1     -22.503  -5.876  -2.624  0.00  0.00    -0.646 OA
HETATM   16  O           1     -20.737  -7.051  -2.187  0.00  0.00    -0.646 OA
ENDBRANCH   1  14
BRANCH   1  17
HETATM   17  N           1     -21.121  -6.218  -5.306  0.00  0.00    -0.345 N 
HETATM   18  C           1     -21.989  -5.429  -6.012  0.00  0.00     0.251 C 
HETATM   19  O           1     -23.182  -5.574  -5.880  0.00  0.00    -0.271 OA
HETATM   20  H           1     -20.123  -6.097  -5.417  0.00  0.00     0.163 HD
BRANCH  18  21
HETATM   21  C           1     -21.456  -4.379  -6.956  0.00  0.00     0.298 C 
BRANCH  21  22
HETATM   22  C           1     -21.934  -4.678  -8.371  0.00  0.00     0.224 C 
BRANCH  22  23
HETATM   23  O           1     -23.005  -3.832  -8.691  0.00  0.00    -0.287 OA
BRANCH  23  24
HETATM   24  P           1     -23.513  -3.882 -10.224  0.00  0.00     0.406 P 
HETATM   25  O           1     -24.707  -3.022 -10.376  0.00  0.00    -0.624 OA
HETATM   26  O           1     -23.859  -5.276 -10.583  0.00  0.00    -0.624 OA
BRANCH  24  27
HETATM   27  O           1     -22.340  -3.350 -11.198  0.00  0.00    -0.300 OA
HETATM   28  H           1     -21.689  -4.030 -11.189  0.00  0.00     0.223 HD
ENDBRANCH  24  27
ENDBRANCH  23  24
ENDBRANCH  22  23
ENDBRANCH  21  22
BRANCH  21  29
HETATM   29  N           1     -19.956  -4.393  -6.922  0.00  0.00    -0.064 N 
HETATM   30  H           1     -19.586  -3.659  -7.567  0.00  0.00     0.275 HD
HETATM   31  H           1     -19.629  -4.197  -5.949  0.00  0.00     0.275 HD
HETATM   32  H           1     -19.610  -5.330  -7.225  0.00  0.00     0.275 HD
ENDBRANCH  21  29
ENDBRANCH  18  21
ENDBRANCH   1  17
TORSDOF 12
ENDMDL
MODEL 7
REMARK VINA RESULT:      -6.0     14.741     16.500
REMARK  12 active torsions:
REMARK  status: ('A' for Active; 'I' for Inactive)
REMARK       I    between atoms: N_1  and  C_2 
REMARK       I    between atoms: C_2  and  N_3 
REMARK    1  A    between atoms: N_4  and  C_5 
REMARK    2  A    between atoms: C_5  and  C_6 
REMARK    3  A    between atoms: C_6  and  C_7 
REMARK    4  A    between atoms: C_7  and  C_8 
REMARK    5  A    between atoms: C_8  and  C_9 
REMARK    6  A    between atoms: C_8  and  N_12 
REMARK       I    between atoms: N_12  and  C_13 
REMARK    7  A    between atoms: C_13  and  C_14 
REMARK    8  A    between atoms: C_14  and  C_15 
REMARK    9  A    between atoms: C_14  and  N_21 
REMARK   10  A    between atoms: C_15  and  O_16 
REMARK   11  A    between atoms: O_16  and  P_17 
REMARK   12  A    between atoms: P_17  and  O_18 
ROOT
HETATM    1  C           1     -20.509  -6.776  -5.426  0.00  0.00     0.185 C 
ENDROOT
BRANCH   1   2
HETATM    2  C           1     -20.341  -6.093  -6.777  0.00  0.00     0.038 C 
BRANCH   2   3
HETATM    3  C           1     -19.984  -4.627  -6.565  0.00  0.00     0.023 C 
BRANCH   3   4
HETATM    4  C           1     -20.594  -3.789  -7.681  0.00  0.00     0.138 C 
BRANCH   4   5
HETATM    5  N           1     -22.052  -3.723  -7.503  0.00  0.00    -0.227 N 
HETATM    6  C           1     -22.821  -4.002  -8.469  0.00  0.00     0.665 C 
HETATM    7  N           1     -24.110  -3.943  -8.311  0.00  0.00    -0.235 N 
HETATM    8  N           1     -22.334  -4.340  -9.588  0.00  0.00    -0.235 N 
HETATM    9  H           1     -24.512  -3.665  -7.387  0.00  0.00     0.174 HD
HETATM   10  H           1     -24.745  -4.174  -9.108  0.00  0.00     0.174 HD
HETATM   11  H           1     -21.293  -4.387  -9.715  0.00  0.00     0.174 HD
HETATM   12  H           1     -22.972  -4.571 -10.389  0.00  0.00     0.174 HD
HETATM   13  H           1     -22.455  -3.443  -6.575  0.00  0.00     0.177 HD
ENDBRANCH   4   5
ENDBRANCH   3   4
ENDBRANCH   2   3
ENDBRANCH   1   2
BRANCH   1  14
HETATM   14  C           1     -21.693  -6.182  -4.705  0.00  0.00     0.196 C 
HETATM   15  O           1     -21.622  -5.940  -3.480  0.00  0.00    -0.646 OA
HETATM   16  O           1     -22.744  -5.929  -5.331  0.00  0.00    -0.646 OA
ENDBRANCH   1  14
BRANCH   1  17
HETATM   17  N           1     -20.730  -8.195  -5.628  0.00  0.00    -0.345 N 
HETATM   18  C           1     -20.006  -9.109  -4.910  0.00  0.00     0.251 C 
HETATM   19  O           1     -19.183  -8.733  -4.109  0.00  0.00    -0.271 OA
HETATM   20  H           1     -21.418  -8.510  -6.299  0.00  0.00     0.163 HD
BRANCH  18  21
HETATM   21  C           1     -20.235 -10.585  -5.120  0.00  0.00     0.298 C 
BRANCH  21  22
HETATM   22  C           1     -21.599 -10.972  -4.564  0.00  0.00     0.224 C 
BRANCH  22  23
HETATM   23  O           1     -22.020 -10.004  -3.641  0.00  0.00    -0.287 OA
BRANCH  23  24
HETATM   24  P           1     -22.119 -10.488  -2.103  0.00  0.00     0.406 P 
HETATM   25  O           1     -23.254 -11.425  -1.953  0.00  0.00    -0.624 OA
HETATM   26  O           1     -22.328  -9.312  -1.229  0.00  0.00    -0.624 OA
BRANCH  24  27
HETATM   27  O           1     -20.748 -11.233  -1.684  0.00  0.00    -0.300 OA
HETATM   28  H           1     -20.999 -11.844  -1.013  0.00  0.00     0.223 HD
ENDBRANCH  24  27
ENDBRANCH  23  24
ENDBRANCH  22  23
ENDBRANCH  21  22
BRANCH  21  29
HETATM   29  N           1     -19.167 -11.362  -4.408  0.00  0.00    -0.064 N 
HETATM   30  H           1     -19.321 -12.385  -4.558  0.00  0.00     0.275 HD
HETATM   31  H           1     -18.231 -11.093  -4.785  0.00  0.00     0.275 HD
HETATM   32  H           1     -19.206 -11.151  -3.385  0.00  0.00     0.275 HD
ENDBRANCH  21  29
ENDBRANCH  18  21
ENDBRANCH   1  17
TORSDOF 12
ENDMDL
MODEL 8
REMARK VINA RESULT:      -5.7     14.503     16.203
REMARK  12 active torsions:
REMARK  status: ('A' for Active; 'I' for Inactive)
REMARK       I    between atoms: N_1  and  C_2 
REMARK       I    between atoms: C_2  and  N_3 
REMARK    1  A    between atoms: N_4  and  C_5 
REMARK    2  A    between atoms: C_5  and  C_6 
REMARK    3  A    between atoms: C_6  and  C_7 
REMARK    4  A    between atoms: C_7  and  C_8 
REMARK    5  A    between atoms: C_8  and  C_9 
REMARK    6  A    between atoms: C_8  and  N_12 
REMARK       I    between atoms: N_12  and  C_13 
REMARK    7  A    between atoms: C_13  and  C_14 
REMARK    8  A    between atoms: C_14  and  C_15 
REMARK    9  A    between atoms: C_14  and  N_21 
REMARK   10  A    between atoms: C_15  and  O_16 
REMARK   11  A    between atoms: O_16  and  P_17 
REMARK   12  A    between atoms: P_17  and  O_18 
ROOT
HETATM    1  C           1     -20.751  -6.880  -5.318  0.00  0.00     0.185 C 
ENDROOT
BRANCH   1   2
HETATM    2  C           1     -20.504  -6.138  -6.625  0.00  0.00     0.038 C 
BRANCH   2   3
HETATM    3  C           1     -20.069  -4.709  -6.324  0.00  0.00     0.023 C 
BRANCH   3   4
HETATM    4  C           1     -20.699  -3.762  -7.337  0.00  0.00     0.138 C 
BRANCH   4   5
HETATM    5  N           1     -22.162  -3.900  -7.294  0.00  0.00    -0.227 N 
HETATM    6  C           1     -22.831  -3.882  -8.368  0.00  0.00     0.665 C 
HETATM    7  N           1     -24.125  -4.004  -8.330  0.00  0.00    -0.235 N 
HETATM    8  N           1     -22.240  -3.745  -9.480  0.00  0.00    -0.235 N 
HETATM    9  H           1     -24.612  -4.117  -7.413  0.00  0.00     0.174 HD
HETATM   10  H           1     -24.678  -3.989  -9.217  0.00  0.00     0.174 HD
HETATM   11  H           1     -21.196  -3.647  -9.511  0.00  0.00     0.174 HD
HETATM   12  H           1     -22.796  -3.730 -10.371  0.00  0.00     0.174 HD
HETATM   13  H           1     -22.651  -4.014  -6.373  0.00  0.00     0.177 HD
ENDBRANCH   4   5
ENDBRANCH   3   4
ENDBRANCH   2   3
ENDBRANCH   1   2
BRANCH   1  14
HETATM   14  C           1     -21.982  -6.323  -4.647  0.00  0.00     0.196 C 
HETATM   15  O           1     -21.945  -5.999  -3.440  0.00  0.00    -0.646 OA
HETATM   16  O           1     -23.040  -6.184  -5.298  0.00  0.00    -0.646 OA
ENDBRANCH   1  14
BRANCH   1  17
HETATM   17  N           1     -20.949  -8.290  -5.594  0.00  0.00    -0.345 N 
HETATM   18  C           1     -20.899  -9.200  -4.573  0.00  0.00     0.251 C 
HETATM   19  O           1     -20.692  -8.830  -3.442  0.00  0.00    -0.271 OA
HETATM   20  H           1     -21.122  -8.601  -6.542  0.00  0.00     0.163 HD
BRANCH  18  21
HETATM   21  C           1     -21.105 -10.667  -4.861  0.00  0.00     0.298 C 
BRANCH  21  22
HETATM   22  C           1     -19.843 -11.439  -4.494  0.00  0.00     0.224 C 
BRANCH  22  23
HETATM   23  O           1     -18.724 -10.612  -4.661  0.00  0.00    -0.287 OA
BRANCH  23  24
HETATM   24  P           1     -17.705 -11.029  -5.843  0.00  0.00     0.406 P 
HETATM   25  O           1     -17.006 -12.280  -5.472  0.00  0.00    -0.624 OA
HETATM   26  O           1     -16.713  -9.949  -6.042  0.00  0.00    -0.624 OA
BRANCH  24  27
HETATM   27  O           1     -18.533 -11.261  -7.210  0.00  0.00    -0.300 OA
HETATM   28  H           1     -18.027 -11.888  -7.697  0.00  0.00     0.223 HD
ENDBRANCH  24  27
ENDBRANCH  23  24
ENDBRANCH  22  23
ENDBRANCH  21  22
BRANCH  21  29
HETATM   29  N           1     -21.397 -10.854  -6.321  0.00  0.00    -0.064 N 
HETATM   30  H           1     -21.546 -11.869  -6.519  0.00  0.00     0.275 HD
HETATM   31  H           1     -22.260 -10.320  -6.573  0.00  0.00     0.275 HD
HETATM   32  H           1     -20.591 -10.504  -6.885  0.00  0.00     0.275 HD
ENDBRANCH  21  29
ENDBRANCH  18  21
ENDBRANCH   1  17
TORSDOF 12
ENDMDL
MODEL 9
REMARK VINA RESULT:      -5.7     13.740     15.201
REMARK  12 active torsions:
REMARK  status: ('A' for Active; 'I' for Inactive)
REMARK       I    between atoms: N_1  and  C_2 
REMARK       I    between atoms: C_2  and  N_3 
REMARK    1  A    between atoms: N_4  and  C_5 
REMARK    2  A    between atoms: C_5  and  C_6 
REMARK    3  A    between atoms: C_6  and  C_7 
REMARK    4  A    between atoms: C_7  and  C_8 
REMARK    5  A    between atoms: C_8  and  C_9 
REMARK    6  A    between atoms: C_8  and  N_12 
REMARK       I    between atoms: N_12  and  C_13 
REMARK    7  A    between atoms: C_13  and  C_14 
REMARK    8  A    between atoms: C_14  and  C_15 
REMARK    9  A    between atoms: C_14  and  N_21 
REMARK   10  A    between atoms: C_15  and  O_16 
REMARK   11  A    between atoms: O_16  and  P_17 
REMARK   12  A    between atoms: P_17  and  O_18 
ROOT
HETATM    1  C           1     -21.676  -7.599  -3.760  0.00  0.00     0.185 C 
ENDROOT
BRANCH   1   2
HETATM    2  C           1     -20.962  -8.944  -3.731  0.00  0.00     0.038 C 
BRANCH   2   3
HETATM    3  C           1     -20.510  -9.311  -5.139  0.00  0.00     0.023 C 
BRANCH   3   4
HETATM    4  C           1     -19.053  -9.753  -5.105  0.00  0.00     0.138 C 
BRANCH   4   5
HETATM    5  N           1     -18.726 -10.459  -6.353  0.00  0.00    -0.227 N 
HETATM    6  C           1     -18.339 -11.663  -6.316  0.00  0.00     0.665 C 
HETATM    7  N           1     -18.049 -12.287  -7.420  0.00  0.00    -0.235 N 
HETATM    8  N           1     -18.233 -12.261  -5.205  0.00  0.00    -0.235 N 
HETATM    9  H           1     -18.137 -11.794  -8.337  0.00  0.00     0.174 HD
HETATM   10  H           1     -17.730 -13.281  -7.390  0.00  0.00     0.174 HD
HETATM   11  H           1     -18.466 -11.757  -4.314  0.00  0.00     0.174 HD
HETATM   12  H           1     -17.911 -13.260  -5.175  0.00  0.00     0.174 HD
HETATM   13  H           1     -18.814  -9.964  -7.274  0.00  0.00     0.177 HD
ENDBRANCH   4   5
ENDBRANCH   3   4
ENDBRANCH   2   3
ENDBRANCH   1   2
BRANCH   1  14
HETATM   14  C           1     -21.531  -6.923  -2.420  0.00  0.00     0.196 C 
HETATM   15  O           1     -22.212  -5.909  -2.153  0.00  0.00    -0.646 OA
HETATM   16  O           1     -20.730  -7.377  -1.574  0.00  0.00    -0.646 OA
ENDBRANCH   1  14
BRANCH   1  17
HETATM   17  N           1     -21.086  -6.763  -4.788  0.00  0.00    -0.345 N 
HETATM   18  C           1     -21.886  -5.971  -5.567  0.00  0.00     0.251 C 
HETATM   19  O           1     -23.082  -5.968  -5.398  0.00  0.00    -0.271 OA
HETATM   20  H           1     -20.084  -6.766  -4.931  0.00  0.00     0.163 HD
BRANCH  18  21
HETATM   21  C           1     -21.273  -5.101  -6.637  0.00  0.00     0.298 C 
BRANCH  21  22
HETATM   22  C           1     -22.378  -4.405  -7.421  0.00  0.00     0.224 C 
BRANCH  22  23
HETATM   23  O           1     -22.158  -4.580  -8.795  0.00  0.00    -0.287 OA
BRANCH  23  24
HETATM   24  P           1     -23.356  -4.105  -9.769  0.00  0.00     0.406 P 
HETATM   25  O           1     -23.940  -5.286 -10.442  0.00  0.00    -0.624 OA
HETATM   26  O           1     -22.823  -3.170 -10.785  0.00  0.00    -0.624 OA
BRANCH  24  27
HETATM   27  O           1     -24.497  -3.363  -8.899  0.00  0.00    -0.300 OA
HETATM   28  H           1     -24.069  -3.119  -8.096  0.00  0.00     0.223 HD
ENDBRANCH  24  27
ENDBRANCH  23  24
ENDBRANCH  22  23
ENDBRANCH  21  22
BRANCH  21  29
HETATM   29  N           1     -20.461  -5.952  -7.568  0.00  0.00    -0.064 N 
HETATM   30  H           1     -20.166  -6.825  -7.074  0.00  0.00     0.275 HD
HETATM   31  H           1     -21.038  -6.203  -8.402  0.00  0.00     0.275 HD
HETATM   32  H           1     -19.614  -5.423  -7.875  0.00  0.00     0.275 HD
ENDBRANCH  21  29
ENDBRANCH  18  21
ENDBRANCH   1  17
TORSDOF 12
ENDMDL
