MODEL 1
REMARK VINA RESULT:      -7.4      0.000      0.000
REMARK  6 active torsions:
REMARK  status: ('A' for Active; 'I' for Inactive)
REMARK    1  A    between atoms: C_2  and  C_4 
REMARK    2  A    between atoms: C_4  and  C_22 
REMARK    3  A    between atoms: C_4  and  N_12 
REMARK    4  A    between atoms: N_5  and  C_8 
REMARK    5  A    between atoms: C_8  and  C_9 
REMARK       I    between atoms: C_9  and  N_12 
REMARK    6  A    between atoms: C_21  and  C_22 
ROOT
HETATM    1  C           1     -21.158  -6.069  -5.228  0.00  0.00     0.190 C 
ENDROOT
BRANCH   1   2
HETATM    2  C           1     -20.674  -7.378  -5.803  0.00  0.00     0.197 C 
HETATM    3  O           1     -21.449  -8.356  -5.868  0.00  0.00    -0.646 OA
HETATM    4  O           1     -19.497  -7.484  -6.212  0.00  0.00    -0.646 OA
ENDBRANCH   1   2
BRANCH   1   5
HETATM    5  C           1     -20.669  -4.919  -6.099  0.00  0.00     0.077 C 
BRANCH   5   6
HETATM    6  C           1     -21.702  -4.603  -7.136  0.00  0.00    -0.028 A 
HETATM    7  C           1     -23.056  -4.485  -6.923  0.00  0.00     0.096 A 
HETATM    8  N           1     -23.645  -4.190  -8.124  0.00  0.00    -0.365 N 
HETATM    9  H           1     -24.674  -4.043  -8.269  0.00  0.00     0.165 HD
HETATM   10  C           1     -22.692  -4.115  -9.116  0.00  0.00     0.042 A 
HETATM   11  C           1     -22.828  -3.842 -10.482  0.00  0.00     0.030 A 
HETATM   12  C           1     -21.458  -4.372  -8.518  0.00  0.00    -0.002 A 
HETATM   13  C           1     -21.664  -3.832 -11.257  0.00  0.00     0.002 A 
HETATM   14  C           1     -20.418  -4.084 -10.687  0.00  0.00     0.001 A 
HETATM   15  C           1     -20.300  -4.355  -9.320  0.00  0.00     0.014 A 
ENDBRANCH   5   6
ENDBRANCH   1   5
BRANCH   1  16
HETATM   16  N           1     -20.639  -5.911  -3.884  0.00  0.00    -0.345 N 
HETATM   17  H           1     -19.904  -5.241  -3.700  0.00  0.00     0.163 HD
HETATM   18  C           1     -21.142  -6.671  -2.862  0.00  0.00     0.243 C 
HETATM   19  O           1     -20.645  -7.740  -2.602  0.00  0.00    -0.272 OA
BRANCH  18  20
HETATM   20  C           1     -22.318  -6.171  -2.059  0.00  0.00     0.332 C 
BRANCH  20  21
HETATM   21  N           1     -22.438  -6.970  -0.795  0.00  0.00    -0.071 N 
HETATM   22  H           1     -21.865  -6.524  -0.044  0.00  0.00     0.274 HD
HETATM   23  H           1     -23.440  -7.000  -0.497  0.00  0.00     0.274 HD
HETATM   24  H           1     -22.095  -7.943  -0.965  0.00  0.00     0.274 HD
ENDBRANCH  20  21
ENDBRANCH  18  20
ENDBRANCH   1  16
TORSDOF 6
ENDMDL
MODEL 2
REMARK VINA RESULT:      -6.7     14.110     16.744
REMARK  6 active torsions:
REMARK  status: ('A' for Active; 'I' for Inactive)
REMARK    1  A    between atoms: C_2  and  C_4 
REMARK    2  A    between atoms: C_4  and  C_22 
REMARK    3  A    between atoms: C_4  and  N_12 
REMARK    4  A    between atoms: N_5  and  C_8 
REMARK    5  A    between atoms: C_8  and  C_9 
REMARK       I    between atoms: C_9  and  N_12 
REMARK    6  A    between atoms: C_21  and  C_22 
ROOT
HETATM    1  C           1     -36.258  -0.483 -12.501  0.00  0.00     0.190 C 
ENDROOT
BRANCH   1   2
HETATM    2  C           1     -36.835   0.226 -11.301  0.00  0.00     0.197 C 
HETATM    3  O           1     -36.076   0.770 -10.471  0.00  0.00    -0.646 OA
HETATM    4  O           1     -38.074   0.267 -11.136  0.00  0.00    -0.646 OA
ENDBRANCH   1   2
BRANCH   1   5
HETATM    5  C           1     -34.919  -1.107 -12.129  0.00  0.00     0.077 C 
BRANCH   5   6
HETATM    6  C           1     -35.149  -2.450 -11.506  0.00  0.00    -0.028 A 
HETATM    7  C           1     -36.278  -2.846 -10.827  0.00  0.00     0.096 A 
HETATM    8  N           1     -36.088  -4.140 -10.420  0.00  0.00    -0.365 N 
HETATM    9  H           1     -36.784  -4.707  -9.876  0.00  0.00     0.165 HD
HETATM   10  C           1     -34.852  -4.591 -10.825  0.00  0.00     0.042 A 
HETATM   11  C           1     -34.235  -5.833 -10.637  0.00  0.00     0.030 A 
HETATM   12  C           1     -34.239  -3.542 -11.513  0.00  0.00    -0.002 A 
HETATM   13  C           1     -32.954  -6.006 -11.171  0.00  0.00     0.002 A 
HETATM   14  C           1     -32.318  -4.977 -11.862  0.00  0.00     0.001 A 
HETATM   15  C           1     -32.949  -3.741 -12.041  0.00  0.00     0.014 A 
ENDBRANCH   5   6
ENDBRANCH   1   5
BRANCH   1  16
HETATM   16  N           1     -36.064   0.469 -13.577  0.00  0.00    -0.345 N 
HETATM   17  H           1     -35.613   1.355 -13.394  0.00  0.00     0.163 HD
HETATM   18  C           1     -36.493   0.168 -14.842  0.00  0.00     0.243 C 
HETATM   19  O           1     -37.611   0.466 -15.188  0.00  0.00    -0.272 OA
BRANCH  18  20
HETATM   20  C           1     -35.566  -0.533 -15.805  0.00  0.00     0.332 C 
BRANCH  20  21
HETATM   21  N           1     -36.275  -0.757 -17.108  0.00  0.00    -0.071 N 
HETATM   22  H           1     -37.218  -1.169 -16.926  0.00  0.00     0.274 HD
HETATM   23  H           1     -36.385   0.156 -17.606  0.00  0.00     0.274 HD
HETATM   24  H           1     -35.717  -1.413 -17.700  0.00  0.00     0.274 HD
ENDBRANCH  20  21
ENDBRANCH  18  20
ENDBRANCH   1  16
TORSDOF 6
ENDMDL
MODEL 3
REMARK VINA RESULT:      -6.6      2.526      6.873
REMARK  6 active torsions:
REMARK  status: ('A' for Active; 'I' for Inactive)
REMARK    1  A    between atoms: C_2  and  C_4 
REMARK    2  A    between atoms: C_4  and  C_22 
REMARK    3  A    between atoms: C_4  and  N_12 
REMARK    4  A    between atoms: N_5  and  C_8 
REMARK    5  A    between atoms: C_8  and  C_9 
REMARK       I    between atoms: C_9  and  N_12 
REMARK    6  A    between atoms: C_21  and  C_22 
ROOT
HETATM    1  C           1     -20.086  -7.559  -5.222  0.00  0.00     0.190 C 
ENDROOT
BRANCH   1   2
HETATM    2  C           1     -19.033  -8.639  -5.256  0.00  0.00     0.197 C 
HETATM    3  O           1     -18.683  -9.204  -4.198  0.00  0.00    -0.646 OA
HETATM    4  O           1     -18.510  -8.968  -6.343  0.00  0.00    -0.646 OA
ENDBRANCH   1   2
BRANCH   1   5
HETATM    5  C           1     -21.389  -8.134  -4.682  0.00  0.00     0.077 C 
BRANCH   5   6
HETATM    6  C           1     -21.719  -7.482  -3.375  0.00  0.00    -0.028 A 
HETATM    7  C           1     -22.049  -6.159  -3.188  0.00  0.00     0.096 A 
HETATM    8  N           1     -22.278  -5.970  -1.851  0.00  0.00    -0.365 N 
HETATM    9  H           1     -22.548  -5.055  -1.411  0.00  0.00     0.165 HD
HETATM   10  C           1     -22.102  -7.151  -1.165  0.00  0.00     0.042 A 
HETATM   11  C           1     -22.227  -7.432   0.200  0.00  0.00     0.030 A 
HETATM   12  C           1     -21.749  -8.121  -2.105  0.00  0.00    -0.002 A 
HETATM   13  C           1     -21.983  -8.745   0.615  0.00  0.00     0.002 A 
HETATM   14  C           1     -21.629  -9.734  -0.301  0.00  0.00     0.001 A 
HETATM   15  C           1     -21.509  -9.436  -1.662  0.00  0.00     0.014 A 
ENDBRANCH   5   6
ENDBRANCH   1   5
BRANCH   1  16
HETATM   16  N           1     -20.301  -7.052  -6.563  0.00  0.00    -0.345 N 
HETATM   17  H           1     -20.368  -7.693  -7.342  0.00  0.00     0.163 HD
HETATM   18  C           1     -20.411  -5.703  -6.775  0.00  0.00     0.243 C 
HETATM   19  O           1     -19.426  -5.046  -7.012  0.00  0.00    -0.272 OA
BRANCH  18  20
HETATM   20  C           1     -21.765  -5.040  -6.716  0.00  0.00     0.332 C 
BRANCH  20  21
HETATM   21  N           1     -21.655  -3.631  -7.220  0.00  0.00    -0.071 N 
HETATM   22  H           1     -21.512  -2.982  -6.414  0.00  0.00     0.274 HD
HETATM   23  H           1     -20.842  -3.559  -7.874  0.00  0.00     0.274 HD
HETATM   24  H           1     -22.533  -3.373  -7.724  0.00  0.00     0.274 HD
ENDBRANCH  20  21
ENDBRANCH  18  20
ENDBRANCH   1  16
TORSDOF 6
ENDMDL
MODEL 4
REMARK VINA RESULT:      -6.4      2.189      3.610
REMARK  6 active torsions:
REMARK  status: ('A' for Active; 'I' for Inactive)
REMARK    1  A    between atoms: C_2  and  C_4 
REMARK    2  A    between atoms: C_4  and  C_22 
REMARK    3  A    between atoms: C_4  and  N_12 
REMARK    4  A    between atoms: N_5  and  C_8 
REMARK    5  A    between atoms: C_8  and  C_9 
REMARK       I    between atoms: C_9  and  N_12 
REMARK    6  A    between atoms: C_21  and  C_22 
ROOT
HETATM    1  C           1     -21.433  -7.359  -3.918  0.00  0.00     0.190 C 
ENDROOT
BRANCH   1   2
HETATM    2  C           1     -21.556  -6.862  -2.499  0.00  0.00     0.197 C 
HETATM    3  O           1     -20.859  -7.371  -1.595  0.00  0.00    -0.646 OA
HETATM    4  O           1     -22.356  -5.940  -2.227  0.00  0.00    -0.646 OA
ENDBRANCH   1   2
BRANCH   1   5
HETATM    5  C           1     -22.169  -6.411  -4.855  0.00  0.00     0.077 C 
BRANCH   5   6
HETATM    6  C           1     -21.302  -6.101  -6.036  0.00  0.00    -0.028 A 
HETATM    7  C           1     -20.023  -6.565  -6.248  0.00  0.00     0.096 A 
HETATM    8  N           1     -19.584  -6.052  -7.439  0.00  0.00    -0.365 N 
HETATM    9  H           1     -18.640  -6.234  -7.860  0.00  0.00     0.165 HD
HETATM   10  C           1     -20.558  -5.260  -8.006  0.00  0.00     0.042 A 
HETATM   11  C           1     -20.554  -4.541  -9.206  0.00  0.00     0.030 A 
HETATM   12  C           1     -21.652  -5.276  -7.140  0.00  0.00    -0.002 A 
HETATM   13  C           1     -21.706  -3.815  -9.528  0.00  0.00     0.002 A 
HETATM   14  C           1     -22.813  -3.811  -8.682  0.00  0.00     0.001 A 
HETATM   15  C           1     -22.801  -4.537  -7.486  0.00  0.00     0.014 A 
ENDBRANCH   5   6
ENDBRANCH   1   5
BRANCH   1  16
HETATM   16  N           1     -22.013  -8.684  -4.017  0.00  0.00    -0.345 N 
HETATM   17  H           1     -23.017  -8.800  -3.983  0.00  0.00     0.163 HD
HETATM   18  C           1     -21.201  -9.778  -4.158  0.00  0.00     0.243 C 
HETATM   19  O           1     -20.797 -10.359  -3.180  0.00  0.00    -0.272 OA
BRANCH  18  20
HETATM   20  C           1     -20.814 -10.258  -5.535  0.00  0.00     0.332 C 
BRANCH  20  21
HETATM   21  N           1     -19.353 -10.004  -5.761  0.00  0.00    -0.071 N 
HETATM   22  H           1     -19.103 -10.257  -6.744  0.00  0.00     0.274 HD
HETATM   23  H           1     -19.148  -8.992  -5.600  0.00  0.00     0.274 HD
HETATM   24  H           1     -18.793 -10.585  -5.098  0.00  0.00     0.274 HD
ENDBRANCH  20  21
ENDBRANCH  18  20
ENDBRANCH   1  16
TORSDOF 6
ENDMDL
MODEL 5
REMARK VINA RESULT:      -6.3      1.761      2.193
REMARK  6 active torsions:
REMARK  status: ('A' for Active; 'I' for Inactive)
REMARK    1  A    between atoms: C_2  and  C_4 
REMARK    2  A    between atoms: C_4  and  C_22 
REMARK    3  A    between atoms: C_4  and  N_12 
REMARK    4  A    between atoms: N_5  and  C_8 
REMARK    5  A    between atoms: C_8  and  C_9 
REMARK       I    between atoms: C_9  and  N_12 
REMARK    6  A    between atoms: C_21  and  C_22 
ROOT
HETATM    1  C           1     -21.716  -5.651  -6.490  0.00  0.00     0.190 C 
ENDROOT
BRANCH   1   2
HETATM    2  C           1     -20.211  -5.654  -6.392  0.00  0.00     0.197 C 
HETATM    3  O           1     -19.559  -6.633  -6.814  0.00  0.00    -0.646 OA
HETATM    4  O           1     -19.616  -4.677  -5.887  0.00  0.00    -0.646 OA
ENDBRANCH   1   2
BRANCH   1   5
HETATM    5  C           1     -22.202  -4.247  -6.822  0.00  0.00     0.077 C 
BRANCH   5   6
HETATM    6  C           1     -22.731  -4.218  -8.223  0.00  0.00    -0.028 A 
HETATM    7  C           1     -24.058  -4.211  -8.589  0.00  0.00     0.096 A 
HETATM    8  N           1     -24.113  -4.182  -9.957  0.00  0.00    -0.365 N 
HETATM    9  H           1     -24.998  -4.172 -10.522  0.00  0.00     0.165 HD
HETATM   10  C           1     -22.842  -4.170 -10.486  0.00  0.00     0.042 A 
HETATM   11  C           1     -22.417  -4.142 -11.819  0.00  0.00     0.030 A 
HETATM   12  C           1     -21.952  -4.192  -9.411  0.00  0.00    -0.002 A 
HETATM   13  C           1     -21.038  -4.136 -12.058  0.00  0.00     0.002 A 
HETATM   14  C           1     -20.127  -4.157 -11.005  0.00  0.00     0.001 A 
HETATM   15  C           1     -20.569  -4.185  -9.678  0.00  0.00     0.014 A 
ENDBRANCH   5   6
ENDBRANCH   1   5
BRANCH   1  16
HETATM   16  N           1     -22.284  -6.072  -5.224  0.00  0.00    -0.345 N 
HETATM   17  H           1     -23.173  -5.700  -4.919  0.00  0.00     0.163 HD
HETATM   18  C           1     -21.614  -6.973  -4.439  0.00  0.00     0.243 C 
HETATM   19  O           1     -20.826  -6.585  -3.611  0.00  0.00    -0.272 OA
BRANCH  18  20
HETATM   20  C           1     -21.863  -8.452  -4.610  0.00  0.00     0.332 C 
BRANCH  20  21
HETATM   21  N           1     -20.797  -9.042  -5.485  0.00  0.00    -0.071 N 
HETATM   22  H           1     -19.963  -8.411  -5.493  0.00  0.00     0.274 HD
HETATM   23  H           1     -20.520  -9.979  -5.112  0.00  0.00     0.274 HD
HETATM   24  H           1     -21.164  -9.147  -6.457  0.00  0.00     0.274 HD
ENDBRANCH  20  21
ENDBRANCH  18  20
ENDBRANCH   1  16
TORSDOF 6
ENDMDL
MODEL 6
REMARK VINA RESULT:      -6.2      3.434      7.476
REMARK  6 active torsions:
REMARK  status: ('A' for Active; 'I' for Inactive)
REMARK    1  A    between atoms: C_2  and  C_4 
REMARK    2  A    between atoms: C_4  and  C_22 
REMARK    3  A    between atoms: C_4  and  N_12 
REMARK    4  A    between atoms: N_5  and  C_8 
REMARK    5  A    between atoms: C_8  and  C_9 
REMARK       I    between atoms: C_9  and  N_12 
REMARK    6  A    between atoms: C_21  and  C_22 
ROOT
HETATM    1  C           1     -19.825  -8.785  -4.653  0.00  0.00     0.190 C 
ENDROOT
BRANCH   1   2
HETATM    2  C           1     -18.572  -9.392  -5.234  0.00  0.00     0.197 C 
HETATM    3  O           1     -17.560  -9.542  -4.518  0.00  0.00    -0.646 OA
HETATM    4  O           1     -18.547  -9.745  -6.434  0.00  0.00    -0.646 OA
ENDBRANCH   1   2
BRANCH   1   5
HETATM    5  C           1     -20.669  -9.876  -4.007  0.00  0.00     0.077 C 
BRANCH   5   6
HETATM    6  C           1     -21.205  -9.385  -2.698  0.00  0.00    -0.028 A 
HETATM    7  C           1     -20.795  -8.256  -2.026  0.00  0.00     0.096 A 
HETATM    8  N           1     -21.533  -8.163  -0.876  0.00  0.00    -0.365 N 
HETATM    9  H           1     -21.438  -7.400  -0.161  0.00  0.00     0.165 HD
HETATM   10  C           1     -22.417  -9.216  -0.790  0.00  0.00     0.042 A 
HETATM   11  C           1     -23.357  -9.530   0.198  0.00  0.00     0.030 A 
HETATM   12  C           1     -22.229 -10.001  -1.929  0.00  0.00    -0.002 A 
HETATM   13  C           1     -24.129 -10.682   0.013  0.00  0.00     0.002 A 
HETATM   14  C           1     -23.964 -11.484  -1.114  0.00  0.00     0.001 A 
HETATM   15  C           1     -23.019 -11.156  -2.092  0.00  0.00     0.014 A 
ENDBRANCH   5   6
ENDBRANCH   1   5
BRANCH   1  16
HETATM   16  N           1     -20.587  -8.147  -5.709  0.00  0.00    -0.345 N 
HETATM   17  H           1     -21.268  -8.679  -6.235  0.00  0.00     0.163 HD
HETATM   18  C           1     -20.385  -6.823  -5.996  0.00  0.00     0.243 C 
HETATM   19  O           1     -19.557  -6.502  -6.814  0.00  0.00    -0.272 OA
BRANCH  18  20
HETATM   20  C           1     -21.198  -5.766  -5.290  0.00  0.00     0.332 C 
BRANCH  20  21
HETATM   21  N           1     -22.543  -6.325  -4.932  0.00  0.00    -0.071 N 
HETATM   22  H           1     -23.070  -6.554  -5.805  0.00  0.00     0.274 HD
HETATM   23  H           1     -22.419  -7.194  -4.364  0.00  0.00     0.274 HD
HETATM   24  H           1     -23.077  -5.618  -4.378  0.00  0.00     0.274 HD
ENDBRANCH  20  21
ENDBRANCH  18  20
ENDBRANCH   1  16
TORSDOF 6
ENDMDL
MODEL 7
REMARK VINA RESULT:      -6.2     14.008     15.988
REMARK  6 active torsions:
REMARK  status: ('A' for Active; 'I' for Inactive)
REMARK    1  A    between atoms: C_2  and  C_4 
REMARK    2  A    between atoms: C_4  and  C_22 
REMARK    3  A    between atoms: C_4  and  N_12 
REMARK    4  A    between atoms: N_5  and  C_8 
REMARK    5  A    between atoms: C_8  and  C_9 
REMARK       I    between atoms: C_9  and  N_12 
REMARK    6  A    between atoms: C_21  and  C_22 
ROOT
HETATM    1  C           1     -36.393  -0.341 -11.138  0.00  0.00     0.190 C 
ENDROOT
BRANCH   1   2
HETATM    2  C           1     -36.865  -0.292 -12.571  0.00  0.00     0.197 C 
HETATM    3  O           1     -38.066  -0.506 -12.841  0.00  0.00    -0.646 OA
HETATM    4  O           1     -36.053  -0.037 -13.487  0.00  0.00    -0.646 OA
ENDBRANCH   1   2
BRANCH   1   5
HETATM    5  C           1     -36.441  -1.778 -10.635  0.00  0.00     0.077 C 
BRANCH   5   6
HETATM    6  C           1     -35.126  -2.444 -10.902  0.00  0.00    -0.028 A 
HETATM    7  C           1     -33.951  -1.814 -11.241  0.00  0.00     0.096 A 
HETATM    8  N           1     -32.990  -2.777 -11.397  0.00  0.00    -0.365 N 
HETATM    9  H           1     -31.990  -2.591 -11.657  0.00  0.00     0.165 HD
HETATM   10  C           1     -33.523  -4.025 -11.164  0.00  0.00     0.042 A 
HETATM   11  C           1     -32.922  -5.288 -11.207  0.00  0.00     0.030 A 
HETATM   12  C           1     -34.870  -3.842 -10.849  0.00  0.00    -0.002 A 
HETATM   13  C           1     -33.726  -6.396 -10.919  0.00  0.00     0.002 A 
HETATM   14  C           1     -35.074  -6.244 -10.602  0.00  0.00     0.001 A 
HETATM   15  C           1     -35.659  -4.974 -10.563  0.00  0.00     0.014 A 
ENDBRANCH   5   6
ENDBRANCH   1   5
BRANCH   1  16
HETATM   16  N           1     -37.255   0.487 -10.317  0.00  0.00    -0.345 N 
HETATM   17  H           1     -38.035   0.977 -10.735  0.00  0.00     0.163 HD
HETATM   18  C           1     -37.014   0.606  -8.974  0.00  0.00     0.243 C 
HETATM   19  O           1     -36.292   1.483  -8.566  0.00  0.00    -0.272 OA
BRANCH  18  20
HETATM   20  C           1     -37.652  -0.359  -8.005  0.00  0.00     0.332 C 
BRANCH  20  21
HETATM   21  N           1     -37.611   0.220  -6.622  0.00  0.00    -0.071 N 
HETATM   22  H           1     -36.637   0.526  -6.400  0.00  0.00     0.274 HD
HETATM   23  H           1     -38.254   1.043  -6.571  0.00  0.00     0.274 HD
HETATM   24  H           1     -37.915  -0.504  -5.933  0.00  0.00     0.274 HD
ENDBRANCH  20  21
ENDBRANCH  18  20
ENDBRANCH   1  16
TORSDOF 6
ENDMDL
MODEL 8
REMARK VINA RESULT:      -6.2      4.585      7.759
REMARK  6 active torsions:
REMARK  status: ('A' for Active; 'I' for Inactive)
REMARK    1  A    between atoms: C_2  and  C_4 
REMARK    2  A    between atoms: C_4  and  C_22 
REMARK    3  A    between atoms: C_4  and  N_12 
REMARK    4  A    between atoms: N_5  and  C_8 
REMARK    5  A    between atoms: C_8  and  C_9 
REMARK       I    between atoms: C_9  and  N_12 
REMARK    6  A    between atoms: C_21  and  C_22 
ROOT
HETATM    1  C           1     -21.065  -7.762  -3.374  0.00  0.00     0.190 C 
ENDROOT
BRANCH   1   2
HETATM    2  C           1     -21.580  -6.369  -3.640  0.00  0.00     0.197 C 
HETATM    3  O           1     -21.075  -5.680  -4.553  0.00  0.00    -0.646 OA
HETATM    4  O           1     -22.511  -5.903  -2.947  0.00  0.00    -0.646 OA
ENDBRANCH   1   2
BRANCH   1   5
HETATM    5  C           1     -20.577  -7.857  -1.934  0.00  0.00     0.077 C 
BRANCH   5   6
HETATM    6  C           1     -21.681  -8.374  -1.065  0.00  0.00    -0.028 A 
HETATM    7  C           1     -22.244  -7.719   0.007  0.00  0.00     0.096 A 
HETATM    8  N           1     -23.217  -8.530   0.528  0.00  0.00    -0.365 N 
HETATM    9  H           1     -23.817  -8.293   1.356  0.00  0.00     0.165 HD
HETATM   10  C           1     -23.294  -9.704  -0.188  0.00  0.00     0.042 A 
HETATM   11  C           1     -24.131 -10.813  -0.020  0.00  0.00     0.030 A 
HETATM   12  C           1     -22.335  -9.630  -1.199  0.00  0.00    -0.002 A 
HETATM   13  C           1     -23.980 -11.878  -0.915  0.00  0.00     0.002 A 
HETATM   14  C           1     -23.031 -11.831  -1.934  0.00  0.00     0.001 A 
HETATM   15  C           1     -22.202 -10.715  -2.088  0.00  0.00     0.014 A 
ENDBRANCH   5   6
ENDBRANCH   1   5
BRANCH   1  16
HETATM   16  N           1     -19.967  -8.052  -4.276  0.00  0.00    -0.345 N 
HETATM   17  H           1     -19.329  -7.317  -4.550  0.00  0.00     0.163 HD
HETATM   18  C           1     -19.796  -9.322  -4.758  0.00  0.00     0.243 C 
HETATM   19  O           1     -20.331  -9.655  -5.788  0.00  0.00    -0.272 OA
BRANCH  18  20
HETATM   20  C           1     -18.935 -10.305  -4.002  0.00  0.00     0.332 C 
BRANCH  20  21
HETATM   21  N           1     -17.748  -9.592  -3.426  0.00  0.00    -0.071 N 
HETATM   22  H           1     -17.826  -9.570  -2.384  0.00  0.00     0.274 HD
HETATM   23  H           1     -16.874 -10.097  -3.698  0.00  0.00     0.274 HD
HETATM   24  H           1     -17.717  -8.615  -3.795  0.00  0.00     0.274 HD
ENDBRANCH  20  21
ENDBRANCH  18  20
ENDBRANCH   1  16
TORSDOF 6
ENDMDL
MODEL 9
REMARK VINA RESULT:      -6.2      4.777      8.440
REMARK  6 active torsions:
REMARK  status: ('A' for Active; 'I' for Inactive)
REMARK    1  A    between atoms: C_2  and  C_4 
REMARK    2  A    between atoms: C_4  and  C_22 
REMARK    3  A    between atoms: C_4  and  N_12 
REMARK    4  A    between atoms: N_5  and  C_8 
REMARK    5  A    between atoms: C_8  and  C_9 
REMARK       I    between atoms: C_9  and  N_12 
REMARK    6  A    between atoms: C_21  and  C_22 
ROOT
HETATM    1  C           1     -21.266  -7.851  -2.959  0.00  0.00     0.190 C 
ENDROOT
BRANCH   1   2
HETATM    2  C           1     -21.705  -6.409  -3.034  0.00  0.00     0.197 C 
HETATM    3  O           1     -21.349  -5.697  -3.997  0.00  0.00    -0.646 OA
HETATM    4  O           1     -22.423  -5.927  -2.132  0.00  0.00    -0.646 OA
ENDBRANCH   1   2
BRANCH   1   5
HETATM    5  C           1     -20.555  -8.099  -1.635  0.00  0.00     0.077 C 
BRANCH   5   6
HETATM    6  C           1     -20.642  -9.552  -1.285  0.00  0.00    -0.028 A 
HETATM    7  C           1     -19.628 -10.476  -1.397  0.00  0.00     0.096 A 
HETATM    8  N           1     -20.115 -11.684  -0.975  0.00  0.00    -0.365 N 
HETATM    9  H           1     -19.565 -12.578  -0.950  0.00  0.00     0.165 HD
HETATM   10  C           1     -21.432 -11.560  -0.590  0.00  0.00     0.042 A 
HETATM   11  C           1     -22.325 -12.519  -0.097  0.00  0.00     0.030 A 
HETATM   12  C           1     -21.788 -10.224  -0.776  0.00  0.00    -0.002 A 
HETATM   13  C           1     -23.620 -12.094   0.215  0.00  0.00     0.002 A 
HETATM   14  C           1     -24.004 -10.766   0.040  0.00  0.00     0.001 A 
HETATM   15  C           1     -23.099  -9.821  -0.454  0.00  0.00     0.014 A 
ENDBRANCH   5   6
ENDBRANCH   1   5
BRANCH   1  16
HETATM   16  N           1     -20.361  -8.138  -4.054  0.00  0.00    -0.345 N 
HETATM   17  H           1     -19.429  -7.746  -4.058  0.00  0.00     0.163 HD
HETATM   18  C           1     -20.769  -8.942  -5.086  0.00  0.00     0.243 C 
HETATM   19  O           1     -21.302  -8.457  -6.055  0.00  0.00    -0.272 OA
BRANCH  18  20
HETATM   20  C           1     -20.548 -10.433  -5.013  0.00  0.00     0.332 C 
BRANCH  20  21
HETATM   21  N           1     -20.570 -11.011  -6.397  0.00  0.00    -0.071 N 
HETATM   22  H           1     -20.539 -12.054  -6.341  0.00  0.00     0.274 HD
HETATM   23  H           1     -21.448 -10.715  -6.883  0.00  0.00     0.274 HD
HETATM   24  H           1     -19.742 -10.665  -6.931  0.00  0.00     0.274 HD
ENDBRANCH  20  21
ENDBRANCH  18  20
ENDBRANCH   1  16
TORSDOF 6
ENDMDL
