MODEL 1
REMARK VINA RESULT:      -7.4      0.000      0.000
REMARK  8 active torsions:
REMARK  status: ('A' for Active; 'I' for Inactive)
REMARK    1  A    between atoms: C_2  and  C_7 
REMARK    2  A    between atoms: C_7  and  C_11 
REMARK    3  A    between atoms: C_11  and  C_12 
REMARK    4  A    between atoms: C_11  and  N_22 
REMARK    5  A    between atoms: N_16  and  C_17 
REMARK    6  A    between atoms: C_17  and  C_23 
REMARK    7  A    between atoms: C_17  and  C_18 
REMARK    8  A    between atoms: C_18  and  C_19 
REMARK       I    between atoms: N_22  and  C_23 
ROOT
HETATM    1  C           1     -22.270  -5.243  -6.775  0.00  0.00     0.260 C 
ENDROOT
BRANCH   1   2
HETATM    2  N           1     -23.631  -4.937  -6.222  0.00  0.00    -0.067 N 
HETATM    3  H           1     -23.804  -5.527  -5.377  0.00  0.00     0.275 HD
HETATM    4  H           1     -24.356  -5.144  -6.947  0.00  0.00     0.275 HD
HETATM    5  H           1     -23.681  -3.928  -5.959  0.00  0.00     0.275 HD
ENDBRANCH   1   2
BRANCH   1   6
HETATM    6  C           1     -21.386  -5.771  -5.671  0.00  0.00     0.130 C 
HETATM    7  O           1     -20.583  -5.041  -5.142  0.00  0.00    -0.397 OA
HETATM    8  N           1     -21.497  -7.075  -5.272  0.00  0.00    -0.359 N 
HETATM    9  H           1     -22.171  -7.686  -5.717  0.00  0.00     0.162 HD
BRANCH   8  10
HETATM   10  C           1     -20.647  -7.583  -4.212  0.00  0.00     0.184 C 
BRANCH  10  11
HETATM   11  C           1     -21.512  -8.204  -3.123  0.00  0.00     0.040 C 
BRANCH  11  12
HETATM   12  C           1     -21.351  -7.412  -1.832  0.00  0.00    -0.018 C 
HETATM   13  C           1     -21.867  -8.237  -0.661  0.00  0.00     0.289 C 
HETATM   14  C           1     -22.149  -6.118  -1.930  0.00  0.00     0.009 C 
ENDBRANCH  11  12
ENDBRANCH  10  11
BRANCH  10  15
HETATM   15  C           1     -19.716  -8.629  -4.772  0.00  0.00     0.196 C 
HETATM   16  O           1     -19.990  -9.197  -5.851  0.00  0.00    -0.646 OA
HETATM   17  O           1     -18.669  -8.926  -4.159  0.00  0.00    -0.646 OA
ENDBRANCH  10  15
ENDBRANCH   8  10
ENDBRANCH   1   6
BRANCH   1  18
HETATM   18  C           1     -21.660  -3.971  -7.350  0.00  0.00     0.079 C 
BRANCH  18  19
HETATM   19  C           1     -21.607  -4.073  -8.844  0.00  0.00    -0.056 A 
HETATM   20  C           1     -20.376  -4.164  -9.493  0.00  0.00     0.007 A 
HETATM   21  C           1     -20.327  -4.259 -10.884  0.00  0.00     0.001 A 
HETATM   22  C           1     -21.509  -4.264 -11.624  0.00  0.00     0.000 A 
HETATM   23  C           1     -22.740  -4.174 -10.975  0.00  0.00     0.001 A 
HETATM   24  C           1     -22.789  -4.079  -9.585  0.00  0.00     0.007 A 
ENDBRANCH  18  19
ENDBRANCH   1  18
TORSDOF 8
ENDMDL
MODEL 2
REMARK VINA RESULT:      -7.0     13.839     15.056
REMARK  8 active torsions:
REMARK  status: ('A' for Active; 'I' for Inactive)
REMARK    1  A    between atoms: C_2  and  C_7 
REMARK    2  A    between atoms: C_7  and  C_11 
REMARK    3  A    between atoms: C_11  and  C_12 
REMARK    4  A    between atoms: C_11  and  N_22 
REMARK    5  A    between atoms: N_16  and  C_17 
REMARK    6  A    between atoms: C_17  and  C_23 
REMARK    7  A    between atoms: C_17  and  C_18 
REMARK    8  A    between atoms: C_18  and  C_19 
REMARK       I    between atoms: N_22  and  C_23 
ROOT
HETATM    1  C           1     -32.861  -4.498 -16.726  0.00  0.00     0.260 C 
ENDROOT
BRANCH   1   2
HETATM    2  N           1     -33.042  -3.298 -17.608  0.00  0.00    -0.067 N 
HETATM    3  H           1     -34.038  -3.240 -17.917  0.00  0.00     0.275 HD
HETATM    4  H           1     -32.421  -3.384 -18.444  0.00  0.00     0.275 HD
HETATM    5  H           1     -32.791  -2.434 -17.077  0.00  0.00     0.275 HD
ENDBRANCH   1   2
BRANCH   1   6
HETATM    6  C           1     -33.810  -4.408 -15.555  0.00  0.00     0.130 C 
HETATM    7  O           1     -34.980  -4.664 -15.707  0.00  0.00    -0.397 OA
HETATM    8  N           1     -33.343  -4.038 -14.323  0.00  0.00    -0.359 N 
HETATM    9  H           1     -32.362  -3.823 -14.197  0.00  0.00     0.162 HD
BRANCH   8  10
HETATM   10  C           1     -34.255  -3.951 -13.198  0.00  0.00     0.184 C 
BRANCH  10  11
HETATM   11  C           1     -33.628  -4.624 -11.984  0.00  0.00     0.040 C 
BRANCH  11  12
HETATM   12  C           1     -34.605  -5.637 -11.403  0.00  0.00    -0.018 C 
HETATM   13  C           1     -35.633  -4.916 -10.541  0.00  0.00     0.289 C 
HETATM   14  C           1     -33.844  -6.644 -10.550  0.00  0.00     0.009 C 
ENDBRANCH  11  12
ENDBRANCH  10  11
BRANCH  10  15
HETATM   15  C           1     -34.529  -2.501 -12.884  0.00  0.00     0.196 C 
HETATM   16  O           1     -34.177  -2.022 -11.785  0.00  0.00    -0.646 OA
HETATM   17  O           1     -35.105  -1.779 -13.725  0.00  0.00    -0.646 OA
ENDBRANCH  10  15
ENDBRANCH   8  10
ENDBRANCH   1   6
BRANCH   1  18
HETATM   18  C           1     -31.427  -4.538 -16.214  0.00  0.00     0.079 C 
BRANCH  18  19
HETATM   19  C           1     -30.600  -5.405 -17.113  0.00  0.00    -0.056 A 
HETATM   20  C           1     -29.438  -4.900 -17.694  0.00  0.00     0.007 A 
HETATM   21  C           1     -28.668  -5.707 -18.532  0.00  0.00     0.001 A 
HETATM   22  C           1     -29.061  -7.020 -18.787  0.00  0.00     0.000 A 
HETATM   23  C           1     -30.223  -7.527 -18.205  0.00  0.00     0.001 A 
HETATM   24  C           1     -30.993  -6.720 -17.368  0.00  0.00     0.007 A 
ENDBRANCH  18  19
ENDBRANCH   1  18
TORSDOF 8
ENDMDL
MODEL 3
REMARK VINA RESULT:      -6.8      1.820      7.311
REMARK  8 active torsions:
REMARK  status: ('A' for Active; 'I' for Inactive)
REMARK    1  A    between atoms: C_2  and  C_7 
REMARK    2  A    between atoms: C_7  and  C_11 
REMARK    3  A    between atoms: C_11  and  C_12 
REMARK    4  A    between atoms: C_11  and  N_22 
REMARK    5  A    between atoms: N_16  and  C_17 
REMARK    6  A    between atoms: C_17  and  C_23 
REMARK    7  A    between atoms: C_17  and  C_18 
REMARK    8  A    between atoms: C_18  and  C_19 
REMARK       I    between atoms: N_22  and  C_23 
ROOT
HETATM    1  C           1     -21.724  -5.967  -5.030  0.00  0.00     0.260 C 
ENDROOT
BRANCH   1   2
HETATM    2  N           1     -23.167  -6.264  -4.748  0.00  0.00    -0.067 N 
HETATM    3  H           1     -23.768  -5.550  -5.218  0.00  0.00     0.275 HD
HETATM    4  H           1     -23.332  -6.237  -3.717  0.00  0.00     0.275 HD
HETATM    5  H           1     -23.405  -7.214  -5.113  0.00  0.00     0.275 HD
ENDBRANCH   1   2
BRANCH   1   6
HETATM    6  C           1     -21.504  -5.915  -6.523  0.00  0.00     0.130 C 
HETATM    7  O           1     -21.016  -6.861  -7.094  0.00  0.00    -0.397 OA
HETATM    8  N           1     -21.858  -4.796  -7.227  0.00  0.00    -0.359 N 
HETATM    9  H           1     -22.266  -4.004  -6.747  0.00  0.00     0.162 HD
BRANCH   8  10
HETATM   10  C           1     -21.646  -4.746  -8.661  0.00  0.00     0.184 C 
BRANCH  10  11
HETATM   11  C           1     -22.567  -3.698  -9.273  0.00  0.00     0.040 C 
BRANCH  11  12
HETATM   12  C           1     -23.807  -4.378  -9.838  0.00  0.00    -0.018 C 
HETATM   13  C           1     -23.516  -4.879 -11.246  0.00  0.00     0.289 C 
HETATM   14  C           1     -24.956  -3.380  -9.882  0.00  0.00     0.009 C 
ENDBRANCH  11  12
ENDBRANCH  10  11
BRANCH  10  15
HETATM   15  C           1     -20.210  -4.380  -8.945  0.00  0.00     0.196 C 
HETATM   16  O           1     -19.667  -4.756 -10.006  0.00  0.00    -0.646 OA
HETATM   17  O           1     -19.565  -3.701  -8.119  0.00  0.00    -0.646 OA
ENDBRANCH  10  15
ENDBRANCH   8  10
ENDBRANCH   1   6
BRANCH   1  18
HETATM   18  C           1     -20.853  -7.062  -4.427  0.00  0.00     0.079 C 
BRANCH  18  19
HETATM   19  C           1     -21.363  -7.410  -3.062  0.00  0.00    -0.056 A 
HETATM   20  C           1     -21.423  -8.744  -2.659  0.00  0.00     0.007 A 
HETATM   21  C           1     -21.898  -9.067  -1.388  0.00  0.00     0.001 A 
HETATM   22  C           1     -22.313  -8.057  -0.521  0.00  0.00     0.000 A 
HETATM   23  C           1     -22.253  -6.723  -0.923  0.00  0.00     0.001 A 
HETATM   24  C           1     -21.778  -6.399  -2.194  0.00  0.00     0.007 A 
ENDBRANCH  18  19
ENDBRANCH   1  18
TORSDOF 8
ENDMDL
MODEL 4
REMARK VINA RESULT:      -6.7      1.424      2.143
REMARK  8 active torsions:
REMARK  status: ('A' for Active; 'I' for Inactive)
REMARK    1  A    between atoms: C_2  and  C_7 
REMARK    2  A    between atoms: C_7  and  C_11 
REMARK    3  A    between atoms: C_11  and  C_12 
REMARK    4  A    between atoms: C_11  and  N_22 
REMARK    5  A    between atoms: N_16  and  C_17 
REMARK    6  A    between atoms: C_17  and  C_23 
REMARK    7  A    between atoms: C_17  and  C_18 
REMARK    8  A    between atoms: C_18  and  C_19 
REMARK       I    between atoms: N_22  and  C_23 
ROOT
HETATM    1  C           1     -21.603  -6.313  -6.132  0.00  0.00     0.260 C 
ENDROOT
BRANCH   1   2
HETATM    2  N           1     -22.827  -5.927  -5.356  0.00  0.00    -0.067 N 
HETATM    3  H           1     -23.456  -5.351  -5.960  0.00  0.00     0.275 HD
HETATM    4  H           1     -22.546  -5.372  -4.516  0.00  0.00     0.275 HD
HETATM    5  H           1     -23.332  -6.788  -5.049  0.00  0.00     0.275 HD
ENDBRANCH   1   2
BRANCH   1   6
HETATM    6  C           1     -20.760  -7.254  -5.305  0.00  0.00     0.130 C 
HETATM    7  O           1     -19.698  -7.642  -5.728  0.00  0.00    -0.397 OA
HETATM    8  N           1     -21.201  -7.665  -4.076  0.00  0.00    -0.359 N 
HETATM    9  H           1     -22.091  -7.338  -3.722  0.00  0.00     0.162 HD
BRANCH   8  10
HETATM   10  C           1     -20.392  -8.569  -3.281  0.00  0.00     0.184 C 
BRANCH  10  11
HETATM   11  C           1     -20.400  -8.113  -1.828  0.00  0.00     0.040 C 
BRANCH  11  12
HETATM   12  C           1     -21.836  -8.048  -1.324  0.00  0.00    -0.018 C 
HETATM   13  C           1     -22.243  -6.593  -1.134  0.00  0.00     0.289 C 
HETATM   14  C           1     -21.938  -8.781   0.008  0.00  0.00     0.009 C 
ENDBRANCH  11  12
ENDBRANCH  10  11
BRANCH  10  15
HETATM   15  C           1     -20.959  -9.964  -3.374  0.00  0.00     0.196 C 
HETATM   16  O           1     -21.999 -10.173  -4.035  0.00  0.00    -0.646 OA
HETATM   17  O           1     -20.389 -10.910  -2.790  0.00  0.00    -0.646 OA
ENDBRANCH  10  15
ENDBRANCH   8  10
ENDBRANCH   1   6
BRANCH   1  18
HETATM   18  C           1     -20.796  -5.063  -6.460  0.00  0.00     0.079 C 
BRANCH  18  19
HETATM   19  C           1     -21.067  -4.650  -7.874  0.00  0.00    -0.056 A 
HETATM   20  C           1     -22.296  -4.082  -8.211  0.00  0.00     0.007 A 
HETATM   21  C           1     -22.548  -3.697  -9.527  0.00  0.00     0.001 A 
HETATM   22  C           1     -21.572  -3.881 -10.506  0.00  0.00     0.000 A 
HETATM   23  C           1     -20.343  -4.448 -10.170  0.00  0.00     0.001 A 
HETATM   24  C           1     -20.091  -4.833  -8.853  0.00  0.00     0.007 A 
ENDBRANCH  18  19
ENDBRANCH   1  18
TORSDOF 8
ENDMDL
MODEL 5
REMARK VINA RESULT:      -6.6      2.406      3.889
REMARK  8 active torsions:
REMARK  status: ('A' for Active; 'I' for Inactive)
REMARK    1  A    between atoms: C_2  and  C_7 
REMARK    2  A    between atoms: C_7  and  C_11 
REMARK    3  A    between atoms: C_11  and  C_12 
REMARK    4  A    between atoms: C_11  and  N_22 
REMARK    5  A    between atoms: N_16  and  C_17 
REMARK    6  A    between atoms: C_17  and  C_23 
REMARK    7  A    between atoms: C_17  and  C_18 
REMARK    8  A    between atoms: C_18  and  C_19 
REMARK       I    between atoms: N_22  and  C_23 
ROOT
HETATM    1  C           1     -20.471  -8.177  -5.195  0.00  0.00     0.260 C 
ENDROOT
BRANCH   1   2
HETATM    2  N           1     -21.150  -9.275  -5.959  0.00  0.00    -0.067 N 
HETATM    3  H           1     -22.166  -9.052  -6.060  0.00  0.00     0.275 HD
HETATM    4  H           1     -21.040 -10.177  -5.442  0.00  0.00     0.275 HD
HETATM    5  H           1     -20.716  -9.362  -6.905  0.00  0.00     0.275 HD
ENDBRANCH   1   2
BRANCH   1   6
HETATM    6  C           1     -20.051  -8.692  -3.840  0.00  0.00     0.130 C 
HETATM    7  O           1     -18.880  -8.857  -3.594  0.00  0.00    -0.397 OA
HETATM    8  N           1     -20.997  -8.972  -2.892  0.00  0.00    -0.359 N 
HETATM    9  H           1     -21.979  -8.834  -3.100  0.00  0.00     0.162 HD
BRANCH   8  10
HETATM   10  C           1     -20.595  -9.468  -1.590  0.00  0.00     0.184 C 
BRANCH  10  11
HETATM   11  C           1     -20.920  -8.427  -0.527  0.00  0.00     0.040 C 
BRANCH  11  12
HETATM   12  C           1     -22.340  -7.917  -0.734  0.00  0.00    -0.018 C 
HETATM   13  C           1     -22.298  -6.470  -1.206  0.00  0.00     0.289 C 
HETATM   14  C           1     -23.104  -7.998   0.582  0.00  0.00     0.009 C 
ENDBRANCH  11  12
ENDBRANCH  10  11
BRANCH  10  15
HETATM   15  C           1     -21.339 -10.746  -1.287  0.00  0.00     0.196 C 
HETATM   16  O           1     -22.064 -11.268  -2.160  0.00  0.00    -0.646 OA
HETATM   17  O           1     -21.228 -11.281  -0.164  0.00  0.00    -0.646 OA
ENDBRANCH  10  15
ENDBRANCH   8  10
ENDBRANCH   1   6
BRANCH   1  18
HETATM   18  C           1     -21.435  -7.011  -5.018  0.00  0.00     0.079 C 
BRANCH  18  19
HETATM   19  C           1     -21.092  -5.927  -5.993  0.00  0.00    -0.056 A 
HETATM   20  C           1     -22.096  -5.100  -6.498  0.00  0.00     0.007 A 
HETATM   21  C           1     -21.776  -4.090  -7.406  0.00  0.00     0.001 A 
HETATM   22  C           1     -20.453  -3.908  -7.807  0.00  0.00     0.000 A 
HETATM   23  C           1     -19.449  -4.733  -7.301  0.00  0.00     0.001 A 
HETATM   24  C           1     -19.769  -5.743  -6.394  0.00  0.00     0.007 A 
ENDBRANCH  18  19
ENDBRANCH   1  18
TORSDOF 8
ENDMDL
MODEL 6
REMARK VINA RESULT:      -6.4      2.151      3.405
REMARK  8 active torsions:
REMARK  status: ('A' for Active; 'I' for Inactive)
REMARK    1  A    between atoms: C_2  and  C_7 
REMARK    2  A    between atoms: C_7  and  C_11 
REMARK    3  A    between atoms: C_11  and  C_12 
REMARK    4  A    between atoms: C_11  and  N_22 
REMARK    5  A    between atoms: N_16  and  C_17 
REMARK    6  A    between atoms: C_17  and  C_23 
REMARK    7  A    between atoms: C_17  and  C_18 
REMARK    8  A    between atoms: C_18  and  C_19 
REMARK       I    between atoms: N_22  and  C_23 
ROOT
HETATM    1  C           1     -21.273  -6.248  -5.046  0.00  0.00     0.260 C 
ENDROOT
BRANCH   1   2
HETATM    2  N           1     -21.774  -5.991  -3.656  0.00  0.00    -0.067 N 
HETATM    3  H           1     -22.237  -6.853  -3.288  0.00  0.00     0.275 HD
HETATM    4  H           1     -22.462  -5.205  -3.673  0.00  0.00     0.275 HD
HETATM    5  H           1     -20.971  -5.737  -3.037  0.00  0.00     0.275 HD
ENDBRANCH   1   2
BRANCH   1   6
HETATM    6  C           1     -20.412  -7.487  -5.050  0.00  0.00     0.130 C 
HETATM    7  O           1     -19.745  -7.755  -6.019  0.00  0.00    -0.397 OA
HETATM    8  N           1     -20.389  -8.306  -3.953  0.00  0.00    -0.359 N 
HETATM    9  H           1     -20.950  -8.081  -3.141  0.00  0.00     0.162 HD
BRANCH   8  10
HETATM   10  C           1     -19.562  -9.498  -3.956  0.00  0.00     0.184 C 
BRANCH  10  11
HETATM   11  C           1     -18.418  -9.324  -2.967  0.00  0.00     0.040 C 
BRANCH  11  12
HETATM   12  C           1     -17.190 -10.070  -3.472  0.00  0.00    -0.018 C 
HETATM   13  C           1     -15.941  -9.499  -2.816  0.00  0.00     0.289 C 
HETATM   14  C           1     -17.087  -9.911  -4.984  0.00  0.00     0.009 C 
ENDBRANCH  11  12
ENDBRANCH  10  11
BRANCH  10  15
HETATM   15  C           1     -20.397 -10.689  -3.554  0.00  0.00     0.196 C 
HETATM   16  O           1     -21.120 -10.631  -2.537  0.00  0.00    -0.646 OA
HETATM   17  O           1     -20.366 -11.733  -4.241  0.00  0.00    -0.646 OA
ENDBRANCH  10  15
ENDBRANCH   8  10
ENDBRANCH   1   6
BRANCH   1  18
HETATM   18  C           1     -20.449  -5.056  -5.515  0.00  0.00     0.079 C 
BRANCH  18  19
HETATM   19  C           1     -20.854  -4.686  -6.909  0.00  0.00    -0.056 A 
HETATM   20  C           1     -19.892  -4.599  -7.915  0.00  0.00     0.007 A 
HETATM   21  C           1     -20.269  -4.255  -9.213  0.00  0.00     0.001 A 
HETATM   22  C           1     -21.608  -3.998  -9.505  0.00  0.00     0.000 A 
HETATM   23  C           1     -22.571  -4.086  -8.499  0.00  0.00     0.001 A 
HETATM   24  C           1     -22.194  -4.430  -7.202  0.00  0.00     0.007 A 
ENDBRANCH  18  19
ENDBRANCH   1  18
TORSDOF 8
ENDMDL
MODEL 7
REMARK VINA RESULT:      -6.4      2.481      3.977
REMARK  8 active torsions:
REMARK  status: ('A' for Active; 'I' for Inactive)
REMARK    1  A    between atoms: C_2  and  C_7 
REMARK    2  A    between atoms: C_7  and  C_11 
REMARK    3  A    between atoms: C_11  and  C_12 
REMARK    4  A    between atoms: C_11  and  N_22 
REMARK    5  A    between atoms: N_16  and  C_17 
REMARK    6  A    between atoms: C_17  and  C_23 
REMARK    7  A    between atoms: C_17  and  C_18 
REMARK    8  A    between atoms: C_18  and  C_19 
REMARK       I    between atoms: N_22  and  C_23 
ROOT
HETATM    1  C           1     -20.925  -7.501  -4.636  0.00  0.00     0.260 C 
ENDROOT
BRANCH   1   2
HETATM    2  N           1     -21.180  -8.559  -5.669  0.00  0.00    -0.067 N 
HETATM    3  H           1     -22.206  -8.749  -5.727  0.00  0.00     0.275 HD
HETATM    4  H           1     -20.677  -9.435  -5.401  0.00  0.00     0.275 HD
HETATM    5  H           1     -20.833  -8.230  -6.598  0.00  0.00     0.275 HD
ENDBRANCH   1   2
BRANCH   1   6
HETATM    6  C           1     -21.191  -8.066  -3.262  0.00  0.00     0.130 C 
HETATM    7  O           1     -21.388  -7.322  -2.331  0.00  0.00    -0.397 OA
HETATM    8  N           1     -21.209  -9.421  -3.072  0.00  0.00    -0.359 N 
HETATM    9  H           1     -21.043 -10.044  -3.853  0.00  0.00     0.162 HD
BRANCH   8  10
HETATM   10  C           1     -21.464  -9.965  -1.751  0.00  0.00     0.184 C 
BRANCH  10  11
HETATM   11  C           1     -22.584 -10.992  -1.833  0.00  0.00     0.040 C 
BRANCH  11  12
HETATM   12  C           1     -23.620 -10.703  -0.755  0.00  0.00    -0.018 C 
HETATM   13  C           1     -23.248  -9.419  -0.024  0.00  0.00     0.289 C 
HETATM   14  C           1     -23.655 -11.858   0.238  0.00  0.00     0.009 C 
ENDBRANCH  11  12
ENDBRANCH  10  11
BRANCH  10  15
HETATM   15  C           1     -20.211 -10.627  -1.231  0.00  0.00     0.196 C 
HETATM   16  O           1     -20.183 -11.083  -0.068  0.00  0.00    -0.646 OA
HETATM   17  O           1     -19.204 -10.720  -1.963  0.00  0.00    -0.646 OA
ENDBRANCH  10  15
ENDBRANCH   8  10
ENDBRANCH   1   6
BRANCH   1  18
HETATM   18  C           1     -21.850  -6.317  -4.886  0.00  0.00     0.079 C 
BRANCH  18  19
HETATM   19  C           1     -21.302  -5.480  -6.000  0.00  0.00    -0.056 A 
HETATM   20  C           1     -22.169  -4.842  -6.887  0.00  0.00     0.007 A 
HETATM   21  C           1     -21.658  -4.064  -7.924  0.00  0.00     0.001 A 
HETATM   22  C           1     -20.279  -3.923  -8.076  0.00  0.00     0.000 A 
HETATM   23  C           1     -19.411  -4.560  -7.189  0.00  0.00     0.001 A 
HETATM   24  C           1     -19.922  -5.338  -6.152  0.00  0.00     0.007 A 
ENDBRANCH  18  19
ENDBRANCH   1  18
TORSDOF 8
ENDMDL
MODEL 8
REMARK VINA RESULT:      -6.4     18.118     19.618
REMARK  8 active torsions:
REMARK  status: ('A' for Active; 'I' for Inactive)
REMARK    1  A    between atoms: C_2  and  C_7 
REMARK    2  A    between atoms: C_7  and  C_11 
REMARK    3  A    between atoms: C_11  and  C_12 
REMARK    4  A    between atoms: C_11  and  N_22 
REMARK    5  A    between atoms: N_16  and  C_17 
REMARK    6  A    between atoms: C_17  and  C_23 
REMARK    7  A    between atoms: C_17  and  C_18 
REMARK    8  A    between atoms: C_18  and  C_19 
REMARK       I    between atoms: N_22  and  C_23 
ROOT
HETATM    1  C           1     -15.078   9.291   5.642  0.00  0.00     0.260 C 
ENDROOT
BRANCH   1   2
HETATM    2  N           1     -15.252   8.896   7.079  0.00  0.00    -0.067 N 
HETATM    3  H           1     -14.779   9.597   7.692  0.00  0.00     0.275 HD
HETATM    4  H           1     -14.828   7.953   7.234  0.00  0.00     0.275 HD
HETATM    5  H           1     -16.270   8.861   7.310  0.00  0.00     0.275 HD
ENDBRANCH   1   2
BRANCH   1   6
HETATM    6  C           1     -16.371   9.866   5.119  0.00  0.00     0.130 C 
HETATM    7  O           1     -16.488  11.060   4.980  0.00  0.00    -0.397 OA
HETATM    8  N           1     -17.411   9.035   4.802  0.00  0.00    -0.359 N 
HETATM    9  H           1     -17.313   8.034   4.919  0.00  0.00     0.162 HD
BRANCH   8  10
HETATM   10  C           1     -18.655   9.587   4.300  0.00  0.00     0.184 C 
BRANCH  10  11
HETATM   11  C           1     -18.831   9.195   2.839  0.00  0.00     0.040 C 
BRANCH  11  12
HETATM   12  C           1     -18.729  10.437   1.964  0.00  0.00    -0.018 C 
HETATM   13  C           1     -17.279  10.651   1.551  0.00  0.00     0.289 C 
HETATM   14  C           1     -19.218  11.650   2.745  0.00  0.00     0.009 C 
ENDBRANCH  11  12
ENDBRANCH  10  11
BRANCH  10  15
HETATM   15  C           1     -19.808   9.045   5.109  0.00  0.00     0.196 C 
HETATM   16  O           1     -20.762   8.478   4.535  0.00  0.00    -0.646 OA
HETATM   17  O           1     -19.807   9.163   6.353  0.00  0.00    -0.646 OA
ENDBRANCH  10  15
ENDBRANCH   8  10
ENDBRANCH   1   6
BRANCH   1  18
HETATM   18  C           1     -14.700   8.064   4.822  0.00  0.00     0.079 C 
BRANCH  18  19
HETATM   19  C           1     -14.285   8.491   3.447  0.00  0.00    -0.056 A 
HETATM   20  C           1     -13.310   9.475   3.286  0.00  0.00     0.007 A 
HETATM   21  C           1     -12.924   9.872   2.006  0.00  0.00     0.001 A 
HETATM   22  C           1     -13.514   9.285   0.887  0.00  0.00     0.000 A 
HETATM   23  C           1     -14.489   8.300   1.047  0.00  0.00     0.001 A 
HETATM   24  C           1     -14.874   7.903   2.327  0.00  0.00     0.007 A 
ENDBRANCH  18  19
ENDBRANCH   1  18
TORSDOF 8
ENDMDL
MODEL 9
REMARK VINA RESULT:      -6.2      2.626      4.090
REMARK  8 active torsions:
REMARK  status: ('A' for Active; 'I' for Inactive)
REMARK    1  A    between atoms: C_2  and  C_7 
REMARK    2  A    between atoms: C_7  and  C_11 
REMARK    3  A    between atoms: C_11  and  C_12 
REMARK    4  A    between atoms: C_11  and  N_22 
REMARK    5  A    between atoms: N_16  and  C_17 
REMARK    6  A    between atoms: C_17  and  C_23 
REMARK    7  A    between atoms: C_17  and  C_18 
REMARK    8  A    between atoms: C_18  and  C_19 
REMARK       I    between atoms: N_22  and  C_23 
ROOT
HETATM    1  C           1     -20.842  -7.492  -4.799  0.00  0.00     0.260 C 
ENDROOT
BRANCH   1   2
HETATM    2  N           1     -21.158  -8.171  -6.098  0.00  0.00    -0.067 N 
HETATM    3  H           1     -20.894  -9.180  -6.038  0.00  0.00     0.275 HD
HETATM    4  H           1     -20.620  -7.715  -6.869  0.00  0.00     0.275 HD
HETATM    5  H           1     -22.181  -8.090  -6.294  0.00  0.00     0.275 HD
ENDBRANCH   1   2
BRANCH   1   6
HETATM    6  C           1     -21.426  -8.292  -3.659  0.00  0.00     0.130 C 
HETATM    7  O           1     -22.021  -9.318  -3.885  0.00  0.00    -0.397 OA
HETATM    8  N           1     -21.280  -7.853  -2.371  0.00  0.00    -0.359 N 
HETATM    9  H           1     -20.781  -6.992  -2.183  0.00  0.00     0.162 HD
BRANCH   8  10
HETATM   10  C           1     -21.841  -8.621  -1.276  0.00  0.00     0.184 C 
BRANCH  10  11
HETATM   11  C           1     -20.714  -9.245  -0.464  0.00  0.00     0.040 C 
BRANCH  11  12
HETATM   12  C           1     -20.750 -10.759  -0.624  0.00  0.00    -0.018 C 
HETATM   13  C           1     -19.818 -11.172  -1.755  0.00  0.00     0.289 C 
HETATM   14  C           1     -22.170 -11.201  -0.951  0.00  0.00     0.009 C 
ENDBRANCH  11  12
ENDBRANCH  10  11
BRANCH  10  15
HETATM   15  C           1     -22.655  -7.710  -0.390  0.00  0.00     0.196 C 
HETATM   16  O           1     -22.670  -6.479  -0.604  0.00  0.00    -0.646 OA
HETATM   17  O           1     -23.316  -8.188   0.557  0.00  0.00    -0.646 OA
ENDBRANCH  10  15
ENDBRANCH   8  10
ENDBRANCH   1   6
BRANCH   1  18
HETATM   18  C           1     -21.444  -6.093  -4.798  0.00  0.00     0.079 C 
BRANCH  18  19
HETATM   19  C           1     -21.013  -5.363  -6.033  0.00  0.00    -0.056 A 
HETATM   20  C           1     -19.656  -5.186  -6.300  0.00  0.00     0.007 A 
HETATM   21  C           1     -19.254  -4.506  -7.450  0.00  0.00     0.001 A 
HETATM   22  C           1     -20.211  -4.004  -8.332  0.00  0.00     0.000 A 
HETATM   23  C           1     -21.568  -4.182  -8.065  0.00  0.00     0.001 A 
HETATM   24  C           1     -21.969  -4.861  -6.916  0.00  0.00     0.007 A 
ENDBRANCH  18  19
ENDBRANCH   1  18
TORSDOF 8
ENDMDL
