MODEL 1
REMARK VINA RESULT:      -5.4      0.000      0.000
REMARK  9 active torsions:
REMARK  status: ('A' for Active; 'I' for Inactive)
REMARK    1  A    between atoms: N_1  and  C_4 
REMARK    2  A    between atoms: Se_2  and  C_3 
REMARK    3  A    between atoms: C_3  and  C_4 
REMARK    4  A    between atoms: C_4  and  C_5 
REMARK       I    between atoms: C_5  and  N_6 
REMARK    5  A    between atoms: N_6  and  C_10 
REMARK    6  A    between atoms: C_9  and  C_10 
REMARK    7  A    between atoms: C_10  and  C_19 
REMARK    8  A    between atoms: Se_17  and  C_20 
REMARK    9  A    between atoms: C_19  and  C_20 
ROOT
HETATM    1  C           1     -25.390  -6.847 -18.977  0.00  0.00     0.249 C 
HETATM    2  N           1     -26.525  -6.636 -18.241  0.00  0.00    -0.345 N 
HETATM    3  H           1     -27.420  -6.956 -18.589  0.00  0.00     0.163 HD
HETATM    4  O           1     -24.322  -6.465 -18.562  0.00  0.00    -0.271 OA
ENDROOT
BRANCH   1   5
HETATM    5  C           1     -25.472  -7.558 -20.306  0.00  0.00     0.274 C 
BRANCH   5   6
HETATM    6  N           1     -26.910  -7.831 -20.637  0.00  0.00    -0.067 N 
HETATM    7  H           1     -27.061  -7.710 -21.664  0.00  0.00     0.275 HD
HETATM    8  H           1     -27.151  -8.810 -20.363  0.00  0.00     0.275 HD
HETATM    9  H           1     -27.520  -7.163 -20.114  0.00  0.00     0.275 HD
ENDBRANCH   5   6
BRANCH   5  10
HETATM   10  C           1     -24.860  -6.681 -21.390  0.00  0.00     0.045 C 
BRANCH  10  11
HETATM   11 Se           1     -23.798  -7.784 -22.596  0.00  0.00     0.000 Se
HETATM   12  H           1     -23.762  -6.778 -23.669  0.00  0.00     0.000 HD
ENDBRANCH  10  11
ENDBRANCH   5  10
ENDBRANCH   1   5
BRANCH   2  13
HETATM   13  C           1     -26.446  -5.953 -16.964  0.00  0.00     0.185 C 
BRANCH  13  14
HETATM   14  C           1     -26.406  -6.972 -15.852  0.00  0.00     0.196 C 
HETATM   15  O           1     -25.308  -7.396 -15.431  0.00  0.00    -0.646 OA
HETATM   16  O           1     -27.472  -7.393 -15.353  0.00  0.00    -0.646 OA
ENDBRANCH  13  14
BRANCH  13  17
HETATM   17  C           1     -27.666  -5.059 -16.791  0.00  0.00     0.036 C 
BRANCH  17  18
HETATM   18  C           1     -28.612  -5.255 -17.968  0.00  0.00     0.003 C 
BRANCH  18  19
HETATM   19 Se           1     -30.265  -6.077 -17.344  0.00  0.00     0.000 Se
HETATM   20  C           1     -30.057  -7.693 -18.413  0.00  0.00     0.000 C 
ENDBRANCH  18  19
ENDBRANCH  17  18
ENDBRANCH  13  17
ENDBRANCH   2  13
TORSDOF 9
ENDMDL
MODEL 2
REMARK VINA RESULT:      -4.9     10.400     11.962
REMARK  9 active torsions:
REMARK  status: ('A' for Active; 'I' for Inactive)
REMARK    1  A    between atoms: N_1  and  C_4 
REMARK    2  A    between atoms: Se_2  and  C_3 
REMARK    3  A    between atoms: C_3  and  C_4 
REMARK    4  A    between atoms: C_4  and  C_5 
REMARK       I    between atoms: C_5  and  N_6 
REMARK    5  A    between atoms: N_6  and  C_10 
REMARK    6  A    between atoms: C_9  and  C_10 
REMARK    7  A    between atoms: C_10  and  C_19 
REMARK    8  A    between atoms: Se_17  and  C_20 
REMARK    9  A    between atoms: C_19  and  C_20 
ROOT
HETATM    1  C           1     -34.276  -2.673 -11.937  0.00  0.00     0.249 C 
HETATM    2  N           1     -35.045  -1.728 -12.563  0.00  0.00    -0.345 N 
HETATM    3  H           1     -35.573  -1.973 -13.391  0.00  0.00     0.163 HD
HETATM    4  O           1     -33.645  -2.380 -10.950  0.00  0.00    -0.271 OA
ENDROOT
BRANCH   1   5
HETATM    5  C           1     -34.219  -4.080 -12.480  0.00  0.00     0.274 C 
BRANCH   5   6
HETATM    6  N           1     -33.709  -4.049 -13.891  0.00  0.00    -0.067 N 
HETATM    7  H           1     -34.478  -4.323 -14.545  0.00  0.00     0.275 HD
HETATM    8  H           1     -33.384  -3.084 -14.123  0.00  0.00     0.275 HD
HETATM    9  H           1     -32.914  -4.719 -13.988  0.00  0.00     0.275 HD
ENDBRANCH   5   6
BRANCH   5  10
HETATM   10  C           1     -33.282  -4.918 -11.621  0.00  0.00     0.045 C 
BRANCH  10  11
HETATM   11 Se           1     -34.313  -6.257 -10.650  0.00  0.00     0.000 Se
HETATM   12  H           1     -34.628  -5.364  -9.523  0.00  0.00     0.000 HD
ENDBRANCH  10  11
ENDBRANCH   5  10
ENDBRANCH   1   5
BRANCH   2  13
HETATM   13  C           1     -35.100  -0.376 -12.042  0.00  0.00     0.185 C 
BRANCH  13  14
HETATM   14  C           1     -36.416  -0.165 -11.334  0.00  0.00     0.196 C 
HETATM   15  O           1     -36.484   0.614 -10.358  0.00  0.00    -0.646 OA
HETATM   16  O           1     -37.438  -0.771 -11.722  0.00  0.00    -0.646 OA
ENDBRANCH  13  14
BRANCH  13  17
HETATM   17  C           1     -34.977   0.616 -13.190  0.00  0.00     0.036 C 
BRANCH  17  18
HETATM   18  C           1     -35.147  -0.115 -14.515  0.00  0.00     0.003 C 
BRANCH  18  19
HETATM   19 Se           1     -36.938   0.207 -15.212  0.00  0.00     0.000 Se
HETATM   20  C           1     -36.731  -0.978 -16.745  0.00  0.00     0.000 C 
ENDBRANCH  18  19
ENDBRANCH  17  18
ENDBRANCH  13  17
ENDBRANCH   2  13
TORSDOF 9
ENDMDL
MODEL 3
REMARK VINA RESULT:      -4.9      2.282      2.938
REMARK  9 active torsions:
REMARK  status: ('A' for Active; 'I' for Inactive)
REMARK    1  A    between atoms: N_1  and  C_4 
REMARK    2  A    between atoms: Se_2  and  C_3 
REMARK    3  A    between atoms: C_3  and  C_4 
REMARK    4  A    between atoms: C_4  and  C_5 
REMARK       I    between atoms: C_5  and  N_6 
REMARK    5  A    between atoms: N_6  and  C_10 
REMARK    6  A    between atoms: C_9  and  C_10 
REMARK    7  A    between atoms: C_10  and  C_19 
REMARK    8  A    between atoms: Se_17  and  C_20 
REMARK    9  A    between atoms: C_19  and  C_20 
ROOT
HETATM    1  C           1     -26.251  -6.645 -18.870  0.00  0.00     0.249 C 
HETATM    2  N           1     -27.523  -6.888 -19.317  0.00  0.00    -0.345 N 
HETATM    3  H           1     -27.674  -7.212 -20.263  0.00  0.00     0.163 HD
HETATM    4  O           1     -26.072  -6.257 -17.740  0.00  0.00    -0.271 OA
ENDROOT
BRANCH   1   5
HETATM    5  C           1     -25.074  -6.862 -19.789  0.00  0.00     0.274 C 
BRANCH   5   6
HETATM    6  N           1     -23.945  -7.477 -19.016  0.00  0.00    -0.067 N 
HETATM    7  H           1     -23.066  -7.422 -19.579  0.00  0.00     0.275 HD
HETATM    8  H           1     -23.815  -6.960 -18.118  0.00  0.00     0.275 HD
HETATM    9  H           1     -24.167  -8.478 -18.814  0.00  0.00     0.275 HD
ENDBRANCH   5   6
BRANCH   5  10
HETATM   10  C           1     -25.479  -7.793 -20.923  0.00  0.00     0.045 C 
BRANCH  10  11
HETATM   11 Se           1     -24.052  -7.865 -22.248  0.00  0.00     0.000 Se
HETATM   12  H           1     -23.060  -7.206 -21.384  0.00  0.00     0.000 HD
ENDBRANCH  10  11
ENDBRANCH   5  10
ENDBRANCH   1   5
BRANCH   2  13
HETATM   13  C           1     -28.654  -6.679 -18.434  0.00  0.00     0.185 C 
BRANCH  13  14
HETATM   14  C           1     -29.727  -7.694 -18.744  0.00  0.00     0.196 C 
HETATM   15  O           1     -29.454  -8.701 -19.431  0.00  0.00    -0.646 OA
HETATM   16  O           1     -30.888  -7.525 -18.314  0.00  0.00    -0.646 OA
ENDBRANCH  13  14
BRANCH  13  17
HETATM   17  C           1     -29.207  -5.276 -18.641  0.00  0.00     0.036 C 
BRANCH  17  18
HETATM   18  C           1     -28.968  -4.444 -17.388  0.00  0.00     0.003 C 
BRANCH  18  19
HETATM   19 Se           1     -30.069  -5.128 -15.933  0.00  0.00     0.000 Se
HETATM   20  C           1     -31.758  -4.573 -16.731  0.00  0.00     0.000 C 
ENDBRANCH  18  19
ENDBRANCH  17  18
ENDBRANCH  13  17
ENDBRANCH   2  13
TORSDOF 9
ENDMDL
MODEL 4
REMARK VINA RESULT:      -4.6     12.462     14.573
REMARK  9 active torsions:
REMARK  status: ('A' for Active; 'I' for Inactive)
REMARK    1  A    between atoms: N_1  and  C_4 
REMARK    2  A    between atoms: Se_2  and  C_3 
REMARK    3  A    between atoms: C_3  and  C_4 
REMARK    4  A    between atoms: C_4  and  C_5 
REMARK       I    between atoms: C_5  and  N_6 
REMARK    5  A    between atoms: N_6  and  C_10 
REMARK    6  A    between atoms: C_9  and  C_10 
REMARK    7  A    between atoms: C_10  and  C_19 
REMARK    8  A    between atoms: Se_17  and  C_20 
REMARK    9  A    between atoms: C_19  and  C_20 
ROOT
HETATM    1  C           1     -21.532  -6.415  -4.314  0.00  0.00     0.249 C 
HETATM    2  N           1     -20.979  -5.430  -5.088  0.00  0.00    -0.345 N 
HETATM    3  H           1     -20.416  -4.706  -4.660  0.00  0.00     0.163 HD
HETATM    4  O           1     -22.204  -7.279  -4.825  0.00  0.00    -0.271 OA
ENDROOT
BRANCH   1   5
HETATM    5  C           1     -21.300  -6.423  -2.823  0.00  0.00     0.274 C 
BRANCH   5   6
HETATM    6  N           1     -22.491  -5.830  -2.130  0.00  0.00    -0.067 N 
HETATM    7  H           1     -22.806  -4.977  -2.646  0.00  0.00     0.275 HD
HETATM    8  H           1     -23.266  -6.530  -2.109  0.00  0.00     0.275 HD
HETATM    9  H           1     -22.231  -5.569  -1.152  0.00  0.00     0.275 HD
ENDBRANCH   5   6
BRANCH   5  10
HETATM   10  C           1     -21.097  -7.855  -2.347  0.00  0.00     0.045 C 
BRANCH  10  11
HETATM   11 Se           1     -21.815  -8.051  -0.546  0.00  0.00     0.000 Se
HETATM   12  H           1     -20.618  -7.508   0.115  0.00  0.00     0.000 HD
ENDBRANCH  10  11
ENDBRANCH   5  10
ENDBRANCH   1   5
BRANCH   2  13
HETATM   13  C           1     -21.203  -5.422  -6.521  0.00  0.00     0.185 C 
BRANCH  13  14
HETATM   14  C           1     -19.900  -5.693  -7.233  0.00  0.00     0.196 C 
HETATM   15  O           1     -19.353  -4.789  -7.901  0.00  0.00    -0.646 OA
HETATM   16  O           1     -19.368  -6.821  -7.155  0.00  0.00    -0.646 OA
ENDBRANCH  13  14
BRANCH  13  17
HETATM   17  C           1     -21.739  -4.062  -6.943  0.00  0.00     0.036 C 
BRANCH  17  18
HETATM   18  C           1     -23.039  -4.244  -7.714  0.00  0.00     0.003 C 
BRANCH  18  19
HETATM   19 Se           1     -22.703  -4.020  -9.621  0.00  0.00     0.000 Se
HETATM   20  C           1     -24.513  -3.429 -10.037  0.00  0.00     0.000 C 
ENDBRANCH  18  19
ENDBRANCH  17  18
ENDBRANCH  13  17
ENDBRANCH   2  13
TORSDOF 9
ENDMDL
MODEL 5
REMARK VINA RESULT:      -4.5     11.499     13.205
REMARK  9 active torsions:
REMARK  status: ('A' for Active; 'I' for Inactive)
REMARK    1  A    between atoms: N_1  and  C_4 
REMARK    2  A    between atoms: Se_2  and  C_3 
REMARK    3  A    between atoms: C_3  and  C_4 
REMARK    4  A    between atoms: C_4  and  C_5 
REMARK       I    between atoms: C_5  and  N_6 
REMARK    5  A    between atoms: N_6  and  C_10 
REMARK    6  A    between atoms: C_9  and  C_10 
REMARK    7  A    between atoms: C_10  and  C_19 
REMARK    8  A    between atoms: Se_17  and  C_20 
REMARK    9  A    between atoms: C_19  and  C_20 
ROOT
HETATM    1  C           1     -22.352  -4.158  -8.065  0.00  0.00     0.249 C 
HETATM    2  N           1     -22.150  -5.319  -7.367  0.00  0.00    -0.345 N 
HETATM    3  H           1     -22.586  -6.178  -7.676  0.00  0.00     0.163 HD
HETATM    4  O           1     -21.832  -3.133  -7.696  0.00  0.00    -0.271 OA
ENDROOT
BRANCH   1   5
HETATM    5  C           1     -23.225  -4.160  -9.297  0.00  0.00     0.274 C 
BRANCH   5   6
HETATM    6  N           1     -24.520  -3.468  -8.991  0.00  0.00    -0.067 N 
HETATM    7  H           1     -25.200  -3.643  -9.765  0.00  0.00     0.275 HD
HETATM    8  H           1     -24.910  -3.838  -8.096  0.00  0.00     0.275 HD
HETATM    9  H           1     -24.352  -2.441  -8.901  0.00  0.00     0.275 HD
ENDBRANCH   5   6
BRANCH   5  10
HETATM   10  C           1     -22.512  -3.428 -10.425  0.00  0.00     0.045 C 
BRANCH  10  11
HETATM   11 Se           1     -20.841  -4.341 -10.841  0.00  0.00     0.000 Se
HETATM   12  H           1     -21.465  -5.668 -10.974  0.00  0.00     0.000 HD
ENDBRANCH  10  11
ENDBRANCH   5  10
ENDBRANCH   1   5
BRANCH   2  13
HETATM   13  C           1     -21.312  -5.317  -6.184  0.00  0.00     0.185 C 
BRANCH  13  14
HETATM   14  C           1     -19.895  -5.664  -6.572  0.00  0.00     0.196 C 
HETATM   15  O           1     -19.600  -6.841  -6.871  0.00  0.00    -0.646 OA
HETATM   16  O           1     -19.018  -4.774  -6.592  0.00  0.00    -0.646 OA
ENDBRANCH  13  14
BRANCH  13  17
HETATM   17  C           1     -21.833  -6.347  -5.191  0.00  0.00     0.036 C 
BRANCH  17  18
HETATM   18  C           1     -21.273  -6.050  -3.807  0.00  0.00     0.003 C 
BRANCH  18  19
HETATM   19 Se           1     -21.387  -7.650  -2.701  0.00  0.00     0.000 Se
HETATM   20  C           1     -22.294  -6.762  -1.222  0.00  0.00     0.000 C 
ENDBRANCH  18  19
ENDBRANCH  17  18
ENDBRANCH  13  17
ENDBRANCH   2  13
TORSDOF 9
ENDMDL
MODEL 6
REMARK VINA RESULT:      -4.4     12.532     14.243
REMARK  9 active torsions:
REMARK  status: ('A' for Active; 'I' for Inactive)
REMARK    1  A    between atoms: N_1  and  C_4 
REMARK    2  A    between atoms: Se_2  and  C_3 
REMARK    3  A    between atoms: C_3  and  C_4 
REMARK    4  A    between atoms: C_4  and  C_5 
REMARK       I    between atoms: C_5  and  N_6 
REMARK    5  A    between atoms: N_6  and  C_10 
REMARK    6  A    between atoms: C_9  and  C_10 
REMARK    7  A    between atoms: C_10  and  C_19 
REMARK    8  A    between atoms: Se_17  and  C_20 
REMARK    9  A    between atoms: C_19  and  C_20 
ROOT
HETATM    1  C           1     -21.003  -5.126  -6.832  0.00  0.00     0.249 C 
HETATM    2  N           1     -21.259  -6.385  -6.358  0.00  0.00    -0.345 N 
HETATM    3  H           1     -21.770  -7.047  -6.928  0.00  0.00     0.163 HD
HETATM    4  O           1     -20.393  -4.337  -6.150  0.00  0.00    -0.271 OA
ENDROOT
BRANCH   1   5
HETATM    5  C           1     -21.483  -4.724  -8.205  0.00  0.00     0.274 C 
BRANCH   5   6
HETATM    6  N           1     -22.399  -3.542  -8.086  0.00  0.00    -0.067 N 
HETATM    7  H           1     -21.919  -2.782  -7.553  0.00  0.00     0.275 HD
HETATM    8  H           1     -22.645  -3.195  -9.040  0.00  0.00     0.275 HD
HETATM    9  H           1     -23.269  -3.826  -7.583  0.00  0.00     0.275 HD
ENDBRANCH   5   6
BRANCH   5  10
HETATM   10  C           1     -20.288  -4.355  -9.073  0.00  0.00     0.045 C 
BRANCH  10  11
HETATM   11 Se           1     -20.882  -4.057 -10.905  0.00  0.00     0.000 Se
HETATM   12  H           1     -20.550  -5.419 -11.356  0.00  0.00     0.000 HD
ENDBRANCH  10  11
ENDBRANCH   5  10
ENDBRANCH   1   5
BRANCH   2  13
HETATM   13  C           1     -20.798  -6.772  -5.038  0.00  0.00     0.185 C 
BRANCH  13  14
HETATM   14  C           1     -20.333  -8.207  -5.069  0.00  0.00     0.196 C 
HETATM   15  O           1     -20.893  -9.029  -5.826  0.00  0.00    -0.646 OA
HETATM   16  O           1     -19.389  -8.573  -4.337  0.00  0.00    -0.646 OA
ENDBRANCH  13  14
BRANCH  13  17
HETATM   17  C           1     -21.939  -6.629  -4.041  0.00  0.00     0.036 C 
BRANCH  17  18
HETATM   18  C           1     -21.410  -6.031  -2.744  0.00  0.00     0.003 C 
BRANCH  18  19
HETATM   19 Se           1     -22.252  -6.916  -1.227  0.00  0.00     0.000 Se
HETATM   20  C           1     -20.846  -8.249  -1.014  0.00  0.00     0.000 C 
ENDBRANCH  18  19
ENDBRANCH  17  18
ENDBRANCH  13  17
ENDBRANCH   2  13
TORSDOF 9
ENDMDL
MODEL 7
REMARK VINA RESULT:      -4.4      2.913      5.835
REMARK  9 active torsions:
REMARK  status: ('A' for Active; 'I' for Inactive)
REMARK    1  A    between atoms: N_1  and  C_4 
REMARK    2  A    between atoms: Se_2  and  C_3 
REMARK    3  A    between atoms: C_3  and  C_4 
REMARK    4  A    between atoms: C_4  and  C_5 
REMARK       I    between atoms: C_5  and  N_6 
REMARK    5  A    between atoms: N_6  and  C_10 
REMARK    6  A    between atoms: C_9  and  C_10 
REMARK    7  A    between atoms: C_10  and  C_19 
REMARK    8  A    between atoms: Se_17  and  C_20 
REMARK    9  A    between atoms: C_19  and  C_20 
ROOT
HETATM    1  C           1     -30.298  -5.480 -17.015  0.00  0.00     0.249 C 
HETATM    2  N           1     -28.952  -5.269 -16.875  0.00  0.00    -0.345 N 
HETATM    3  H           1     -28.609  -4.362 -16.587  0.00  0.00     0.163 HD
HETATM    4  O           1     -30.706  -6.563 -17.360  0.00  0.00    -0.271 OA
ENDROOT
BRANCH   1   5
HETATM    5  C           1     -31.270  -4.360 -16.738  0.00  0.00     0.274 C 
BRANCH   5   6
HETATM    6  N           1     -30.965  -3.200 -17.640  0.00  0.00    -0.067 N 
HETATM    7  H           1     -30.470  -3.544 -18.494  0.00  0.00     0.275 HD
HETATM    8  H           1     -31.856  -2.733 -17.920  0.00  0.00     0.275 HD
HETATM    9  H           1     -30.356  -2.518 -17.135  0.00  0.00     0.275 HD
ENDBRANCH   5   6
BRANCH   5  10
HETATM   10  C           1     -32.690  -4.844 -16.997  0.00  0.00     0.045 C 
BRANCH  10  11
HETATM   11 Se           1     -33.886  -4.107 -15.645  0.00  0.00     0.000 Se
HETATM   12  H           1     -33.111  -2.869 -15.470  0.00  0.00     0.000 HD
ENDBRANCH  10  11
ENDBRANCH   5  10
ENDBRANCH   1   5
BRANCH   2  13
HETATM   13  C           1     -28.017  -6.346 -17.141  0.00  0.00     0.185 C 
BRANCH  13  14
HETATM   14  C           1     -27.290  -6.705 -15.869  0.00  0.00     0.196 C 
HETATM   15  O           1     -26.186  -6.180 -15.610  0.00  0.00    -0.646 OA
HETATM   16  O           1     -27.792  -7.529 -15.074  0.00  0.00    -0.646 OA
ENDBRANCH  13  14
BRANCH  13  17
HETATM   17  C           1     -27.011  -5.895 -18.191  0.00  0.00     0.036 C 
BRANCH  17  18
HETATM   18  C           1     -27.306  -6.594 -19.512  0.00  0.00     0.003 C 
BRANCH  18  19
HETATM   19 Se           1     -25.641  -6.876 -20.485  0.00  0.00     0.000 Se
HETATM   20  C           1     -24.538  -7.017 -18.885  0.00  0.00     0.000 C 
ENDBRANCH  18  19
ENDBRANCH  17  18
ENDBRANCH  13  17
ENDBRANCH   2  13
TORSDOF 9
ENDMDL
MODEL 8
REMARK VINA RESULT:      -4.2     13.399     15.224
REMARK  9 active torsions:
REMARK  status: ('A' for Active; 'I' for Inactive)
REMARK    1  A    between atoms: N_1  and  C_4 
REMARK    2  A    between atoms: Se_2  and  C_3 
REMARK    3  A    between atoms: C_3  and  C_4 
REMARK    4  A    between atoms: C_4  and  C_5 
REMARK       I    between atoms: C_5  and  N_6 
REMARK    5  A    between atoms: N_6  and  C_10 
REMARK    6  A    between atoms: C_9  and  C_10 
REMARK    7  A    between atoms: C_10  and  C_19 
REMARK    8  A    between atoms: Se_17  and  C_20 
REMARK    9  A    between atoms: C_19  and  C_20 
ROOT
HETATM    1  C           1     -21.378  -5.810  -5.631  0.00  0.00     0.249 C 
HETATM    2  N           1     -20.822  -6.719  -4.771  0.00  0.00    -0.345 N 
HETATM    3  H           1     -19.819  -6.853  -4.754  0.00  0.00     0.163 HD
HETATM    4  O           1     -22.575  -5.652  -5.651  0.00  0.00    -0.271 OA
ENDROOT
BRANCH   1   5
HETATM    5  C           1     -20.495  -5.005  -6.552  0.00  0.00     0.274 C 
BRANCH   5   6
HETATM    6  N           1     -19.988  -5.888  -7.654  0.00  0.00    -0.067 N 
HETATM    7  H           1     -18.943  -5.886  -7.650  0.00  0.00     0.275 HD
HETATM    8  H           1     -20.334  -6.862  -7.507  0.00  0.00     0.275 HD
HETATM    9  H           1     -20.334  -5.530  -8.573  0.00  0.00     0.275 HD
ENDBRANCH   5   6
BRANCH   5  10
HETATM   10  C           1     -21.296  -3.857  -7.150  0.00  0.00     0.045 C 
BRANCH  10  11
HETATM   11 Se           1     -21.809  -4.302  -8.977  0.00  0.00     0.000 Se
HETATM   12  H           1     -23.253  -4.302  -8.694  0.00  0.00     0.000 HD
ENDBRANCH  10  11
ENDBRANCH   5  10
ENDBRANCH   1   5
BRANCH   2  13
HETATM   13  C           1     -21.671  -7.493  -3.885  0.00  0.00     0.185 C 
BRANCH  13  14
HETATM   14  C           1     -21.630  -6.894  -2.501  0.00  0.00     0.196 C 
HETATM   15  O           1     -20.885  -7.389  -1.627  0.00  0.00    -0.646 OA
HETATM   16  O           1     -22.342  -5.904  -2.228  0.00  0.00    -0.646 OA
ENDBRANCH  13  14
BRANCH  13  17
HETATM   17  C           1     -21.172  -8.930  -3.832  0.00  0.00     0.036 C 
BRANCH  17  18
HETATM   18  C           1     -19.870  -9.046  -4.613  0.00  0.00     0.003 C 
BRANCH  18  19
HETATM   19 Se           1     -18.413  -9.469  -3.390  0.00  0.00     0.000 Se
HETATM   20  C           1     -19.500 -10.587  -2.221  0.00  0.00     0.000 C 
ENDBRANCH  18  19
ENDBRANCH  17  18
ENDBRANCH  13  17
ENDBRANCH   2  13
TORSDOF 9
ENDMDL
MODEL 9
REMARK VINA RESULT:      -3.9     14.973     16.801
REMARK  9 active torsions:
REMARK  status: ('A' for Active; 'I' for Inactive)
REMARK    1  A    between atoms: N_1  and  C_4 
REMARK    2  A    between atoms: Se_2  and  C_3 
REMARK    3  A    between atoms: C_3  and  C_4 
REMARK    4  A    between atoms: C_4  and  C_5 
REMARK       I    between atoms: C_5  and  N_6 
REMARK    5  A    between atoms: N_6  and  C_10 
REMARK    6  A    between atoms: C_9  and  C_10 
REMARK    7  A    between atoms: C_10  and  C_19 
REMARK    8  A    between atoms: Se_17  and  C_20 
REMARK    9  A    between atoms: C_19  and  C_20 
ROOT
HETATM    1  C           1     -21.055  -7.563  -4.376  0.00  0.00     0.249 C 
HETATM    2  N           1     -20.894  -7.252  -3.053  0.00  0.00    -0.345 N 
HETATM    3  H           1     -20.333  -6.453  -2.785  0.00  0.00     0.163 HD
HETATM    4  O           1     -21.723  -8.516  -4.696  0.00  0.00    -0.271 OA
ENDROOT
BRANCH   1   5
HETATM    5  C           1     -20.398  -6.713  -5.437  0.00  0.00     0.274 C 
BRANCH   5   6
HETATM    6  N           1     -20.988  -7.043  -6.776  0.00  0.00    -0.067 N 
HETATM    7  H           1     -21.737  -6.351  -7.007  0.00  0.00     0.275 HD
HETATM    8  H           1     -20.242  -7.003  -7.505  0.00  0.00     0.275 HD
HETATM    9  H           1     -21.398  -8.003  -6.748  0.00  0.00     0.275 HD
ENDBRANCH   5   6
BRANCH   5  10
HETATM   10  C           1     -20.632  -5.241  -5.127  0.00  0.00     0.045 C 
BRANCH  10  11
HETATM   11 Se           1     -20.812  -4.246  -6.793  0.00  0.00     0.000 Se
HETATM   12  H           1     -19.380  -4.318  -7.125  0.00  0.00     0.000 HD
ENDBRANCH  10  11
ENDBRANCH   5  10
ENDBRANCH   1   5
BRANCH   2  13
HETATM   13  C           1     -21.525  -8.068  -2.034  0.00  0.00     0.185 C 
BRANCH  13  14
HETATM   14  C           1     -22.297  -7.181  -1.087  0.00  0.00     0.196 C 
HETATM   15  O           1     -22.429  -5.964  -1.339  0.00  0.00    -0.646 OA
HETATM   16  O           1     -22.802  -7.664  -0.051  0.00  0.00    -0.646 OA
ENDBRANCH  13  14
BRANCH  13  17
HETATM   17  C           1     -20.458  -8.829  -1.260  0.00  0.00     0.036 C 
BRANCH  17  18
HETATM   18  C           1     -20.299 -10.223  -1.850  0.00  0.00     0.003 C 
BRANCH  18  19
HETATM   19 Se           1     -19.954 -11.501  -0.419  0.00  0.00     0.000 Se
HETATM   20  C           1     -20.746 -10.398   0.978  0.00  0.00     0.000 C 
ENDBRANCH  18  19
ENDBRANCH  17  18
ENDBRANCH  13  17
ENDBRANCH   2  13
TORSDOF 9
ENDMDL
