MODEL 1
REMARK VINA RESULT:      -5.4      0.000      0.000
REMARK  10 active torsions:
REMARK  status: ('A' for Active; 'I' for Inactive)
REMARK    1  A    between atoms: C_1  and  C_2 
REMARK    2  A    between atoms: C_2  and  C_3 
REMARK    3  A    between atoms: C_2  and  N_8 
REMARK    4  A    between atoms: C_3  and  C_4 
REMARK    5  A    between atoms: C_4  and  C_11 
REMARK    6  A    between atoms: C_5  and  C_6 
REMARK    7  A    between atoms: C_5  and  Se_23 
REMARK    8  A    between atoms: C_6  and  C_7 
REMARK    9  A    between atoms: C_6  and  N_22 
REMARK       I    between atoms: C_7  and  N_8 
REMARK   10  A    between atoms: C_11  and  N_12 
ROOT
HETATM    1  C           1     -25.459  -6.842 -18.943  0.00  0.00     0.249 C 
HETATM    2  N           1     -26.614  -6.626 -18.242  0.00  0.00    -0.345 N 
HETATM    3  H           1     -27.500  -6.941 -18.615  0.00  0.00     0.163 HD
HETATM    4  O           1     -24.402  -6.465 -18.497  0.00  0.00    -0.271 OA
ENDROOT
BRANCH   2   5
HETATM    5  C           1     -26.568  -5.945 -16.962  0.00  0.00     0.185 C 
BRANCH   5   6
HETATM    6  C           1     -26.540  -6.966 -15.851  0.00  0.00     0.196 C 
HETATM    7  O           1     -25.445  -7.399 -15.429  0.00  0.00    -0.646 OA
HETATM    8  O           1     -27.609  -7.376 -15.351  0.00  0.00    -0.646 OA
ENDBRANCH   5   6
BRANCH   5   9
HETATM    9  C           1     -27.802  -5.064 -16.812  0.00  0.00     0.038 C 
BRANCH   9  10
HETATM   10  C           1     -28.729  -5.282 -18.000  0.00  0.00     0.030 C 
BRANCH  10  11
HETATM   11  C           1     -30.073  -5.801 -17.507  0.00  0.00     0.230 C 
BRANCH  11  12
HETATM   12  N           1     -30.138  -5.684 -16.013  0.00  0.00    -0.079 N 
HETATM   13  H           1     -31.059  -5.276 -15.734  0.00  0.00     0.274 HD
HETATM   14  H           1     -30.033  -6.631 -15.585  0.00  0.00     0.274 HD
HETATM   15  H           1     -29.366  -5.062 -15.679  0.00  0.00     0.274 HD
ENDBRANCH  11  12
ENDBRANCH  10  11
ENDBRANCH   9  10
ENDBRANCH   5   9
ENDBRANCH   2   5
BRANCH   1  16
HETATM   16  C           1     -25.508  -7.551 -20.275  0.00  0.00     0.274 C 
BRANCH  16  17
HETATM   17  C           1     -24.882  -6.665 -21.345  0.00  0.00     0.045 C 
BRANCH  17  18
HETATM   18 Se           1     -23.847  -7.766 -22.576  0.00  0.00     0.000 Se
HETATM   19  H           1     -22.959  -8.303 -21.532  0.00  0.00     0.000 HD
ENDBRANCH  17  18
ENDBRANCH  16  17
BRANCH  16  20
HETATM   20  N           1     -26.935  -7.838 -20.637  0.00  0.00    -0.067 N 
HETATM   21  H           1     -27.340  -8.515 -19.952  0.00  0.00     0.275 HD
HETATM   22  H           1     -27.484  -6.949 -20.616  0.00  0.00     0.275 HD
HETATM   23  H           1     -26.974  -8.249 -21.598  0.00  0.00     0.275 HD
ENDBRANCH  16  20
ENDBRANCH   1  16
TORSDOF 10
ENDMDL
MODEL 2
REMARK VINA RESULT:      -5.4      2.278      2.911
REMARK  10 active torsions:
REMARK  status: ('A' for Active; 'I' for Inactive)
REMARK    1  A    between atoms: C_1  and  C_2 
REMARK    2  A    between atoms: C_2  and  C_3 
REMARK    3  A    between atoms: C_2  and  N_8 
REMARK    4  A    between atoms: C_3  and  C_4 
REMARK    5  A    between atoms: C_4  and  C_11 
REMARK    6  A    between atoms: C_5  and  C_6 
REMARK    7  A    between atoms: C_5  and  Se_23 
REMARK    8  A    between atoms: C_6  and  C_7 
REMARK    9  A    between atoms: C_6  and  N_22 
REMARK       I    between atoms: C_7  and  N_8 
REMARK   10  A    between atoms: C_11  and  N_12 
ROOT
HETATM    1  C           1     -26.324  -6.554 -18.647  0.00  0.00     0.249 C 
HETATM    2  N           1     -27.616  -6.712 -19.069  0.00  0.00    -0.345 N 
HETATM    3  H           1     -27.807  -6.993 -20.022  0.00  0.00     0.163 HD
HETATM    4  O           1     -26.096  -6.218 -17.509  0.00  0.00    -0.271 OA
ENDROOT
BRANCH   2   5
HETATM    5  C           1     -28.712  -6.477 -18.149  0.00  0.00     0.185 C 
BRANCH   5   6
HETATM    6  C           1     -29.807  -7.483 -18.405  0.00  0.00     0.196 C 
HETATM    7  O           1     -30.942  -7.310 -17.912  0.00  0.00    -0.646 OA
HETATM    8  O           1     -29.579  -8.489 -19.111  0.00  0.00    -0.646 OA
ENDBRANCH   5   6
BRANCH   5   9
HETATM    9  C           1     -29.256  -5.069 -18.358  0.00  0.00     0.038 C 
BRANCH   9  10
HETATM   10  C           1     -28.819  -4.179 -17.203  0.00  0.00     0.030 C 
BRANCH  10  11
HETATM   11  C           1     -29.435  -2.796 -17.366  0.00  0.00     0.230 C 
BRANCH  11  12
HETATM   12  N           1     -30.892  -2.933 -17.697  0.00  0.00    -0.079 N 
HETATM   13  H           1     -31.413  -3.258 -16.851  0.00  0.00     0.274 HD
HETATM   14  H           1     -31.268  -2.008 -18.002  0.00  0.00     0.274 HD
HETATM   15  H           1     -31.010  -3.630 -18.468  0.00  0.00     0.274 HD
ENDBRANCH  11  12
ENDBRANCH  10  11
ENDBRANCH   9  10
ENDBRANCH   5   9
ENDBRANCH   2   5
BRANCH   1  16
HETATM   16  C           1     -25.183  -6.799 -19.605  0.00  0.00     0.274 C 
BRANCH  16  17
HETATM   17  C           1     -25.685  -7.599 -20.800  0.00  0.00     0.045 C 
BRANCH  17  18
HETATM   18 Se           1     -24.226  -7.862 -22.066  0.00  0.00     0.000 Se
HETATM   19  H           1     -24.722  -9.163 -22.544  0.00  0.00     0.000 HD
ENDBRANCH  17  18
ENDBRANCH  16  17
BRANCH  16  20
HETATM   20  N           1     -24.102  -7.570 -18.907  0.00  0.00    -0.067 N 
HETATM   21  H           1     -23.662  -6.970 -18.174  0.00  0.00     0.275 HD
HETATM   22  H           1     -24.514  -8.420 -18.461  0.00  0.00     0.275 HD
HETATM   23  H           1     -23.377  -7.858 -19.603  0.00  0.00     0.275 HD
ENDBRANCH  16  20
ENDBRANCH   1  16
TORSDOF 10
ENDMDL
MODEL 3
REMARK VINA RESULT:      -5.4     10.064     11.780
REMARK  10 active torsions:
REMARK  status: ('A' for Active; 'I' for Inactive)
REMARK    1  A    between atoms: C_1  and  C_2 
REMARK    2  A    between atoms: C_2  and  C_3 
REMARK    3  A    between atoms: C_2  and  N_8 
REMARK    4  A    between atoms: C_3  and  C_4 
REMARK    5  A    between atoms: C_4  and  C_11 
REMARK    6  A    between atoms: C_5  and  C_6 
REMARK    7  A    between atoms: C_5  and  Se_23 
REMARK    8  A    between atoms: C_6  and  C_7 
REMARK    9  A    between atoms: C_6  and  N_22 
REMARK       I    between atoms: C_7  and  N_8 
REMARK   10  A    between atoms: C_11  and  N_12 
ROOT
HETATM    1  C           1     -34.255  -2.585 -12.211  0.00  0.00     0.249 C 
HETATM    2  N           1     -34.921  -1.665 -12.975  0.00  0.00    -0.345 N 
HETATM    3  H           1     -35.357  -1.948 -13.843  0.00  0.00     0.163 HD
HETATM    4  O           1     -33.735  -2.247 -11.175  0.00  0.00    -0.271 OA
ENDROOT
BRANCH   2   5
HETATM    5  C           1     -35.001  -0.283 -12.540  0.00  0.00     0.185 C 
BRANCH   5   6
HETATM    6  C           1     -36.290  -0.069 -11.786  0.00  0.00     0.196 C 
HETATM    7  O           1     -37.365  -0.506 -12.249  0.00  0.00    -0.646 OA
HETATM    8  O           1     -36.282   0.545 -10.697  0.00  0.00    -0.646 OA
ENDBRANCH   5   6
BRANCH   5   9
HETATM    9  C           1     -34.964   0.634 -13.756  0.00  0.00     0.038 C 
BRANCH   9  10
HETATM   10  C           1     -35.374  -0.149 -14.995  0.00  0.00     0.030 C 
BRANCH  10  11
HETATM   11  C           1     -36.633   0.466 -15.592  0.00  0.00     0.230 C 
BRANCH  11  12
HETATM   12  N           1     -36.350   1.878 -16.012  0.00  0.00    -0.079 N 
HETATM   13  H           1     -35.381   1.939 -16.398  0.00  0.00     0.274 HD
HETATM   14  H           1     -37.035   2.167 -16.745  0.00  0.00     0.274 HD
HETATM   15  H           1     -36.436   2.511 -15.184  0.00  0.00     0.274 HD
ENDBRANCH  11  12
ENDBRANCH  10  11
ENDBRANCH   9  10
ENDBRANCH   5   9
ENDBRANCH   2   5
BRANCH   1  16
HETATM   16  C           1     -34.172  -4.022 -12.664  0.00  0.00     0.274 C 
BRANCH  16  17
HETATM   17  C           1     -33.233  -4.792 -11.744  0.00  0.00     0.045 C 
BRANCH  17  18
HETATM   18 Se           1     -34.256  -6.090 -10.711  0.00  0.00     0.000 Se
HETATM   19  H           1     -33.568  -7.259 -11.282  0.00  0.00     0.000 HD
ENDBRANCH  17  18
ENDBRANCH  16  17
BRANCH  16  20
HETATM   20  N           1     -33.648  -4.074 -14.069  0.00  0.00    -0.067 N 
HETATM   21  H           1     -32.924  -3.332 -14.199  0.00  0.00     0.275 HD
HETATM   22  H           1     -33.222  -5.012 -14.246  0.00  0.00     0.275 HD
HETATM   23  H           1     -34.434  -3.916 -14.739  0.00  0.00     0.275 HD
ENDBRANCH  16  20
ENDBRANCH   1  16
TORSDOF 10
ENDMDL
MODEL 4
REMARK VINA RESULT:      -5.2     10.177     12.082
REMARK  10 active torsions:
REMARK  status: ('A' for Active; 'I' for Inactive)
REMARK    1  A    between atoms: C_1  and  C_2 
REMARK    2  A    between atoms: C_2  and  C_3 
REMARK    3  A    between atoms: C_2  and  N_8 
REMARK    4  A    between atoms: C_3  and  C_4 
REMARK    5  A    between atoms: C_4  and  C_11 
REMARK    6  A    between atoms: C_5  and  C_6 
REMARK    7  A    between atoms: C_5  and  Se_23 
REMARK    8  A    between atoms: C_6  and  C_7 
REMARK    9  A    between atoms: C_6  and  N_22 
REMARK       I    between atoms: C_7  and  N_8 
REMARK   10  A    between atoms: C_11  and  N_12 
ROOT
HETATM    1  C           1     -35.467  -1.756 -10.747  0.00  0.00     0.249 C 
HETATM    2  N           1     -35.524  -2.987 -11.343  0.00  0.00    -0.345 N 
HETATM    3  H           1     -36.301  -3.220 -11.948  0.00  0.00     0.163 HD
HETATM    4  O           1     -34.540  -1.477 -10.024  0.00  0.00    -0.271 OA
ENDROOT
BRANCH   2   5
HETATM    5  C           1     -34.472  -3.956 -11.106  0.00  0.00     0.185 C 
BRANCH   5   6
HETATM    6  C           1     -33.486  -3.915 -12.247  0.00  0.00     0.196 C 
HETATM    7  O           1     -32.266  -4.075 -12.024  0.00  0.00    -0.646 OA
HETATM    8  O           1     -33.888  -3.721 -13.415  0.00  0.00    -0.646 OA
ENDBRANCH   5   6
BRANCH   5   9
HETATM    9  C           1     -35.079  -5.350 -11.009  0.00  0.00     0.038 C 
BRANCH   9  10
HETATM   10  C           1     -34.009  -6.341 -10.575  0.00  0.00     0.030 C 
BRANCH  10  11
HETATM   11  C           1     -34.664  -7.663 -10.195  0.00  0.00     0.230 C 
BRANCH  11  12
HETATM   12  N           1     -33.642  -8.760 -10.244  0.00  0.00    -0.079 N 
HETATM   13  H           1     -33.714  -9.342  -9.380  0.00  0.00     0.274 HD
HETATM   14  H           1     -33.815  -9.359 -11.082  0.00  0.00     0.274 HD
HETATM   15  H           1     -32.686  -8.342 -10.305  0.00  0.00     0.274 HD
ENDBRANCH  11  12
ENDBRANCH  10  11
ENDBRANCH   9  10
ENDBRANCH   5   9
ENDBRANCH   2   5
BRANCH   1  16
HETATM   16  C           1     -36.562  -0.747 -10.994  0.00  0.00     0.274 C 
BRANCH  16  17
HETATM   17  C           1     -36.664  -0.462 -12.487  0.00  0.00     0.045 C 
BRANCH  17  18
HETATM   18 Se           1     -35.021   0.389 -13.100  0.00  0.00     0.000 Se
HETATM   19  H           1     -34.481   0.585 -11.745  0.00  0.00     0.000 HD
ENDBRANCH  17  18
ENDBRANCH  16  17
BRANCH  16  20
HETATM   20  N           1     -36.244   0.524 -10.264  0.00  0.00    -0.067 N 
HETATM   21  H           1     -36.715   1.327 -10.738  0.00  0.00     0.275 HD
HETATM   22  H           1     -36.584   0.453  -9.278  0.00  0.00     0.275 HD
HETATM   23  H           1     -35.210   0.677 -10.266  0.00  0.00     0.275 HD
ENDBRANCH  16  20
ENDBRANCH   1  16
TORSDOF 10
ENDMDL
MODEL 5
REMARK VINA RESULT:      -4.9      2.005      2.372
REMARK  10 active torsions:
REMARK  status: ('A' for Active; 'I' for Inactive)
REMARK    1  A    between atoms: C_1  and  C_2 
REMARK    2  A    between atoms: C_2  and  C_3 
REMARK    3  A    between atoms: C_2  and  N_8 
REMARK    4  A    between atoms: C_3  and  C_4 
REMARK    5  A    between atoms: C_4  and  C_11 
REMARK    6  A    between atoms: C_5  and  C_6 
REMARK    7  A    between atoms: C_5  and  Se_23 
REMARK    8  A    between atoms: C_6  and  C_7 
REMARK    9  A    between atoms: C_6  and  N_22 
REMARK       I    between atoms: C_7  and  N_8 
REMARK   10  A    between atoms: C_11  and  N_12 
ROOT
HETATM    1  C           1     -26.594  -6.405 -19.457  0.00  0.00     0.249 C 
HETATM    2  N           1     -26.879  -6.399 -18.119  0.00  0.00    -0.345 N 
HETATM    3  H           1     -26.187  -6.715 -17.452  0.00  0.00     0.163 HD
HETATM    4  O           1     -27.420  -6.027 -20.253  0.00  0.00    -0.271 OA
ENDROOT
BRANCH   2   5
HETATM    5  C           1     -28.174  -5.938 -17.656  0.00  0.00     0.185 C 
BRANCH   5   6
HETATM    6  C           1     -27.983  -4.916 -16.564  0.00  0.00     0.196 C 
HETATM    7  O           1     -27.897  -5.284 -15.372  0.00  0.00    -0.646 OA
HETATM    8  O           1     -27.908  -3.701 -16.850  0.00  0.00    -0.646 OA
ENDBRANCH   5   6
BRANCH   5   9
HETATM    9  C           1     -28.968  -7.120 -17.114  0.00  0.00     0.038 C 
BRANCH   9  10
HETATM   10  C           1     -30.343  -7.152 -17.768  0.00  0.00     0.030 C 
BRANCH  10  11
HETATM   11  C           1     -31.210  -6.045 -17.182  0.00  0.00     0.230 C 
BRANCH  11  12
HETATM   12  N           1     -32.645  -6.483 -17.180  0.00  0.00    -0.079 N 
HETATM   13  H           1     -32.748  -7.345 -17.761  0.00  0.00     0.274 HD
HETATM   14  H           1     -32.945  -6.686 -16.200  0.00  0.00     0.274 HD
HETATM   15  H           1     -33.241  -5.721 -17.577  0.00  0.00     0.274 HD
ENDBRANCH  11  12
ENDBRANCH  10  11
ENDBRANCH   9  10
ENDBRANCH   5   9
ENDBRANCH   2   5
BRANCH   1  16
HETATM   16  C           1     -25.246  -6.885 -19.938  0.00  0.00     0.274 C 
BRANCH  16  17
HETATM   17  C           1     -25.438  -7.947 -21.013  0.00  0.00     0.045 C 
BRANCH  17  18
HETATM   18 Se           1     -23.930  -7.903 -22.248  0.00  0.00     0.000 Se
HETATM   19  H           1     -24.733  -7.439 -23.391  0.00  0.00     0.000 HD
ENDBRANCH  17  18
ENDBRANCH  16  17
BRANCH  16  20
HETATM   20  N           1     -24.484  -7.472 -18.787  0.00  0.00    -0.067 N 
HETATM   21  H           1     -23.505  -7.682 -19.086  0.00  0.00     0.275 HD
HETATM   22  H           1     -24.468  -6.788 -17.996  0.00  0.00     0.275 HD
HETATM   23  H           1     -24.950  -8.354 -18.476  0.00  0.00     0.275 HD
ENDBRANCH  16  20
ENDBRANCH   1  16
TORSDOF 10
ENDMDL
MODEL 6
REMARK VINA RESULT:      -4.8      2.632      3.875
REMARK  10 active torsions:
REMARK  status: ('A' for Active; 'I' for Inactive)
REMARK    1  A    between atoms: C_1  and  C_2 
REMARK    2  A    between atoms: C_2  and  C_3 
REMARK    3  A    between atoms: C_2  and  N_8 
REMARK    4  A    between atoms: C_3  and  C_4 
REMARK    5  A    between atoms: C_4  and  C_11 
REMARK    6  A    between atoms: C_5  and  C_6 
REMARK    7  A    between atoms: C_5  and  Se_23 
REMARK    8  A    between atoms: C_6  and  C_7 
REMARK    9  A    between atoms: C_6  and  N_22 
REMARK       I    between atoms: C_7  and  N_8 
REMARK   10  A    between atoms: C_11  and  N_12 
ROOT
HETATM    1  C           1     -26.862  -6.924 -16.279  0.00  0.00     0.249 C 
HETATM    2  N           1     -27.741  -6.656 -17.293  0.00  0.00    -0.345 N 
HETATM    3  H           1     -27.437  -6.125 -18.099  0.00  0.00     0.163 HD
HETATM    4  O           1     -27.224  -7.558 -15.317  0.00  0.00    -0.271 OA
ENDROOT
BRANCH   2   5
HETATM    5  C           1     -29.108  -7.133 -17.212  0.00  0.00     0.185 C 
BRANCH   5   6
HETATM    6  C           1     -29.511  -7.730 -18.538  0.00  0.00     0.196 C 
HETATM    7  O           1     -30.688  -8.109 -18.721  0.00  0.00    -0.646 OA
HETATM    8  O           1     -28.668  -7.843 -19.454  0.00  0.00    -0.646 OA
ENDBRANCH   5   6
BRANCH   5   9
HETATM    9  C           1     -30.032  -5.970 -16.876  0.00  0.00     0.038 C 
BRANCH   9  10
HETATM   10  C           1     -29.619  -4.744 -17.680  0.00  0.00     0.030 C 
BRANCH  10  11
HETATM   11  C           1     -30.691  -3.670 -17.555  0.00  0.00     0.230 C 
BRANCH  11  12
HETATM   12  N           1     -30.039  -2.322 -17.455  0.00  0.00    -0.079 N 
HETATM   13  H           1     -30.147  -1.814 -18.362  0.00  0.00     0.274 HD
HETATM   14  H           1     -30.492  -1.772 -16.692  0.00  0.00     0.274 HD
HETATM   15  H           1     -29.022  -2.442 -17.242  0.00  0.00     0.274 HD
ENDBRANCH  11  12
ENDBRANCH  10  11
ENDBRANCH   9  10
ENDBRANCH   5   9
ENDBRANCH   2   5
BRANCH   1  16
HETATM   16  C           1     -25.439  -6.427 -16.364  0.00  0.00     0.274 C 
BRANCH  16  17
HETATM   17  C           1     -24.587  -7.449 -17.106  0.00  0.00     0.045 C 
BRANCH  17  18
HETATM   18 Se           1     -24.489  -6.966 -18.992  0.00  0.00     0.000 Se
HETATM   19  H           1     -23.373  -7.880 -19.287  0.00  0.00     0.000 HD
ENDBRANCH  17  18
ENDBRANCH  16  17
BRANCH  16  20
HETATM   20  N           1     -24.894  -6.235 -14.979  0.00  0.00    -0.067 N 
HETATM   21  H           1     -25.467  -5.523 -14.473  0.00  0.00     0.275 HD
HETATM   22  H           1     -24.929  -7.143 -14.463  0.00  0.00     0.275 HD
HETATM   23  H           1     -23.903  -5.907 -15.038  0.00  0.00     0.275 HD
ENDBRANCH  16  20
ENDBRANCH   1  16
TORSDOF 10
ENDMDL
MODEL 7
REMARK VINA RESULT:      -4.7     10.894     13.014
REMARK  10 active torsions:
REMARK  status: ('A' for Active; 'I' for Inactive)
REMARK    1  A    between atoms: C_1  and  C_2 
REMARK    2  A    between atoms: C_2  and  C_3 
REMARK    3  A    between atoms: C_2  and  N_8 
REMARK    4  A    between atoms: C_3  and  C_4 
REMARK    5  A    between atoms: C_4  and  C_11 
REMARK    6  A    between atoms: C_5  and  C_6 
REMARK    7  A    between atoms: C_5  and  Se_23 
REMARK    8  A    between atoms: C_6  and  C_7 
REMARK    9  A    between atoms: C_6  and  N_22 
REMARK       I    between atoms: C_7  and  N_8 
REMARK   10  A    between atoms: C_11  and  N_12 
ROOT
HETATM    1  C           1     -35.546  -1.418 -10.445  0.00  0.00     0.249 C 
HETATM    2  N           1     -35.702  -2.386 -11.399  0.00  0.00    -0.345 N 
HETATM    3  H           1     -36.533  -2.399 -11.977  0.00  0.00     0.163 HD
HETATM    4  O           1     -34.554  -1.403  -9.756  0.00  0.00    -0.271 OA
ENDROOT
BRANCH   2   5
HETATM    5  C           1     -34.677  -3.395 -11.583  0.00  0.00     0.185 C 
BRANCH   5   6
HETATM    6  C           1     -34.211  -3.383 -13.018  0.00  0.00     0.196 C 
HETATM    7  O           1     -34.794  -2.663 -13.857  0.00  0.00    -0.646 OA
HETATM    8  O           1     -33.242  -4.092 -13.367  0.00  0.00    -0.646 OA
ENDBRANCH   5   6
BRANCH   5   9
HETATM    9  C           1     -35.249  -4.767 -11.245  0.00  0.00     0.038 C 
BRANCH   9  10
HETATM   10  C           1     -34.217  -5.569 -10.464  0.00  0.00     0.030 C 
BRANCH  10  11
HETATM   11  C           1     -34.865  -6.834  -9.917  0.00  0.00     0.230 C 
BRANCH  11  12
HETATM   12  N           1     -34.780  -7.923 -10.946  0.00  0.00    -0.079 N 
HETATM   13  H           1     -34.236  -8.727 -10.559  0.00  0.00     0.274 HD
HETATM   14  H           1     -35.743  -8.243 -11.194  0.00  0.00     0.274 HD
HETATM   15  H           1     -34.302  -7.558 -11.801  0.00  0.00     0.274 HD
ENDBRANCH  11  12
ENDBRANCH  10  11
ENDBRANCH   9  10
ENDBRANCH   5   9
ENDBRANCH   2   5
BRANCH   1  16
HETATM   16  C           1     -36.613  -0.368 -10.255  0.00  0.00     0.274 C 
BRANCH  16  17
HETATM   17  C           1     -37.281  -0.561  -8.899  0.00  0.00     0.045 C 
BRANCH  17  18
HETATM   18 Se           1     -36.711   0.854  -7.686  0.00  0.00     0.000 Se
HETATM   19  H           1     -35.421   0.220  -7.369  0.00  0.00     0.000 HD
ENDBRANCH  17  18
ENDBRANCH  16  17
BRANCH  16  20
HETATM   20  N           1     -37.641  -0.497 -11.340  0.00  0.00    -0.067 N 
HETATM   21  H           1     -37.166  -0.689 -12.251  0.00  0.00     0.275 HD
HETATM   22  H           1     -38.290  -1.284 -11.112  0.00  0.00     0.275 HD
HETATM   23  H           1     -38.184   0.393 -11.413  0.00  0.00     0.275 HD
ENDBRANCH  16  20
ENDBRANCH   1  16
TORSDOF 10
ENDMDL
MODEL 8
REMARK VINA RESULT:      -4.7      1.684      2.235
REMARK  10 active torsions:
REMARK  status: ('A' for Active; 'I' for Inactive)
REMARK    1  A    between atoms: C_1  and  C_2 
REMARK    2  A    between atoms: C_2  and  C_3 
REMARK    3  A    between atoms: C_2  and  N_8 
REMARK    4  A    between atoms: C_3  and  C_4 
REMARK    5  A    between atoms: C_4  and  C_11 
REMARK    6  A    between atoms: C_5  and  C_6 
REMARK    7  A    between atoms: C_5  and  Se_23 
REMARK    8  A    between atoms: C_6  and  C_7 
REMARK    9  A    between atoms: C_6  and  N_22 
REMARK       I    between atoms: C_7  and  N_8 
REMARK   10  A    between atoms: C_11  and  N_12 
ROOT
HETATM    1  C           1     -26.138  -6.267 -17.869  0.00  0.00     0.249 C 
HETATM    2  N           1     -27.478  -6.467 -18.057  0.00  0.00    -0.345 N 
HETATM    3  H           1     -27.821  -6.788 -18.953  0.00  0.00     0.163 HD
HETATM    4  O           1     -25.728  -5.883 -16.799  0.00  0.00    -0.271 OA
ENDROOT
BRANCH   2   5
HETATM    5  C           1     -28.408  -6.218 -16.972  0.00  0.00     0.185 C 
BRANCH   5   6
HETATM    6  C           1     -28.603  -7.486 -16.178  0.00  0.00     0.196 C 
HETATM    7  O           1     -29.317  -8.405 -16.635  0.00  0.00    -0.646 OA
HETATM    8  O           1     -28.050  -7.618 -15.065  0.00  0.00    -0.646 OA
ENDBRANCH   5   6
BRANCH   5   9
HETATM    9  C           1     -29.745  -5.765 -17.544  0.00  0.00     0.038 C 
BRANCH   9  10
HETATM   10  C           1     -30.429  -4.830 -16.556  0.00  0.00     0.030 C 
BRANCH  10  11
HETATM   11  C           1     -31.849  -4.544 -17.027  0.00  0.00     0.230 C 
BRANCH  11  12
HETATM   12  N           1     -32.675  -5.791 -16.912  0.00  0.00    -0.079 N 
HETATM   13  H           1     -32.282  -6.529 -17.539  0.00  0.00     0.274 HD
HETATM   14  H           1     -32.657  -6.130 -15.924  0.00  0.00     0.274 HD
HETATM   15  H           1     -33.660  -5.583 -17.193  0.00  0.00     0.274 HD
ENDBRANCH  11  12
ENDBRANCH  10  11
ENDBRANCH   9  10
ENDBRANCH   5   9
ENDBRANCH   2   5
BRANCH   1  16
HETATM   16  C           1     -25.171  -6.526 -18.998  0.00  0.00     0.274 C 
BRANCH  16  17
HETATM   17  C           1     -25.940  -6.976 -20.234  0.00  0.00     0.045 C 
BRANCH  17  18
HETATM   18 Se           1     -24.747  -7.962 -21.419  0.00  0.00     0.000 Se
HETATM   19  H           1     -25.831  -8.471 -22.275  0.00  0.00     0.000 HD
ENDBRANCH  17  18
ENDBRANCH  16  17
BRANCH  16  20
HETATM   20  N           1     -24.205  -7.600 -18.593  0.00  0.00    -0.067 N 
HETATM   21  H           1     -23.734  -7.329 -17.701  0.00  0.00     0.275 HD
HETATM   22  H           1     -24.722  -8.498 -18.456  0.00  0.00     0.275 HD
HETATM   23  H           1     -23.487  -7.723 -19.342  0.00  0.00     0.275 HD
ENDBRANCH  16  20
ENDBRANCH   1  16
TORSDOF 10
ENDMDL
MODEL 9
REMARK VINA RESULT:      -4.6      3.625      5.542
REMARK  10 active torsions:
REMARK  status: ('A' for Active; 'I' for Inactive)
REMARK    1  A    between atoms: C_1  and  C_2 
REMARK    2  A    between atoms: C_2  and  C_3 
REMARK    3  A    between atoms: C_2  and  N_8 
REMARK    4  A    between atoms: C_3  and  C_4 
REMARK    5  A    between atoms: C_4  and  C_11 
REMARK    6  A    between atoms: C_5  and  C_6 
REMARK    7  A    between atoms: C_5  and  Se_23 
REMARK    8  A    between atoms: C_6  and  C_7 
REMARK    9  A    between atoms: C_6  and  N_22 
REMARK       I    between atoms: C_7  and  N_8 
REMARK   10  A    between atoms: C_11  and  N_12 
ROOT
HETATM    1  C           1     -28.413  -6.214 -18.681  0.00  0.00     0.249 C 
HETATM    2  N           1     -27.552  -7.162 -19.165  0.00  0.00    -0.345 N 
HETATM    3  H           1     -27.473  -8.058 -18.701  0.00  0.00     0.163 HD
HETATM    4  O           1     -28.507  -5.144 -19.235  0.00  0.00    -0.271 OA
ENDROOT
BRANCH   2   5
HETATM    5  C           1     -26.751  -6.881 -20.341  0.00  0.00     0.185 C 
BRANCH   5   6
HETATM    6  C           1     -26.676  -8.117 -21.203  0.00  0.00     0.196 C 
HETATM    7  O           1     -25.579  -8.478 -21.683  0.00  0.00    -0.646 OA
HETATM    8  O           1     -27.709  -8.781 -21.437  0.00  0.00    -0.646 OA
ENDBRANCH   5   6
BRANCH   5   9
HETATM    9  C           1     -25.348  -6.472 -19.914  0.00  0.00     0.038 C 
BRANCH   9  10
HETATM   10  C           1     -25.151  -6.797 -18.440  0.00  0.00     0.030 C 
BRANCH  10  11
HETATM   11  C           1     -23.714  -7.244 -18.205  0.00  0.00     0.230 C 
BRANCH  11  12
HETATM   12  N           1     -23.598  -7.862 -16.843  0.00  0.00    -0.079 N 
HETATM   13  H           1     -23.025  -7.243 -16.227  0.00  0.00     0.274 HD
HETATM   14  H           1     -24.551  -7.977 -16.431  0.00  0.00     0.274 HD
HETATM   15  H           1     -23.137  -8.798 -16.924  0.00  0.00     0.274 HD
ENDBRANCH  11  12
ENDBRANCH  10  11
ENDBRANCH   9  10
ENDBRANCH   5   9
ENDBRANCH   2   5
BRANCH   1  16
HETATM   16  C           1     -29.245  -6.507 -17.457  0.00  0.00     0.274 C 
BRANCH  16  17
HETATM   17  C           1     -29.478  -5.217 -16.680  0.00  0.00     0.045 C 
BRANCH  17  18
HETATM   18 Se           1     -31.318  -4.627 -16.936  0.00  0.00     0.000 Se
HETATM   19  H           1     -30.957  -3.502 -17.814  0.00  0.00     0.000 HD
ENDBRANCH  17  18
ENDBRANCH  16  17
BRANCH  16  20
HETATM   20  N           1     -28.523  -7.490 -16.585  0.00  0.00    -0.067 N 
HETATM   21  H           1     -27.542  -7.604 -16.924  0.00  0.00     0.275 HD
HETATM   22  H           1     -28.514  -7.140 -15.600  0.00  0.00     0.275 HD
HETATM   23  H           1     -29.013  -8.413 -16.622  0.00  0.00     0.275 HD
ENDBRANCH  16  20
ENDBRANCH   1  16
TORSDOF 10
ENDMDL
