MODEL 1
REMARK VINA RESULT:      -8.2      0.000      0.000
REMARK  9 active torsions:
REMARK  status: ('A' for Active; 'I' for Inactive)
REMARK    1  A    between atoms: N_9  and  C_20 
REMARK    2  A    between atoms: O_14  and  P_15 
REMARK    3  A    between atoms: P_15  and  O_16 
REMARK    4  A    between atoms: O_16  and  C_17 
REMARK    5  A    between atoms: C_18  and  C_19 
REMARK    6  A    between atoms: C_19  and  C_20 
REMARK    7  A    between atoms: C_20  and  C_21 
REMARK       I    between atoms: C_21  and  N_22 
REMARK    8  A    between atoms: N_22  and  C_23 
REMARK    9  A    between atoms: C_23  and  C_25 
ROOT
HETATM    1  C           1     -20.060  -4.870  -5.752  0.00  0.00     0.081 C 
ENDROOT
BRANCH   1   2
HETATM    2  C           1     -20.651  -4.545  -7.089  0.00  0.00    -0.056 A 
HETATM    3  C           1     -19.928  -4.805  -8.253  0.00  0.00     0.010 A 
HETATM    4  C           1     -20.480  -4.503  -9.498  0.00  0.00     0.038 A 
HETATM    5  C           1     -21.754  -3.941  -9.579  0.00  0.00     0.081 A 
HETATM    6  C           1     -22.477  -3.682  -8.415  0.00  0.00     0.038 A 
HETATM    7  C           1     -21.926  -3.984  -7.170  0.00  0.00     0.010 A 
BRANCH   5   8
HETATM    8  O           1     -22.289  -3.647 -10.789  0.00  0.00    -0.247 OA
BRANCH   8   9
HETATM    9  P           1     -23.695  -4.337 -11.183  0.00  0.00     0.411 P 
HETATM   10  O           1     -24.793  -3.361 -10.998  0.00  0.00    -0.624 OA
HETATM   11  O           1     -23.927  -5.512 -10.314  0.00  0.00    -0.624 OA
BRANCH   9  12
HETATM   12  O           1     -23.651  -4.809 -12.726  0.00  0.00    -0.300 OA
HETATM   13  H           1     -22.766  -4.650 -13.005  0.00  0.00     0.223 HD
ENDBRANCH   9  12
ENDBRANCH   8   9
ENDBRANCH   5   8
ENDBRANCH   1   2
BRANCH   1  14
HETATM   14  C           1     -20.450  -6.287  -5.355  0.00  0.00     0.278 C 
BRANCH  14  15
HETATM   15  N           1     -20.951  -7.024  -6.562  0.00  0.00    -0.066 N 
HETATM   16  H           1     -21.462  -7.883  -6.258  0.00  0.00     0.275 HD
HETATM   17  H           1     -20.142  -7.295  -7.165  0.00  0.00     0.275 HD
HETATM   18  H           1     -21.598  -6.407  -7.104  0.00  0.00     0.275 HD
ENDBRANCH  14  15
BRANCH  14  19
HETATM   19  C           1     -21.537  -6.237  -4.310  0.00  0.00     0.249 C 
HETATM   20  O           1     -22.698  -6.220  -4.644  0.00  0.00    -0.271 OA
HETATM   21  N           1     -21.208  -6.211  -2.981  0.00  0.00    -0.349 N 
HETATM   22  H           1     -20.235  -6.226  -2.700  0.00  0.00     0.163 HD
BRANCH  21  23
HETATM   23  C           1     -22.251  -6.164  -1.976  0.00  0.00     0.235 C 
BRANCH  23  24
HETATM   24  C           1     -22.028  -7.261  -0.965  0.00  0.00     0.191 C 
HETATM   25  O           1     -22.909  -7.517  -0.116  0.00  0.00    -0.647 OA
HETATM   26  O           1     -20.961  -7.913  -0.974  0.00  0.00    -0.647 OA
ENDBRANCH  23  24
ENDBRANCH  21  23
ENDBRANCH  14  19
ENDBRANCH   1  14
TORSDOF 9
ENDMDL
MODEL 2
REMARK VINA RESULT:      -7.8     11.799     14.834
REMARK  9 active torsions:
REMARK  status: ('A' for Active; 'I' for Inactive)
REMARK    1  A    between atoms: N_9  and  C_20 
REMARK    2  A    between atoms: O_14  and  P_15 
REMARK    3  A    between atoms: P_15  and  O_16 
REMARK    4  A    between atoms: O_16  and  C_17 
REMARK    5  A    between atoms: C_18  and  C_19 
REMARK    6  A    between atoms: C_19  and  C_20 
REMARK    7  A    between atoms: C_20  and  C_21 
REMARK       I    between atoms: C_21  and  N_22 
REMARK    8  A    between atoms: N_22  and  C_23 
REMARK    9  A    between atoms: C_23  and  C_25 
ROOT
HETATM    1  C           1     -31.874  -5.665 -17.638  0.00  0.00     0.081 C 
ENDROOT
BRANCH   1   2
HETATM    2  C           1     -30.413  -5.567 -17.326  0.00  0.00    -0.056 A 
HETATM    3  C           1     -29.996  -5.249 -16.034  0.00  0.00     0.010 A 
HETATM    4  C           1     -28.634  -5.159 -15.744  0.00  0.00     0.038 A 
HETATM    5  C           1     -27.691  -5.388 -16.746  0.00  0.00     0.081 A 
HETATM    6  C           1     -28.109  -5.707 -18.038  0.00  0.00     0.038 A 
HETATM    7  C           1     -29.470  -5.797 -18.328  0.00  0.00     0.010 A 
BRANCH   5   8
HETATM    8  O           1     -26.368  -5.300 -16.463  0.00  0.00    -0.247 OA
BRANCH   8   9
HETATM    9  P           1     -25.638  -6.600 -15.842  0.00  0.00     0.411 P 
HETATM   10  O           1     -24.724  -7.182 -16.851  0.00  0.00    -0.624 OA
HETATM   11  O           1     -26.658  -7.603 -15.463  0.00  0.00    -0.624 OA
BRANCH   9  12
HETATM   12  O           1     -24.793  -6.172 -14.535  0.00  0.00    -0.300 OA
HETATM   13  H           1     -25.244  -5.423 -14.187  0.00  0.00     0.223 HD
ENDBRANCH   9  12
ENDBRANCH   8   9
ENDBRANCH   5   8
ENDBRANCH   1   2
BRANCH   1  14
HETATM   14  C           1     -32.674  -4.953 -16.554  0.00  0.00     0.278 C 
BRANCH  14  15
HETATM   15  N           1     -33.873  -5.779 -16.195  0.00  0.00    -0.066 N 
HETATM   16  H           1     -33.761  -6.743 -16.583  0.00  0.00     0.275 HD
HETATM   17  H           1     -34.731  -5.340 -16.599  0.00  0.00     0.275 HD
HETATM   18  H           1     -33.964  -5.830 -15.156  0.00  0.00     0.275 HD
ENDBRANCH  14  15
BRANCH  14  19
HETATM   19  C           1     -33.124  -3.606 -17.062  0.00  0.00     0.249 C 
HETATM   20  O           1     -32.384  -2.939 -17.746  0.00  0.00    -0.271 OA
HETATM   21  N           1     -34.372  -3.139 -16.749  0.00  0.00    -0.349 N 
HETATM   22  H           1     -34.993  -3.696 -16.177  0.00  0.00     0.163 HD
BRANCH  21  23
HETATM   23  C           1     -34.806  -1.844 -17.238  0.00  0.00     0.235 C 
BRANCH  23  24
HETATM   24  C           1     -35.507  -1.096 -16.132  0.00  0.00     0.191 C 
HETATM   25  O           1     -35.332  -1.433 -14.941  0.00  0.00    -0.647 OA
HETATM   26  O           1     -36.264  -0.139 -16.405  0.00  0.00    -0.647 OA
ENDBRANCH  23  24
ENDBRANCH  21  23
ENDBRANCH  14  19
ENDBRANCH   1  14
TORSDOF 9
ENDMDL
MODEL 3
REMARK VINA RESULT:      -7.5      2.275      3.112
REMARK  9 active torsions:
REMARK  status: ('A' for Active; 'I' for Inactive)
REMARK    1  A    between atoms: N_9  and  C_20 
REMARK    2  A    between atoms: O_14  and  P_15 
REMARK    3  A    between atoms: P_15  and  O_16 
REMARK    4  A    between atoms: O_16  and  C_17 
REMARK    5  A    between atoms: C_18  and  C_19 
REMARK    6  A    between atoms: C_19  and  C_20 
REMARK    7  A    between atoms: C_20  and  C_21 
REMARK       I    between atoms: C_21  and  N_22 
REMARK    8  A    between atoms: N_22  and  C_23 
REMARK    9  A    between atoms: C_23  and  C_25 
ROOT
HETATM    1  C           1     -20.501  -5.208  -5.448  0.00  0.00     0.081 C 
ENDROOT
BRANCH   1   2
HETATM    2  C           1     -20.987  -4.809  -6.807  0.00  0.00    -0.056 A 
HETATM    3  C           1     -20.144  -4.928  -7.911  0.00  0.00     0.010 A 
HETATM    4  C           1     -20.598  -4.557  -9.177  0.00  0.00     0.038 A 
HETATM    5  C           1     -21.893  -4.066  -9.338  0.00  0.00     0.081 A 
HETATM    6  C           1     -22.737  -3.948  -8.233  0.00  0.00     0.038 A 
HETATM    7  C           1     -22.283  -4.319  -6.967  0.00  0.00     0.010 A 
BRANCH   5   8
HETATM    8  O           1     -22.333  -3.706 -10.568  0.00  0.00    -0.247 OA
BRANCH   8   9
HETATM    9  P           1     -23.738  -4.316 -11.080  0.00  0.00     0.411 P 
HETATM   10  O           1     -24.057  -5.536 -10.304  0.00  0.00    -0.624 OA
HETATM   11  O           1     -23.633  -4.657 -12.516  0.00  0.00    -0.624 OA
BRANCH   9  12
HETATM   12  O           1     -24.910  -3.225 -10.870  0.00  0.00    -0.300 OA
HETATM   13  H           1     -24.557  -2.603 -10.257  0.00  0.00     0.223 HD
ENDBRANCH   9  12
ENDBRANCH   8   9
ENDBRANCH   5   8
ENDBRANCH   1   2
BRANCH   1  14
HETATM   14  C           1     -21.474  -6.206  -4.834  0.00  0.00     0.278 C 
BRANCH  14  15
HETATM   15  N           1     -21.570  -5.966  -3.356  0.00  0.00    -0.066 N 
HETATM   16  H           1     -21.124  -6.761  -2.845  0.00  0.00     0.275 HD
HETATM   17  H           1     -22.575  -5.894  -3.080  0.00  0.00     0.275 HD
HETATM   18  H           1     -21.077  -5.077  -3.115  0.00  0.00     0.275 HD
ENDBRANCH  14  15
BRANCH  14  19
HETATM   19  C           1     -20.981  -7.610  -5.084  0.00  0.00     0.249 C 
HETATM   20  O           1     -21.344  -8.212  -6.067  0.00  0.00    -0.271 OA
HETATM   21  N           1     -20.121  -8.202  -4.199  0.00  0.00    -0.349 N 
HETATM   22  H           1     -19.815  -7.698  -3.376  0.00  0.00     0.163 HD
BRANCH  21  23
HETATM   23  C           1     -19.646  -9.550  -4.440  0.00  0.00     0.235 C 
BRANCH  23  24
HETATM   24  C           1     -18.269  -9.498  -5.054  0.00  0.00     0.191 C 
HETATM   25  O           1     -17.256  -9.557  -4.323  0.00  0.00    -0.647 OA
HETATM   26  O           1     -18.140  -9.394  -6.293  0.00  0.00    -0.647 OA
ENDBRANCH  23  24
ENDBRANCH  21  23
ENDBRANCH  14  19
ENDBRANCH   1  14
TORSDOF 9
ENDMDL
MODEL 4
REMARK VINA RESULT:      -7.5     12.018     13.502
REMARK  9 active torsions:
REMARK  status: ('A' for Active; 'I' for Inactive)
REMARK    1  A    between atoms: N_9  and  C_20 
REMARK    2  A    between atoms: O_14  and  P_15 
REMARK    3  A    between atoms: P_15  and  O_16 
REMARK    4  A    between atoms: O_16  and  C_17 
REMARK    5  A    between atoms: C_18  and  C_19 
REMARK    6  A    between atoms: C_19  and  C_20 
REMARK    7  A    between atoms: C_20  and  C_21 
REMARK       I    between atoms: C_21  and  N_22 
REMARK    8  A    between atoms: N_22  and  C_23 
REMARK    9  A    between atoms: C_23  and  C_25 
ROOT
HETATM    1  C           1     -31.647  -4.253 -17.278  0.00  0.00     0.081 C 
ENDROOT
BRANCH   1   2
HETATM    2  C           1     -30.240  -4.762 -17.332  0.00  0.00    -0.056 A 
HETATM    3  C           1     -29.205  -4.009 -16.779  0.00  0.00     0.010 A 
HETATM    4  C           1     -27.894  -4.484 -16.829  0.00  0.00     0.038 A 
HETATM    5  C           1     -27.620  -5.712 -17.430  0.00  0.00     0.081 A 
HETATM    6  C           1     -28.656  -6.466 -17.982  0.00  0.00     0.038 A 
HETATM    7  C           1     -29.966  -5.990 -17.933  0.00  0.00     0.010 A 
BRANCH   5   8
HETATM    8  O           1     -26.346  -6.173 -17.478  0.00  0.00    -0.247 OA
BRANCH   8   9
HETATM    9  P           1     -25.731  -6.839 -16.141  0.00  0.00     0.411 P 
HETATM   10  O           1     -26.827  -7.399 -15.319  0.00  0.00    -0.624 OA
HETATM   11  O           1     -25.009  -5.806 -15.365  0.00  0.00    -0.624 OA
BRANCH   9  12
HETATM   12  O           1     -24.707  -8.019 -16.548  0.00  0.00    -0.300 OA
HETATM   13  H           1     -23.959  -7.579 -16.912  0.00  0.00     0.223 HD
ENDBRANCH   9  12
ENDBRANCH   8   9
ENDBRANCH   5   8
ENDBRANCH   1   2
BRANCH   1  14
HETATM   14  C           1     -32.451  -5.083 -16.286  0.00  0.00     0.278 C 
BRANCH  14  15
HETATM   15  N           1     -33.221  -6.137 -17.024  0.00  0.00    -0.066 N 
HETATM   16  H           1     -32.596  -6.951 -17.221  0.00  0.00     0.275 HD
HETATM   17  H           1     -33.574  -5.742 -17.925  0.00  0.00     0.275 HD
HETATM   18  H           1     -34.029  -6.451 -16.441  0.00  0.00     0.275 HD
ENDBRANCH  14  15
BRANCH  14  19
HETATM   19  C           1     -33.410  -4.188 -15.540  0.00  0.00     0.249 C 
HETATM   20  O           1     -34.149  -3.452 -16.151  0.00  0.00    -0.271 OA
HETATM   21  N           1     -33.444  -4.209 -14.172  0.00  0.00    -0.349 N 
HETATM   22  H           1     -32.826  -4.825 -13.660  0.00  0.00     0.163 HD
BRANCH  21  23
HETATM   23  C           1     -34.366  -3.350 -13.456  0.00  0.00     0.235 C 
BRANCH  23  24
HETATM   24  C           1     -33.822  -3.062 -12.079  0.00  0.00     0.191 C 
HETATM   25  O           1     -32.897  -3.763 -11.613  0.00  0.00    -0.647 OA
HETATM   26  O           1     -34.297  -2.124 -11.402  0.00  0.00    -0.647 OA
ENDBRANCH  23  24
ENDBRANCH  21  23
ENDBRANCH  14  19
ENDBRANCH   1  14
TORSDOF 9
ENDMDL
MODEL 5
REMARK VINA RESULT:      -7.4     12.774     13.898
REMARK  9 active torsions:
REMARK  status: ('A' for Active; 'I' for Inactive)
REMARK    1  A    between atoms: N_9  and  C_20 
REMARK    2  A    between atoms: O_14  and  P_15 
REMARK    3  A    between atoms: P_15  and  O_16 
REMARK    4  A    between atoms: O_16  and  C_17 
REMARK    5  A    between atoms: C_18  and  C_19 
REMARK    6  A    between atoms: C_19  and  C_20 
REMARK    7  A    between atoms: C_20  and  C_21 
REMARK       I    between atoms: C_21  and  N_22 
REMARK    8  A    between atoms: N_22  and  C_23 
REMARK    9  A    between atoms: C_23  and  C_25 
ROOT
HETATM    1  C           1     -33.205  -4.060 -16.869  0.00  0.00     0.081 C 
ENDROOT
BRANCH   1   2
HETATM    2  C           1     -31.855  -4.594 -17.234  0.00  0.00    -0.056 A 
HETATM    3  C           1     -31.618  -5.968 -17.206  0.00  0.00     0.010 A 
HETATM    4  C           1     -30.359  -6.464 -17.547  0.00  0.00     0.038 A 
HETATM    5  C           1     -29.339  -5.587 -17.915  0.00  0.00     0.081 A 
HETATM    6  C           1     -29.577  -4.212 -17.944  0.00  0.00     0.038 A 
HETATM    7  C           1     -30.836  -3.716 -17.603  0.00  0.00     0.010 A 
BRANCH   5   8
HETATM    8  O           1     -28.117  -6.070 -18.246  0.00  0.00    -0.247 OA
BRANCH   8   9
HETATM    9  P           1     -26.982  -6.112 -17.097  0.00  0.00     0.411 P 
HETATM   10  O           1     -26.935  -4.806 -16.402  0.00  0.00    -0.624 OA
HETATM   11  O           1     -25.667  -6.392 -17.715  0.00  0.00    -0.624 OA
BRANCH   9  12
HETATM   12  O           1     -27.335  -7.274 -16.033  0.00  0.00    -0.300 OA
HETATM   13  H           1     -28.274  -7.345 -16.052  0.00  0.00     0.223 HD
ENDBRANCH   9  12
ENDBRANCH   8   9
ENDBRANCH   5   8
ENDBRANCH   1   2
BRANCH   1  14
HETATM   14  C           1     -33.676  -4.710 -15.574  0.00  0.00     0.278 C 
BRANCH  14  15
HETATM   15  N           1     -34.778  -5.682 -15.874  0.00  0.00    -0.066 N 
HETATM   16  H           1     -34.464  -6.343 -16.620  0.00  0.00     0.275 HD
HETATM   17  H           1     -35.621  -5.160 -16.203  0.00  0.00     0.275 HD
HETATM   18  H           1     -35.014  -6.219 -15.010  0.00  0.00     0.275 HD
ENDBRANCH  14  15
BRANCH  14  19
HETATM   19  C           1     -34.186  -3.646 -14.633  0.00  0.00     0.249 C 
HETATM   20  O           1     -34.799  -2.699 -15.067  0.00  0.00    -0.271 OA
HETATM   21  N           1     -33.955  -3.753 -13.289  0.00  0.00    -0.349 N 
HETATM   22  H           1     -33.442  -4.547 -12.924  0.00  0.00     0.163 HD
BRANCH  21  23
HETATM   23  C           1     -34.446  -2.732 -12.384  0.00  0.00     0.235 C 
BRANCH  23  24
HETATM   24  C           1     -33.689  -2.806 -11.081  0.00  0.00     0.191 C 
HETATM   25  O           1     -33.302  -1.756 -10.523  0.00  0.00    -0.647 OA
HETATM   26  O           1     -33.446  -3.916 -10.560  0.00  0.00    -0.647 OA
ENDBRANCH  23  24
ENDBRANCH  21  23
ENDBRANCH  14  19
ENDBRANCH   1  14
TORSDOF 9
ENDMDL
MODEL 6
REMARK VINA RESULT:      -7.3      1.842      2.537
REMARK  9 active torsions:
REMARK  status: ('A' for Active; 'I' for Inactive)
REMARK    1  A    between atoms: N_9  and  C_20 
REMARK    2  A    between atoms: O_14  and  P_15 
REMARK    3  A    between atoms: P_15  and  O_16 
REMARK    4  A    between atoms: O_16  and  C_17 
REMARK    5  A    between atoms: C_18  and  C_19 
REMARK    6  A    between atoms: C_19  and  C_20 
REMARK    7  A    between atoms: C_20  and  C_21 
REMARK       I    between atoms: C_21  and  N_22 
REMARK    8  A    between atoms: N_22  and  C_23 
REMARK    9  A    between atoms: C_23  and  C_25 
ROOT
HETATM    1  C           1     -20.458  -5.251  -5.491  0.00  0.00     0.081 C 
ENDROOT
BRANCH   1   2
HETATM    2  C           1     -20.958  -4.831  -6.838  0.00  0.00    -0.056 A 
HETATM    3  C           1     -22.270  -4.381  -6.986  0.00  0.00     0.010 A 
HETATM    4  C           1     -22.734  -3.989  -8.242  0.00  0.00     0.038 A 
HETATM    5  C           1     -21.887  -4.048  -9.349  0.00  0.00     0.081 A 
HETATM    6  C           1     -20.575  -4.497  -9.200  0.00  0.00     0.038 A 
HETATM    7  C           1     -20.111  -4.889  -7.944  0.00  0.00     0.010 A 
BRANCH   5   8
HETATM    8  O           1     -22.340  -3.667 -10.568  0.00  0.00    -0.247 OA
BRANCH   8   9
HETATM    9  P           1     -23.711  -4.327 -11.108  0.00  0.00     0.411 P 
HETATM   10  O           1     -24.820  -3.358 -10.953  0.00  0.00    -0.624 OA
HETATM   11  O           1     -24.009  -5.548 -10.328  0.00  0.00    -0.624 OA
BRANCH   9  12
HETATM   12  O           1     -23.548  -4.711 -12.668  0.00  0.00    -0.300 OA
HETATM   13  H           1     -22.690  -5.094 -12.737  0.00  0.00     0.223 HD
ENDBRANCH   9  12
ENDBRANCH   8   9
ENDBRANCH   5   8
ENDBRANCH   1   2
BRANCH   1  14
HETATM   14  C           1     -21.449  -6.222  -4.861  0.00  0.00     0.278 C 
BRANCH  14  15
HETATM   15  N           1     -21.612  -5.896  -3.407  0.00  0.00    -0.066 N 
HETATM   16  H           1     -21.942  -4.909  -3.307  0.00  0.00     0.275 HD
HETATM   17  H           1     -20.694  -6.007  -2.920  0.00  0.00     0.275 HD
HETATM   18  H           1     -22.314  -6.542  -2.981  0.00  0.00     0.275 HD
ENDBRANCH  14  15
BRANCH  14  19
HETATM   19  C           1     -20.932  -7.633  -5.005  0.00  0.00     0.249 C 
HETATM   20  O           1     -21.183  -8.270  -6.001  0.00  0.00    -0.271 OA
HETATM   21  N           1     -20.179  -8.191  -4.008  0.00  0.00    -0.349 N 
HETATM   22  H           1     -19.968  -7.658  -3.174  0.00  0.00     0.163 HD
BRANCH  21  23
HETATM   23  C           1     -19.682  -9.546  -4.146  0.00  0.00     0.235 C 
BRANCH  23  24
HETATM   24  C           1     -19.737 -10.242  -2.809  0.00  0.00     0.191 C 
HETATM   25  O           1     -18.684 -10.655  -2.276  0.00  0.00    -0.647 OA
HETATM   26  O           1     -20.835 -10.409  -2.235  0.00  0.00    -0.647 OA
ENDBRANCH  23  24
ENDBRANCH  21  23
ENDBRANCH  14  19
ENDBRANCH   1  14
TORSDOF 9
ENDMDL
MODEL 7
REMARK VINA RESULT:      -7.2      3.261      8.185
REMARK  9 active torsions:
REMARK  status: ('A' for Active; 'I' for Inactive)
REMARK    1  A    between atoms: N_9  and  C_20 
REMARK    2  A    between atoms: O_14  and  P_15 
REMARK    3  A    between atoms: P_15  and  O_16 
REMARK    4  A    between atoms: O_16  and  C_17 
REMARK    5  A    between atoms: C_18  and  C_19 
REMARK    6  A    between atoms: C_19  and  C_20 
REMARK    7  A    between atoms: C_20  and  C_21 
REMARK       I    between atoms: C_21  and  N_22 
REMARK    8  A    between atoms: N_22  and  C_23 
REMARK    9  A    between atoms: C_23  and  C_25 
ROOT
HETATM    1  C           1     -20.548  -5.096  -5.804  0.00  0.00     0.081 C 
ENDROOT
BRANCH   1   2
HETATM    2  C           1     -20.882  -6.271  -4.939  0.00  0.00    -0.056 A 
HETATM    3  C           1     -20.846  -7.560  -5.470  0.00  0.00     0.010 A 
HETATM    4  C           1     -21.157  -8.654  -4.662  0.00  0.00     0.038 A 
HETATM    5  C           1     -21.504  -8.460  -3.326  0.00  0.00     0.081 A 
HETATM    6  C           1     -21.539  -7.170  -2.795  0.00  0.00     0.038 A 
HETATM    7  C           1     -21.228  -6.075  -3.602  0.00  0.00     0.010 A 
BRANCH   5   8
HETATM    8  O           1     -21.805  -9.524  -2.542  0.00  0.00    -0.247 OA
BRANCH   8   9
HETATM    9  P           1     -20.696 -10.019  -1.477  0.00  0.00     0.411 P 
HETATM   10  O           1     -19.343  -9.728  -2.002  0.00  0.00    -0.624 OA
HETATM   11  O           1     -20.839 -11.476  -1.260  0.00  0.00    -0.624 OA
BRANCH   9  12
HETATM   12  O           1     -20.907  -9.243  -0.077  0.00  0.00    -0.300 OA
HETATM   13  H           1     -20.707  -8.342  -0.265  0.00  0.00     0.223 HD
ENDBRANCH   9  12
ENDBRANCH   8   9
ENDBRANCH   5   8
ENDBRANCH   1   2
BRANCH   1  14
HETATM   14  C           1     -20.971  -5.384  -7.239  0.00  0.00     0.278 C 
BRANCH  14  15
HETATM   15  N           1     -19.931  -4.857  -8.182  0.00  0.00    -0.066 N 
HETATM   16  H           1     -18.988  -4.933  -7.737  0.00  0.00     0.275 HD
HETATM   17  H           1     -20.134  -3.856  -8.400  0.00  0.00     0.275 HD
HETATM   18  H           1     -19.945  -5.416  -9.065  0.00  0.00     0.275 HD
ENDBRANCH  14  15
BRANCH  14  19
HETATM   19  C           1     -22.292  -4.711  -7.520  0.00  0.00     0.249 C 
HETATM   20  O           1     -23.124  -4.623  -6.648  0.00  0.00    -0.271 OA
HETATM   21  N           1     -22.548  -4.198  -8.763  0.00  0.00    -0.349 N 
HETATM   22  H           1     -21.852  -4.271  -9.494  0.00  0.00     0.163 HD
BRANCH  21  23
HETATM   23  C           1     -23.817  -3.550  -9.033  0.00  0.00     0.235 C 
BRANCH  23  24
HETATM   24  C           1     -24.122  -3.635 -10.508  0.00  0.00     0.191 C 
HETATM   25  O           1     -23.282  -4.124 -11.293  0.00  0.00    -0.647 OA
HETATM   26  O           1     -25.215  -3.214 -10.946  0.00  0.00    -0.647 OA
ENDBRANCH  23  24
ENDBRANCH  21  23
ENDBRANCH  14  19
ENDBRANCH   1  14
TORSDOF 9
ENDMDL
MODEL 8
REMARK VINA RESULT:      -7.0      3.328      8.470
REMARK  9 active torsions:
REMARK  status: ('A' for Active; 'I' for Inactive)
REMARK    1  A    between atoms: N_9  and  C_20 
REMARK    2  A    between atoms: O_14  and  P_15 
REMARK    3  A    between atoms: P_15  and  O_16 
REMARK    4  A    between atoms: O_16  and  C_17 
REMARK    5  A    between atoms: C_18  and  C_19 
REMARK    6  A    between atoms: C_19  and  C_20 
REMARK    7  A    between atoms: C_20  and  C_21 
REMARK       I    between atoms: C_21  and  N_22 
REMARK    8  A    between atoms: N_22  and  C_23 
REMARK    9  A    between atoms: C_23  and  C_25 
ROOT
HETATM    1  C           1     -22.403  -5.929  -5.685  0.00  0.00     0.081 C 
ENDROOT
BRANCH   1   2
HETATM    2  C           1     -21.893  -6.782  -4.566  0.00  0.00    -0.056 A 
HETATM    3  C           1     -21.719  -6.235  -3.295  0.00  0.00     0.010 A 
HETATM    4  C           1     -21.244  -7.031  -2.253  0.00  0.00     0.038 A 
HETATM    5  C           1     -20.944  -8.374  -2.481  0.00  0.00     0.081 A 
HETATM    6  C           1     -21.119  -8.922  -3.752  0.00  0.00     0.038 A 
HETATM    7  C           1     -21.594  -8.126  -4.794  0.00  0.00     0.010 A 
BRANCH   5   8
HETATM    8  O           1     -20.483  -9.147  -1.467  0.00  0.00    -0.247 OA
BRANCH   8   9
HETATM    9  P           1     -21.491  -9.482  -0.251  0.00  0.00     0.411 P 
HETATM   10  O           1     -21.068 -10.739   0.408  0.00  0.00    -0.624 OA
HETATM   11  O           1     -22.864  -9.640  -0.780  0.00  0.00    -0.624 OA
BRANCH   9  12
HETATM   12  O           1     -21.462  -8.277   0.822  0.00  0.00    -0.300 OA
HETATM   13  H           1     -21.091  -8.653   1.602  0.00  0.00     0.223 HD
ENDBRANCH   9  12
ENDBRANCH   8   9
ENDBRANCH   5   8
ENDBRANCH   1   2
BRANCH   1  14
HETATM   14  C           1     -21.271  -5.644  -6.663  0.00  0.00     0.278 C 
BRANCH  14  15
HETATM   15  N           1     -20.043  -5.242  -5.901  0.00  0.00    -0.066 N 
HETATM   16  H           1     -19.432  -6.079  -5.762  0.00  0.00     0.275 HD
HETATM   17  H           1     -20.321  -4.855  -4.972  0.00  0.00     0.275 HD
HETATM   18  H           1     -19.520  -4.515  -6.440  0.00  0.00     0.275 HD
ENDBRANCH  14  15
BRANCH  14  19
HETATM   19  C           1     -21.676  -4.524  -7.590  0.00  0.00     0.249 C 
HETATM   20  O           1     -21.511  -3.374  -7.257  0.00  0.00    -0.271 OA
HETATM   21  N           1     -22.230  -4.810  -8.808  0.00  0.00    -0.349 N 
HETATM   22  H           1     -22.368  -5.773  -9.088  0.00  0.00     0.163 HD
BRANCH  21  23
HETATM   23  C           1     -22.619  -3.735  -9.700  0.00  0.00     0.235 C 
BRANCH  23  24
HETATM   24  C           1     -24.069  -3.895 -10.081  0.00  0.00     0.191 C 
HETATM   25  O           1     -24.687  -2.942 -10.602  0.00  0.00    -0.647 OA
HETATM   26  O           1     -24.655  -4.981  -9.875  0.00  0.00    -0.647 OA
ENDBRANCH  23  24
ENDBRANCH  21  23
ENDBRANCH  14  19
ENDBRANCH   1  14
TORSDOF 9
ENDMDL
MODEL 9
REMARK VINA RESULT:      -6.9      3.308      7.899
REMARK  9 active torsions:
REMARK  status: ('A' for Active; 'I' for Inactive)
REMARK    1  A    between atoms: N_9  and  C_20 
REMARK    2  A    between atoms: O_14  and  P_15 
REMARK    3  A    between atoms: P_15  and  O_16 
REMARK    4  A    between atoms: O_16  and  C_17 
REMARK    5  A    between atoms: C_18  and  C_19 
REMARK    6  A    between atoms: C_19  and  C_20 
REMARK    7  A    between atoms: C_20  and  C_21 
REMARK       I    between atoms: C_21  and  N_22 
REMARK    8  A    between atoms: N_22  and  C_23 
REMARK    9  A    between atoms: C_23  and  C_25 
ROOT
HETATM    1  C           1     -21.237  -4.660  -6.818  0.00  0.00     0.081 C 
ENDROOT
BRANCH   1   2
HETATM    2  C           1     -21.203  -5.896  -5.974  0.00  0.00    -0.056 A 
HETATM    3  C           1     -22.306  -6.236  -5.191  0.00  0.00     0.010 A 
HETATM    4  C           1     -22.275  -7.388  -4.405  0.00  0.00     0.038 A 
HETATM    5  C           1     -21.141  -8.200  -4.402  0.00  0.00     0.081 A 
HETATM    6  C           1     -20.038  -7.860  -5.186  0.00  0.00     0.038 A 
HETATM    7  C           1     -20.069  -6.708  -5.972  0.00  0.00     0.010 A 
BRANCH   5   8
HETATM    8  O           1     -21.111  -9.319  -3.638  0.00  0.00    -0.247 OA
BRANCH   8   9
HETATM    9  P           1     -20.915  -9.144  -2.045  0.00  0.00     0.411 P 
HETATM   10  O           1     -20.032 -10.217  -1.535  0.00  0.00    -0.624 OA
HETATM   11  O           1     -22.231  -9.226  -1.375  0.00  0.00    -0.624 OA
BRANCH   9  12
HETATM   12  O           1     -20.244  -7.707  -1.738  0.00  0.00    -0.300 OA
HETATM   13  H           1     -20.427  -7.542  -0.829  0.00  0.00     0.223 HD
ENDBRANCH   9  12
ENDBRANCH   8   9
ENDBRANCH   5   8
ENDBRANCH   1   2
BRANCH   1  14
HETATM   14  C           1     -20.364  -4.863  -8.050  0.00  0.00     0.278 C 
BRANCH  14  15
HETATM   15  N           1     -19.126  -4.026  -7.929  0.00  0.00    -0.066 N 
HETATM   16  H           1     -19.209  -3.402  -7.095  0.00  0.00     0.275 HD
HETATM   17  H           1     -19.014  -3.444  -8.789  0.00  0.00     0.275 HD
HETATM   18  H           1     -18.294  -4.647  -7.818  0.00  0.00     0.275 HD
ENDBRANCH  14  15
BRANCH  14  19
HETATM   19  C           1     -21.131  -4.452  -9.283  0.00  0.00     0.249 C 
HETATM   20  O           1     -20.586  -3.804 -10.146  0.00  0.00    -0.271 OA
HETATM   21  N           1     -22.443  -4.813  -9.426  0.00  0.00    -0.349 N 
HETATM   22  H           1     -22.900  -5.357  -8.705  0.00  0.00     0.163 HD
BRANCH  21  23
HETATM   23  C           1     -23.180  -4.419 -10.611  0.00  0.00     0.235 C 
BRANCH  23  24
HETATM   24  C           1     -24.355  -3.561 -10.213  0.00  0.00     0.191 C 
HETATM   25  O           1     -24.483  -3.189  -9.027  0.00  0.00    -0.647 OA
HETATM   26  O           1     -25.201  -3.223 -11.069  0.00  0.00    -0.647 OA
ENDBRANCH  23  24
ENDBRANCH  21  23
ENDBRANCH  14  19
ENDBRANCH   1  14
TORSDOF 9
ENDMDL
