MODEL 1
REMARK VINA RESULT:     -10.1      0.000      0.000
REMARK  4 active torsions:
REMARK  status: ('A' for Active; 'I' for Inactive)
REMARK       I    between atoms: C_2  and  N_3 
REMARK       I    between atoms: C_2  and  N_11 
REMARK    1  A    between atoms: N_3  and  C_4 
REMARK    2  A    between atoms: N_11  and  C_12 
REMARK    3  A    between atoms: N_15  and  C_16 
REMARK    4  A    between atoms: C_19  and  C_20 
ROOT
HETATM    1  C   UNL     1     -20.936  -6.134  -5.402  1.00  0.00     0.105 C 
HETATM    2  C   UNL     1     -19.946  -5.008  -5.684  1.00  0.00     0.046 C 
HETATM    3  C   UNL     1     -20.789  -3.947  -6.401  1.00  0.00     0.126 C 
HETATM    4  N   UNL     1     -21.846  -4.705  -7.062  1.00  0.00    -0.365 N 
HETATM    5  C   UNL     1     -21.792  -6.123  -6.686  1.00  0.00     0.149 C 
ENDROOT
BRANCH   1   6
HETATM    6  N   UNL     1     -21.745  -5.850  -4.222  1.00  0.00    -0.337 N 
HETATM    7  C   UNL     1     -21.930  -6.519  -3.059  1.00  0.00     0.321 C 
HETATM    8  O   UNL     1     -22.605  -5.948  -2.203  1.00  0.00    -0.247 OA
HETATM    9  N   UNL     1     -21.359  -7.756  -2.946  1.00  0.00    -0.308 N 
HETATM   10  H   UNL     1     -21.023  -8.191  -3.791  1.00  0.00     0.170 HD
HETATM   11  H   UNL     1     -22.157  -4.923  -4.178  1.00  0.00     0.164 HD
BRANCH   9  12
HETATM   12  C   UNL     1     -21.417  -8.604  -1.803  1.00  0.00     0.053 A 
HETATM   13  C   UNL     1     -21.091  -8.150  -0.519  1.00  0.00     0.031 A 
HETATM   14  C   UNL     1     -21.195  -8.985   0.596  1.00  0.00     0.002 A 
HETATM   15  C   UNL     1     -21.623 -10.300   0.448  1.00  0.00     0.002 A 
HETATM   16  C   UNL     1     -21.925 -10.786  -0.823  1.00  0.00     0.021 A 
HETATM   17  C   UNL     1     -21.813  -9.947  -1.942  1.00  0.00     0.037 A 
HETATM   18 BR   UNL     1     -22.236 -10.689  -3.642  1.00  0.00    -0.049 Br
ENDBRANCH   9  12
ENDBRANCH   1   6
BRANCH   4  19
HETATM   19  C   UNL     1     -22.334  -4.391  -8.313  1.00  0.00     0.102 A 
HETATM   20  C   UNL     1     -21.530  -4.412  -9.451  1.00  0.00     0.049 A 
HETATM   21  C   UNL     1     -22.066  -4.077 -10.700  1.00  0.00     0.021 A 
HETATM   22  C   UNL     1     -23.402  -3.700 -10.798  1.00  0.00     0.063 A 
HETATM   23  C   UNL     1     -24.134  -3.689  -9.626  1.00  0.00     0.106 A 
HETATM   24  N   UNL     1     -23.631  -4.022  -8.413  1.00  0.00    -0.352 N 
ATOM     25  HN  UNL     1     -24.225  -3.995  -7.584  1.00  0.00     0.166 HD
BRANCH  22  26
HETATM   26  C   UNL     1     -24.052  -3.305 -12.086  1.00  0.00     0.418 C 
HETATM   27  F   UNL     1     -25.365  -2.964 -11.951  1.00  0.00    -0.166 F 
HETATM   28  F   UNL     1     -23.449  -2.233 -12.669  1.00  0.00    -0.166 F 
HETATM   29  F   UNL     1     -24.022  -4.300 -13.014  1.00  0.00    -0.166 F 
ENDBRANCH  22  26
ENDBRANCH   4  19
TORSDOF 4
ENDMDL
MODEL 2
REMARK VINA RESULT:     -10.1      1.844      2.362
REMARK  4 active torsions:
REMARK  status: ('A' for Active; 'I' for Inactive)
REMARK       I    between atoms: C_2  and  N_3 
REMARK       I    between atoms: C_2  and  N_11 
REMARK    1  A    between atoms: N_3  and  C_4 
REMARK    2  A    between atoms: N_11  and  C_12 
REMARK    3  A    between atoms: N_15  and  C_16 
REMARK    4  A    between atoms: C_19  and  C_20 
ROOT
HETATM    1  C   UNL     1     -20.143  -5.765  -6.770  1.00  0.00     0.105 C 
HETATM    2  C   UNL     1     -21.008  -4.621  -6.252  1.00  0.00     0.046 C 
HETATM    3  C   UNL     1     -22.170  -4.554  -7.249  1.00  0.00     0.126 C 
HETATM    4  N   UNL     1     -21.609  -5.061  -8.498  1.00  0.00    -0.365 N 
HETATM    5  C   UNL     1     -20.243  -5.562  -8.297  1.00  0.00     0.149 C 
ENDROOT
BRANCH   1   6
HETATM    6  N   UNL     1     -20.678  -7.062  -6.372  1.00  0.00    -0.337 N 
HETATM    7  C   UNL     1     -21.045  -7.568  -5.171  1.00  0.00     0.321 C 
HETATM    8  O   UNL     1     -21.572  -8.680  -5.186  1.00  0.00    -0.247 OA
HETATM    9  N   UNL     1     -20.795  -6.807  -4.063  1.00  0.00    -0.308 N 
HETATM   10  H   UNL     1     -20.169  -6.024  -4.170  1.00  0.00     0.170 HD
HETATM   11  H   UNL     1     -20.962  -7.678  -7.128  1.00  0.00     0.164 HD
BRANCH   9  12
HETATM   12  C   UNL     1     -21.125  -7.148  -2.720  1.00  0.00     0.053 A 
HETATM   13  C   UNL     1     -22.149  -6.503  -2.015  1.00  0.00     0.031 A 
HETATM   14  C   UNL     1     -22.486  -6.882  -0.713  1.00  0.00     0.002 A 
HETATM   15  C   UNL     1     -21.797  -7.912  -0.084  1.00  0.00     0.002 A 
HETATM   16  C   UNL     1     -20.753  -8.551  -0.753  1.00  0.00     0.021 A 
HETATM   17  C   UNL     1     -20.413  -8.164  -2.057  1.00  0.00     0.037 A 
HETATM   18 BR   UNL     1     -18.972  -9.080  -2.897  1.00  0.00    -0.049 Br
ENDBRANCH   9  12
ENDBRANCH   1   6
BRANCH   4  19
HETATM   19  C   UNL     1     -21.928  -4.545  -9.736  1.00  0.00     0.102 A 
HETATM   20  C   UNL     1     -21.074  -3.687 -10.426  1.00  0.00     0.049 A 
HETATM   21  C   UNL     1     -21.444  -3.179 -11.677  1.00  0.00     0.021 A 
HETATM   22  C   UNL     1     -22.680  -3.518 -12.221  1.00  0.00     0.063 A 
HETATM   23  C   UNL     1     -23.479  -4.361 -11.473  1.00  0.00     0.106 A 
HETATM   24  N   UNL     1     -23.129  -4.869 -10.266  1.00  0.00    -0.352 N 
ATOM     25  HN  UNL     1     -23.765  -5.489  -9.764  1.00  0.00     0.166 HD
BRANCH  22  26
HETATM   26  C   UNL     1     -23.166  -3.006 -13.539  1.00  0.00     0.418 C 
HETATM   27  F   UNL     1     -22.208  -3.000 -14.507  1.00  0.00    -0.166 F 
HETATM   28  F   UNL     1     -24.195  -3.744 -14.040  1.00  0.00    -0.166 F 
HETATM   29  F   UNL     1     -23.627  -1.727 -13.465  1.00  0.00    -0.166 F 
ENDBRANCH  22  26
ENDBRANCH   4  19
TORSDOF 4
ENDMDL
MODEL 3
REMARK VINA RESULT:      -9.4      1.864      2.226
REMARK  4 active torsions:
REMARK  status: ('A' for Active; 'I' for Inactive)
REMARK       I    between atoms: C_2  and  N_3 
REMARK       I    between atoms: C_2  and  N_11 
REMARK    1  A    between atoms: N_3  and  C_4 
REMARK    2  A    between atoms: N_11  and  C_12 
REMARK    3  A    between atoms: N_15  and  C_16 
REMARK    4  A    between atoms: C_19  and  C_20 
ROOT
HETATM    1  C   UNL     1     -19.990  -6.463  -5.958  1.00  0.00     0.105 C 
HETATM    2  C   UNL     1     -20.948  -5.468  -5.310  1.00  0.00     0.046 C 
HETATM    3  C   UNL     1     -22.063  -5.299  -6.348  1.00  0.00     0.126 C 
HETATM    4  N   UNL     1     -21.413  -5.561  -7.628  1.00  0.00    -0.365 N 
HETATM    5  C   UNL     1     -20.030  -6.015  -7.435  1.00  0.00     0.149 C 
ENDROOT
BRANCH   1   6
HETATM    6  N   UNL     1     -20.462  -7.835  -5.807  1.00  0.00    -0.337 N 
HETATM    7  C   UNL     1     -20.720  -8.597  -4.718  1.00  0.00     0.321 C 
HETATM    8  O   UNL     1     -21.221  -9.700  -4.931  1.00  0.00    -0.247 OA
HETATM    9  N   UNL     1     -20.400  -8.076  -3.495  1.00  0.00    -0.308 N 
HETATM   10  H   UNL     1     -19.802  -7.265  -3.478  1.00  0.00     0.170 HD
HETATM   11  H   UNL     1     -20.791  -8.287  -6.655  1.00  0.00     0.164 HD
BRANCH   9  12
HETATM   12  C   UNL     1     -20.613  -8.706  -2.235  1.00  0.00     0.053 A 
HETATM   13  C   UNL     1     -20.067  -9.957  -1.924  1.00  0.00     0.031 A 
HETATM   14  C   UNL     1     -20.252 -10.539  -0.667  1.00  0.00     0.002 A 
HETATM   15  C   UNL     1     -20.997  -9.882   0.305  1.00  0.00     0.002 A 
HETATM   16  C   UNL     1     -21.577  -8.649   0.011  1.00  0.00     0.021 A 
HETATM   17  C   UNL     1     -21.395  -8.070  -1.254  1.00  0.00     0.037 A 
HETATM   18 BR   UNL     1     -22.226  -6.390  -1.578  1.00  0.00    -0.049 Br
ENDBRANCH   9  12
ENDBRANCH   1   6
BRANCH   4  19
HETATM   19  C   UNL     1     -21.705  -4.865  -8.782  1.00  0.00     0.102 A 
HETATM   20  C   UNL     1     -20.711  -4.400  -9.641  1.00  0.00     0.049 A 
HETATM   21  C   UNL     1     -21.054  -3.689 -10.797  1.00  0.00     0.021 A 
HETATM   22  C   UNL     1     -22.393  -3.427 -11.075  1.00  0.00     0.063 A 
HETATM   23  C   UNL     1     -23.321  -3.907 -10.170  1.00  0.00     0.106 A 
HETATM   24  N   UNL     1     -23.005  -4.606  -9.054  1.00  0.00    -0.352 N 
ATOM     25  HN  UNL     1     -23.738  -4.934  -8.426  1.00  0.00     0.166 HD
BRANCH  22  26
HETATM   26  C   UNL     1     -22.848  -2.658 -12.273  1.00  0.00     0.418 C 
HETATM   27  F   UNL     1     -22.420  -3.185 -13.454  1.00  0.00    -0.166 F 
HETATM   28  F   UNL     1     -24.205  -2.592 -12.367  1.00  0.00    -0.166 F 
HETATM   29  F   UNL     1     -22.413  -1.369 -12.263  1.00  0.00    -0.166 F 
ENDBRANCH  22  26
ENDBRANCH   4  19
TORSDOF 4
ENDMDL
MODEL 4
REMARK VINA RESULT:      -9.3      5.839      9.886
REMARK  4 active torsions:
REMARK  status: ('A' for Active; 'I' for Inactive)
REMARK       I    between atoms: C_2  and  N_3 
REMARK       I    between atoms: C_2  and  N_11 
REMARK    1  A    between atoms: N_3  and  C_4 
REMARK    2  A    between atoms: N_11  and  C_12 
REMARK    3  A    between atoms: N_15  and  C_16 
REMARK    4  A    between atoms: C_19  and  C_20 
ROOT
HETATM    1  C   UNL     1     -20.431  -6.176  -6.240  1.00  0.00     0.105 C 
HETATM    2  C   UNL     1     -21.751  -6.921  -6.412  1.00  0.00     0.046 C 
HETATM    3  C   UNL     1     -22.486  -6.683  -5.089  1.00  0.00     0.126 C 
HETATM    4  N   UNL     1     -21.421  -6.497  -4.108  1.00  0.00    -0.365 N 
HETATM    5  C   UNL     1     -20.105  -6.462  -4.759  1.00  0.00     0.149 C 
ENDROOT
BRANCH   1   6
HETATM    6  N   UNL     1     -20.590  -4.746  -6.481  1.00  0.00    -0.337 N 
HETATM    7  C   UNL     1     -21.280  -4.049  -7.415  1.00  0.00     0.321 C 
HETATM    8  O   UNL     1     -21.299  -2.826  -7.277  1.00  0.00    -0.247 OA
HETATM    9  N   UNL     1     -21.881  -4.760  -8.415  1.00  0.00    -0.308 N 
HETATM   10  H   UNL     1     -21.606  -5.723  -8.530  1.00  0.00     0.170 HD
HETATM   11  H   UNL     1     -20.235  -4.131  -5.755  1.00  0.00     0.164 HD
BRANCH   9  12
HETATM   12  C   UNL     1     -22.668  -4.218  -9.472  1.00  0.00     0.053 A 
HETATM   13  C   UNL     1     -24.043  -3.989  -9.338  1.00  0.00     0.031 A 
HETATM   14  C   UNL     1     -24.789  -3.416 -10.371  1.00  0.00     0.002 A 
HETATM   15  C   UNL     1     -24.174  -3.067 -11.568  1.00  0.00     0.002 A 
HETATM   16  C   UNL     1     -22.812  -3.312 -11.738  1.00  0.00     0.021 A 
HETATM   17  C   UNL     1     -22.066  -3.893 -10.702  1.00  0.00     0.037 A 
HETATM   18 BR   UNL     1     -20.216  -4.201 -11.017  1.00  0.00    -0.049 Br
ENDBRANCH   9  12
ENDBRANCH   1   6
BRANCH   4  19
HETATM   19  C   UNL     1     -21.487  -6.981  -2.818  1.00  0.00     0.102 A 
HETATM   20  C   UNL     1     -22.308  -6.407  -1.850  1.00  0.00     0.049 A 
HETATM   21  C   UNL     1     -22.336  -6.925  -0.551  1.00  0.00     0.021 A 
HETATM   22  C   UNL     1     -21.521  -8.006  -0.221  1.00  0.00     0.063 A 
HETATM   23  C   UNL     1     -20.724  -8.514  -1.229  1.00  0.00     0.106 A 
HETATM   24  N   UNL     1     -20.696  -8.029  -2.494  1.00  0.00    -0.352 N 
ATOM     25  HN  UNL     1     -20.084  -8.450  -3.194  1.00  0.00     0.166 HD
BRANCH  22  26
HETATM   26  C   UNL     1     -21.470  -8.610   1.145  1.00  0.00     0.418 C 
HETATM   27  F   UNL     1     -20.392  -8.211   1.876  1.00  0.00    -0.166 F 
HETATM   28  F   UNL     1     -22.562  -8.298   1.896  1.00  0.00    -0.166 F 
HETATM   29  F   UNL     1     -21.415  -9.969   1.115  1.00  0.00    -0.166 F 
ENDBRANCH  22  26
ENDBRANCH   4  19
TORSDOF 4
ENDMDL
MODEL 5
REMARK VINA RESULT:      -8.5      2.206      2.216
REMARK  4 active torsions:
REMARK  status: ('A' for Active; 'I' for Inactive)
REMARK       I    between atoms: C_2  and  N_3 
REMARK       I    between atoms: C_2  and  N_11 
REMARK    1  A    between atoms: N_3  and  C_4 
REMARK    2  A    between atoms: N_11  and  C_12 
REMARK    3  A    between atoms: N_15  and  C_16 
REMARK    4  A    between atoms: C_19  and  C_20 
ROOT
HETATM    1  C   UNL     1     -20.049  -5.923  -6.510  1.00  0.00     0.105 C 
HETATM    2  C   UNL     1     -19.848  -4.423  -6.314  1.00  0.00     0.046 C 
HETATM    3  C   UNL     1     -21.124  -3.800  -6.889  1.00  0.00     0.126 C 
HETATM    4  N   UNL     1     -21.569  -4.750  -7.904  1.00  0.00    -0.365 N 
HETATM    5  C   UNL     1     -20.743  -5.964  -7.888  1.00  0.00     0.149 C 
ENDROOT
BRANCH   1   6
HETATM    6  N   UNL     1     -20.902  -6.488  -5.469  1.00  0.00    -0.337 N 
HETATM    7  C   UNL     1     -20.750  -7.547  -4.640  1.00  0.00     0.321 C 
HETATM    8  O   UNL     1     -21.621  -7.697  -3.783  1.00  0.00    -0.247 OA
HETATM    9  N   UNL     1     -19.658  -8.345  -4.831  1.00  0.00    -0.308 N 
HETATM   10  H   UNL     1     -19.150  -8.238  -5.695  1.00  0.00     0.170 HD
HETATM   11  H   UNL     1     -21.708  -5.930  -5.204  1.00  0.00     0.164 HD
BRANCH   9  12
HETATM   12  C   UNL     1     -19.308  -9.487  -4.054  1.00  0.00     0.053 A 
HETATM   13  C   UNL     1     -18.419  -9.412  -2.975  1.00  0.00     0.031 A 
HETATM   14  C   UNL     1     -18.122 -10.535  -2.198  1.00  0.00     0.002 A 
HETATM   15  C   UNL     1     -18.705 -11.762  -2.491  1.00  0.00     0.002 A 
HETATM   16  C   UNL     1     -19.571 -11.871  -3.579  1.00  0.00     0.021 A 
HETATM   17  C   UNL     1     -19.862 -10.743  -4.361  1.00  0.00     0.037 A 
HETATM   18 BR   UNL     1     -21.046 -10.977  -5.831  1.00  0.00    -0.049 Br
ENDBRANCH   9  12
ENDBRANCH   1   6
BRANCH   4  19
HETATM   19  C   UNL     1     -22.125  -4.368  -9.107  1.00  0.00     0.102 A 
HETATM   20  C   UNL     1     -21.355  -4.155 -10.248  1.00  0.00     0.049 A 
HETATM   21  C   UNL     1     -21.961  -3.759 -11.445  1.00  0.00     0.021 A 
HETATM   22  C   UNL     1     -23.338  -3.556 -11.487  1.00  0.00     0.063 A 
HETATM   23  C   UNL     1     -24.035  -3.774 -10.313  1.00  0.00     0.106 A 
HETATM   24  N   UNL     1     -23.462  -4.168  -9.151  1.00  0.00    -0.352 N 
ATOM     25  HN  UNL     1     -24.033  -4.313  -8.318  1.00  0.00     0.166 HD
BRANCH  22  26
HETATM   26  C   UNL     1     -24.067  -3.112 -12.715  1.00  0.00     0.418 C 
HETATM   27  F   UNL     1     -25.381  -2.828 -12.495  1.00  0.00    -0.166 F 
HETATM   28  F   UNL     1     -23.531  -1.987 -13.263  1.00  0.00    -0.166 F 
HETATM   29  F   UNL     1     -24.051  -4.050 -13.700  1.00  0.00    -0.166 F 
ENDBRANCH  22  26
ENDBRANCH   4  19
TORSDOF 4
ENDMDL
MODEL 6
REMARK VINA RESULT:      -8.3      2.257      3.002
REMARK  4 active torsions:
REMARK  status: ('A' for Active; 'I' for Inactive)
REMARK       I    between atoms: C_2  and  N_3 
REMARK       I    between atoms: C_2  and  N_11 
REMARK    1  A    between atoms: N_3  and  C_4 
REMARK    2  A    between atoms: N_11  and  C_12 
REMARK    3  A    between atoms: N_15  and  C_16 
REMARK    4  A    between atoms: C_19  and  C_20 
ROOT
HETATM    1  C   UNL     1     -20.612  -6.559  -4.162  1.00  0.00     0.105 C 
HETATM    2  C   UNL     1     -22.121  -6.330  -4.150  1.00  0.00     0.046 C 
HETATM    3  C   UNL     1     -22.526  -6.456  -5.622  1.00  0.00     0.126 C 
HETATM    4  N   UNL     1     -21.336  -6.054  -6.365  1.00  0.00    -0.365 N 
HETATM    5  C   UNL     1     -20.200  -5.833  -5.461  1.00  0.00     0.149 C 
ENDROOT
BRANCH   1   6
HETATM    6  N   UNL     1     -20.288  -7.980  -4.223  1.00  0.00    -0.337 N 
HETATM    7  C   UNL     1     -20.815  -9.064  -3.605  1.00  0.00     0.321 C 
HETATM    8  O   UNL     1     -20.381 -10.159  -3.962  1.00  0.00    -0.247 OA
HETATM    9  N   UNL     1     -21.767  -8.843  -2.650  1.00  0.00    -0.308 N 
HETATM   10  H   UNL     1     -21.870  -7.901  -2.306  1.00  0.00     0.170 HD
HETATM   11  H   UNL     1     -19.638  -8.257  -4.953  1.00  0.00     0.164 HD
BRANCH   9  12
HETATM   12  C   UNL     1     -22.456  -9.844  -1.907  1.00  0.00     0.053 A 
HETATM   13  C   UNL     1     -22.809 -11.079  -2.467  1.00  0.00     0.031 A 
HETATM   14  C   UNL     1     -23.446 -12.066  -1.709  1.00  0.00     0.002 A 
HETATM   15  C   UNL     1     -23.751 -11.833  -0.373  1.00  0.00     0.002 A 
HETATM   16  C   UNL     1     -23.437 -10.601   0.200  1.00  0.00     0.021 A 
HETATM   17  C   UNL     1     -22.804  -9.610  -0.564  1.00  0.00     0.037 A 
HETATM   18 BR   UNL     1     -22.417  -7.955   0.290  1.00  0.00    -0.049 Br
ENDBRANCH   9  12
ENDBRANCH   1   6
BRANCH   4  19
HETATM   19  C   UNL     1     -21.383  -5.317  -7.529  1.00  0.00     0.102 A 
HETATM   20  C   UNL     1     -22.451  -4.475  -7.833  1.00  0.00     0.049 A 
HETATM   21  C   UNL     1     -22.461  -3.752  -9.031  1.00  0.00     0.021 A 
HETATM   22  C   UNL     1     -21.408  -3.894  -9.931  1.00  0.00     0.063 A 
HETATM   23  C   UNL     1     -20.391  -4.757  -9.568  1.00  0.00     0.106 A 
HETATM   24  N   UNL     1     -20.363  -5.453  -8.407  1.00  0.00    -0.352 N 
ATOM     25  HN  UNL     1     -19.582  -6.075  -8.197  1.00  0.00     0.166 HD
BRANCH  22  26
HETATM   26  C   UNL     1     -21.346  -3.179 -11.242  1.00  0.00     0.418 C 
HETATM   27  F   UNL     1     -21.315  -4.015 -12.318  1.00  0.00    -0.166 F 
HETATM   28  F   UNL     1     -22.414  -2.358 -11.442  1.00  0.00    -0.166 F 
HETATM   29  F   UNL     1     -20.243  -2.389 -11.356  1.00  0.00    -0.166 F 
ENDBRANCH  22  26
ENDBRANCH   4  19
TORSDOF 4
ENDMDL
MODEL 7
REMARK VINA RESULT:      -8.3      2.657      3.181
REMARK  4 active torsions:
REMARK  status: ('A' for Active; 'I' for Inactive)
REMARK       I    between atoms: C_2  and  N_3 
REMARK       I    between atoms: C_2  and  N_11 
REMARK    1  A    between atoms: N_3  and  C_4 
REMARK    2  A    between atoms: N_11  and  C_12 
REMARK    3  A    between atoms: N_15  and  C_16 
REMARK    4  A    between atoms: C_19  and  C_20 
ROOT
HETATM    1  C   UNL     1     -20.027  -5.960  -6.547  1.00  0.00     0.105 C 
HETATM    2  C   UNL     1     -19.808  -4.462  -6.355  1.00  0.00     0.046 C 
HETATM    3  C   UNL     1     -21.066  -3.824  -6.954  1.00  0.00     0.126 C 
HETATM    4  N   UNL     1     -21.507  -4.772  -7.972  1.00  0.00    -0.365 N 
HETATM    5  C   UNL     1     -20.699  -5.998  -7.937  1.00  0.00     0.149 C 
ENDROOT
BRANCH   1   6
HETATM    6  N   UNL     1     -20.905  -6.507  -5.518  1.00  0.00    -0.337 N 
HETATM    7  C   UNL     1     -21.056  -7.756  -5.017  1.00  0.00     0.321 C 
HETATM    8  O   UNL     1     -21.821  -7.870  -4.059  1.00  0.00    -0.247 OA
HETATM    9  N   UNL     1     -20.356  -8.764  -5.617  1.00  0.00    -0.308 N 
HETATM   10  H   UNL     1     -19.943  -8.572  -6.517  1.00  0.00     0.170 HD
HETATM   11  H   UNL     1     -21.419  -5.828  -4.965  1.00  0.00     0.164 HD
BRANCH   9  12
HETATM   12  C   UNL     1     -20.360 -10.134  -5.227  1.00  0.00     0.053 A 
HETATM   13  C   UNL     1     -21.292 -11.051  -5.729  1.00  0.00     0.031 A 
HETATM   14  C   UNL     1     -21.253 -12.400  -5.367  1.00  0.00     0.002 A 
HETATM   15  C   UNL     1     -20.281 -12.860  -4.486  1.00  0.00     0.002 A 
HETATM   16  C   UNL     1     -19.360 -11.962  -3.949  1.00  0.00     0.021 A 
HETATM   17  C   UNL     1     -19.405 -10.607  -4.308  1.00  0.00     0.037 A 
HETATM   18 BR   UNL     1     -18.117  -9.447  -3.525  1.00  0.00    -0.049 Br
ENDBRANCH   9  12
ENDBRANCH   1   6
BRANCH   4  19
HETATM   19  C   UNL     1     -22.038  -4.388  -9.185  1.00  0.00     0.102 A 
HETATM   20  C   UNL     1     -23.412  -4.339  -9.413  1.00  0.00     0.049 A 
HETATM   21  C   UNL     1     -23.906  -3.952 -10.664  1.00  0.00     0.021 A 
HETATM   22  C   UNL     1     -23.018  -3.637 -11.689  1.00  0.00     0.063 A 
HETATM   23  C   UNL     1     -21.671  -3.722 -11.394  1.00  0.00     0.106 A 
HETATM   24  N   UNL     1     -21.179  -4.084 -10.184  1.00  0.00    -0.352 N 
ATOM     25  HN  UNL     1     -20.171  -4.126 -10.029  1.00  0.00     0.166 HD
BRANCH  22  26
HETATM   26  C   UNL     1     -23.456  -3.236 -13.061  1.00  0.00     0.418 C 
HETATM   27  F   UNL     1     -22.425  -3.084 -13.939  1.00  0.00    -0.166 F 
HETATM   28  F   UNL     1     -24.294  -4.146 -13.630  1.00  0.00    -0.166 F 
HETATM   29  F   UNL     1     -24.128  -2.053 -13.071  1.00  0.00    -0.166 F 
ENDBRANCH  22  26
ENDBRANCH   4  19
TORSDOF 4
ENDMDL
MODEL 8
REMARK VINA RESULT:      -8.1      3.228      4.595
REMARK  4 active torsions:
REMARK  status: ('A' for Active; 'I' for Inactive)
REMARK       I    between atoms: C_2  and  N_3 
REMARK       I    between atoms: C_2  and  N_11 
REMARK    1  A    between atoms: N_3  and  C_4 
REMARK    2  A    between atoms: N_11  and  C_12 
REMARK    3  A    between atoms: N_15  and  C_16 
REMARK    4  A    between atoms: C_19  and  C_20 
ROOT
HETATM    1  C   UNL     1     -19.675 -11.141  -4.745  1.00  0.00     0.105 C 
HETATM    2  C   UNL     1     -18.484 -10.780  -5.627  1.00  0.00     0.046 C 
HETATM    3  C   UNL     1     -18.359  -9.260  -5.476  1.00  0.00     0.126 C 
HETATM    4  N   UNL     1     -19.716  -8.810  -5.181  1.00  0.00    -0.365 N 
HETATM    5  C   UNL     1     -20.623  -9.950  -5.001  1.00  0.00     0.149 C 
ENDROOT
BRANCH   1   6
HETATM    6  N   UNL     1     -19.293 -11.222  -3.339  1.00  0.00    -0.337 N 
HETATM    7  C   UNL     1     -19.865 -10.746  -2.208  1.00  0.00     0.321 C 
HETATM    8  O   UNL     1     -19.341 -11.086  -1.148  1.00  0.00    -0.247 OA
HETATM    9  N   UNL     1     -20.958  -9.937  -2.348  1.00  0.00    -0.308 N 
HETATM   10  H   UNL     1     -21.147  -9.567  -3.266  1.00  0.00     0.170 HD
HETATM   11  H   UNL     1     -18.530 -11.857  -3.122  1.00  0.00     0.164 HD
BRANCH   9  12
HETATM   12  C   UNL     1     -21.712  -9.358  -1.288  1.00  0.00     0.053 A 
HETATM   13  C   UNL     1     -21.363  -8.133  -0.706  1.00  0.00     0.031 A 
HETATM   14  C   UNL     1     -22.141  -7.560   0.305  1.00  0.00     0.002 A 
HETATM   15  C   UNL     1     -23.283  -8.208   0.760  1.00  0.00     0.002 A 
HETATM   16  C   UNL     1     -23.636  -9.443   0.219  1.00  0.00     0.021 A 
HETATM   17  C   UNL     1     -22.850 -10.019  -0.790  1.00  0.00     0.037 A 
HETATM   18 BR   UNL     1     -23.396 -11.709  -1.471  1.00  0.00    -0.049 Br
ENDBRANCH   9  12
ENDBRANCH   1   6
BRANCH   4  19
HETATM   19  C   UNL     1     -20.249  -7.637  -5.674  1.00  0.00     0.102 A 
HETATM   20  C   UNL     1     -21.453  -7.114  -5.208  1.00  0.00     0.049 A 
HETATM   21  C   UNL     1     -21.961  -5.926  -5.745  1.00  0.00     0.021 A 
HETATM   22  C   UNL     1     -21.268  -5.278  -6.765  1.00  0.00     0.063 A 
HETATM   23  C   UNL     1     -20.089  -5.863  -7.185  1.00  0.00     0.106 A 
HETATM   24  N   UNL     1     -19.580  -7.007  -6.666  1.00  0.00    -0.352 N 
ATOM     25  HN  UNL     1     -18.702  -7.387  -7.020  1.00  0.00     0.166 HD
BRANCH  22  26
HETATM   26  C   UNL     1     -21.747  -4.018  -7.411  1.00  0.00     0.418 C 
HETATM   27  F   UNL     1     -21.382  -2.889  -6.741  1.00  0.00    -0.166 F 
HETATM   28  F   UNL     1     -21.270  -3.866  -8.678  1.00  0.00    -0.166 F 
HETATM   29  F   UNL     1     -23.102  -3.965  -7.516  1.00  0.00    -0.166 F 
ENDBRANCH  22  26
ENDBRANCH   4  19
TORSDOF 4
ENDMDL
MODEL 9
REMARK VINA RESULT:      -7.9      3.606      5.481
REMARK  4 active torsions:
REMARK  status: ('A' for Active; 'I' for Inactive)
REMARK       I    between atoms: C_2  and  N_3 
REMARK       I    between atoms: C_2  and  N_11 
REMARK    1  A    between atoms: N_3  and  C_4 
REMARK    2  A    between atoms: N_11  and  C_12 
REMARK    3  A    between atoms: N_15  and  C_16 
REMARK    4  A    between atoms: C_19  and  C_20 
ROOT
HETATM    1  C   UNL     1     -21.416 -10.079  -1.917  1.00  0.00     0.105 C 
HETATM    2  C   UNL     1     -20.537  -9.026  -1.249  1.00  0.00     0.046 C 
HETATM    3  C   UNL     1     -21.010  -7.704  -1.863  1.00  0.00     0.126 C 
HETATM    4  N   UNL     1     -21.513  -8.074  -3.182  1.00  0.00    -0.365 N 
HETATM    5  C   UNL     1     -21.513  -9.532  -3.357  1.00  0.00     0.149 C 
ENDROOT
BRANCH   1   6
HETATM    6  N   UNL     1     -22.731 -10.153  -1.289  1.00  0.00    -0.337 N 
HETATM    7  C   UNL     1     -23.331 -11.106  -0.537  1.00  0.00     0.321 C 
HETATM    8  O   UNL     1     -24.426 -10.812  -0.057  1.00  0.00    -0.247 OA
HETATM    9  N   UNL     1     -22.675 -12.295  -0.387  1.00  0.00    -0.308 N 
HETATM   10  H   UNL     1     -21.900 -12.480  -1.005  1.00  0.00     0.170 HD
HETATM   11  H   UNL     1     -23.272  -9.293  -1.287  1.00  0.00     0.164 HD
BRANCH   9  12
HETATM   12  C   UNL     1     -23.124 -13.409   0.379  1.00  0.00     0.053 A 
HETATM   13  C   UNL     1     -23.062 -13.427   1.779  1.00  0.00     0.031 A 
HETATM   14  C   UNL     1     -23.548 -14.511   2.515  1.00  0.00     0.002 A 
HETATM   15  C   UNL     1     -24.101 -15.607   1.862  1.00  0.00     0.002 A 
HETATM   16  C   UNL     1     -24.147 -15.628   0.469  1.00  0.00     0.021 A 
HETATM   17  C   UNL     1     -23.653 -14.541  -0.267  1.00  0.00     0.037 A 
HETATM   18 BR   UNL     1     -23.746 -14.650  -2.164  1.00  0.00    -0.049 Br
ENDBRANCH   9  12
ENDBRANCH   1   6
BRANCH   4  19
HETATM   19  C   UNL     1     -21.339  -7.293  -4.305  1.00  0.00     0.102 A 
HETATM   20  C   UNL     1     -20.220  -7.411  -5.127  1.00  0.00     0.049 A 
HETATM   21  C   UNL     1     -20.080  -6.590  -6.252  1.00  0.00     0.021 A 
HETATM   22  C   UNL     1     -21.055  -5.637  -6.535  1.00  0.00     0.063 A 
HETATM   23  C   UNL     1     -22.129  -5.568  -5.668  1.00  0.00     0.106 A 
HETATM   24  N   UNL     1     -22.282  -6.364  -4.583  1.00  0.00    -0.352 N 
ATOM     25  HN  UNL     1     -23.100  -6.264  -3.981  1.00  0.00     0.166 HD
BRANCH  22  26
HETATM   26  C   UNL     1     -20.977  -4.704  -7.701  1.00  0.00     0.418 C 
HETATM   27  F   UNL     1     -21.485  -5.228  -8.852  1.00  0.00    -0.166 F 
HETATM   28  F   UNL     1     -21.659  -3.545  -7.490  1.00  0.00    -0.166 F 
HETATM   29  F   UNL     1     -19.700  -4.337  -7.993  1.00  0.00    -0.166 F 
ENDBRANCH  22  26
ENDBRANCH   4  19
TORSDOF 4
ENDMDL
