REMARK  4 active torsions:
REMARK  status: ('A' for Active; 'I' for Inactive)
REMARK       I    between atoms: C_2  and  N_3 
REMARK       I    between atoms: C_2  and  N_11 
REMARK    1  A    between atoms: N_3  and  C_4 
REMARK    2  A    between atoms: N_11  and  C_12 
REMARK    3  A    between atoms: N_15  and  C_16 
REMARK    4  A    between atoms: C_19  and  C_20 
ROOT
HETATM    1  C   UNL     1       4.547   1.317  -0.272  1.00  0.00     0.105 C 
HETATM    2  C   UNL     1       4.965   1.255  -1.738  1.00  0.00     0.046 C 
HETATM    3  C   UNL     1       5.104  -0.245  -2.020  1.00  0.00     0.126 C 
HETATM    4  N   UNL     1       5.450  -0.829  -0.728  1.00  0.00    -0.365 N 
HETATM    5  C   UNL     1       5.391   0.178   0.339  1.00  0.00     0.149 C 
ENDROOT
BRANCH   1   6
HETATM    6  N   UNL     1       3.119   1.063  -0.113  1.00  0.00    -0.337 N 
HETATM    7  C   UNL     1       2.033   1.866  -0.207  1.00  0.00     0.321 C 
HETATM    8  O   UNL     1       0.937   1.312  -0.124  1.00  0.00    -0.247 OA
HETATM    9  N   UNL     1       2.252   3.204  -0.380  1.00  0.00    -0.308 N 
HETATM   10  H   UNL     1       3.185   3.547  -0.213  1.00  0.00     0.170 HD
HETATM   11  H   UNL     1       2.846   0.087  -0.047  1.00  0.00     0.164 HD
BRANCH   9  12
HETATM   12  C   UNL     1       1.249   4.205  -0.524  1.00  0.00     0.053 A 
HETATM   13  C   UNL     1      -0.087   3.889  -0.802  1.00  0.00     0.031 A 
HETATM   14  C   UNL     1      -1.065   4.883  -0.897  1.00  0.00     0.002 A 
HETATM   15  C   UNL     1      -0.723   6.219  -0.723  1.00  0.00     0.002 A 
HETATM   16  C   UNL     1       0.605   6.563  -0.475  1.00  0.00     0.021 A 
HETATM   17  C   UNL     1       1.586   5.564  -0.387  1.00  0.00     0.037 A 
HETATM   18 BR   UNL     1       3.375   6.117  -0.054  1.00  0.00    -0.049 Br
ENDBRANCH   9  12
ENDBRANCH   1   6
BRANCH   4  19
HETATM   19  C   UNL     1       6.346  -1.867  -0.582  1.00  0.00     0.102 A 
HETATM   20  C   UNL     1       6.599  -2.780  -1.604  1.00  0.00     0.049 A 
HETATM   21  C   UNL     1       7.510  -3.824  -1.408  1.00  0.00     0.021 A 
HETATM   22  C   UNL     1       8.148  -3.961  -0.178  1.00  0.00     0.063 A 
HETATM   23  C   UNL     1       7.837  -3.027   0.792  1.00  0.00     0.106 A 
HETATM   24  N   UNL     1       6.966  -2.005   0.612  1.00  0.00    -0.352 N 
ATOM     25  HN  UNL     1       6.780  -1.347   1.369  1.00  0.00     0.166 HD
BRANCH  22  26
HETATM   26  C   UNL     1       9.118  -5.057   0.127  1.00  0.00     0.418 C 
HETATM   27  F   UNL     1       9.324  -5.908  -0.917  1.00  0.00    -0.166 F 
HETATM   28  F   UNL     1      10.349  -4.586   0.469  1.00  0.00    -0.166 F 
HETATM   29  F   UNL     1       8.716  -5.837   1.167  1.00  0.00    -0.166 F 
ENDBRANCH  22  26
ENDBRANCH   4  19
TORSDOF 4
