MODEL 1
REMARK VINA RESULT:      -7.8      0.000      0.000
REMARK  17 active torsions:
REMARK  status: ('A' for Active; 'I' for Inactive)
REMARK    1  A    between atoms: C_2  and  C_3 
REMARK    2  A    between atoms: C_3  and  C_4 
REMARK    3  A    between atoms: C_4  and  C_5 
REMARK    4  A    between atoms: C_5  and  C_6 
REMARK    5  A    between atoms: C_7  and  C_8 
REMARK    6  A    between atoms: C_8  and  C_9 
REMARK    7  A    between atoms: C_9  and  C_10 
REMARK    8  A    between atoms: C_9  and  O_23 
REMARK    9  A    between atoms: C_11  and  C_12 
REMARK   10  A    between atoms: C_13  and  C_14 
REMARK   11  A    between atoms: C_14  and  C_15 
REMARK   12  A    between atoms: C_16  and  C_17 
REMARK   13  A    between atoms: C_17  and  C_18 
REMARK   14  A    between atoms: C_18  and  C_19 
REMARK   15  A    between atoms: C_19  and  C_20 
REMARK   16  A    between atoms: C_20  and  O_22 
REMARK   17  A    between atoms: O_23  and  O_24 
ROOT
HETATM    1  C   UNL     1     -21.843  -6.071  -5.200  1.00  0.00     0.008 C 
HETATM    2  C   UNL     1     -20.843  -5.932  -6.084  1.00  0.00    -0.002 C 
ENDROOT
BRANCH   1   3
HETATM    3  C   UNL     1     -21.747  -6.915  -3.946  1.00  0.00     0.186 C 
BRANCH   3   4
HETATM    4  C   UNL     1     -21.576  -6.090  -2.649  1.00  0.00     0.066 C 
BRANCH   4   5
HETATM    5  C   UNL     1     -22.272  -6.675  -1.455  1.00  0.00    -0.028 C 
HETATM    6  C   UNL     1     -21.707  -7.579  -0.641  1.00  0.00    -0.031 C 
BRANCH   6   7
HETATM    7  C   UNL     1     -22.354  -8.059   0.626  1.00  0.00     0.027 C 
BRANCH   7   8
HETATM    8  C   UNL     1     -23.491  -9.045   0.333  1.00  0.00     0.004 C 
BRANCH   8   9
HETATM    9  C   UNL     1     -23.104 -10.110  -0.701  1.00  0.00    -0.000 C 
BRANCH   9  10
HETATM   10  C   UNL     1     -23.970 -11.360  -0.565  1.00  0.00    -0.005 C 
HETATM   11  C   UNL     1     -23.451 -12.271   0.535  1.00  0.00     0.005 C 
ENDBRANCH   9  10
ENDBRANCH   8   9
ENDBRANCH   7   8
ENDBRANCH   6   7
ENDBRANCH   4   5
ENDBRANCH   3   4
BRANCH   3  12
HETATM   12  O   UNL     1     -20.589  -7.751  -4.108  1.00  0.00    -0.234 OA
BRANCH  12  13
HETATM   13  O   UNL     1     -21.015  -9.107  -3.775  1.00  0.00    -0.250 OA
HETATM   14  H   UNL     1     -21.092  -9.419  -4.694  1.00  0.00     0.253 HD
ENDBRANCH  12  13
ENDBRANCH   3  12
ENDBRANCH   1   3
BRANCH   2  15
HETATM   15  C   UNL     1     -20.936  -5.126  -7.280  1.00  0.00    -0.004 C 
HETATM   16  C   UNL     1     -20.166  -5.319  -8.363  1.00  0.00    -0.023 C 
BRANCH  16  17
HETATM   17  C   UNL     1     -20.258  -4.508  -9.626  1.00  0.00     0.054 C 
BRANCH  17  18
HETATM   18  C   UNL     1     -21.593  -3.825  -9.738  1.00  0.00    -0.027 C 
HETATM   19  C   UNL     1     -22.557  -4.201 -10.599  1.00  0.00    -0.030 C 
BRANCH  19  20
HETATM   20  C   UNL     1     -23.907  -3.545 -10.693  1.00  0.00     0.027 C 
BRANCH  20  21
HETATM   21  C   UNL     1     -24.275  -3.189 -12.137  1.00  0.00     0.014 C 
BRANCH  21  22
HETATM   22  C   UNL     1     -23.093  -2.620 -12.924  1.00  0.00     0.110 C 
BRANCH  22  23
HETATM   23  C   UNL     1     -23.214  -2.885 -14.405  1.00  0.00     0.139 C 
HETATM   24  O   UNL     1     -22.711  -2.213 -15.290  1.00  0.00    -0.650 OA
BRANCH  23  25
HETATM   25  O   UNL     1     -23.961  -3.984 -14.664  1.00  0.00    -0.776 OA
HETATM   26  H   UNL     1     -23.720  -4.430 -15.497  1.00  0.00     0.167 HD
ENDBRANCH  23  25
ENDBRANCH  22  23
ENDBRANCH  21  22
ENDBRANCH  20  21
ENDBRANCH  19  20
ENDBRANCH  17  18
ENDBRANCH  16  17
ENDBRANCH   2  15
TORSDOF 17
ENDMDL
MODEL 2
REMARK VINA RESULT:      -7.7      2.007      2.355
REMARK  17 active torsions:
REMARK  status: ('A' for Active; 'I' for Inactive)
REMARK    1  A    between atoms: C_2  and  C_3 
REMARK    2  A    between atoms: C_3  and  C_4 
REMARK    3  A    between atoms: C_4  and  C_5 
REMARK    4  A    between atoms: C_5  and  C_6 
REMARK    5  A    between atoms: C_7  and  C_8 
REMARK    6  A    between atoms: C_8  and  C_9 
REMARK    7  A    between atoms: C_9  and  C_10 
REMARK    8  A    between atoms: C_9  and  O_23 
REMARK    9  A    between atoms: C_11  and  C_12 
REMARK   10  A    between atoms: C_13  and  C_14 
REMARK   11  A    between atoms: C_14  and  C_15 
REMARK   12  A    between atoms: C_16  and  C_17 
REMARK   13  A    between atoms: C_17  and  C_18 
REMARK   14  A    between atoms: C_18  and  C_19 
REMARK   15  A    between atoms: C_19  and  C_20 
REMARK   16  A    between atoms: C_20  and  O_22 
REMARK   17  A    between atoms: O_23  and  O_24 
ROOT
HETATM    1  C   UNL     1     -21.533  -6.578  -5.687  1.00  0.00     0.008 C 
HETATM    2  C   UNL     1     -21.867  -5.350  -6.114  1.00  0.00    -0.002 C 
ENDROOT
BRANCH   1   3
HETATM    3  C   UNL     1     -22.012  -7.174  -4.381  1.00  0.00     0.186 C 
BRANCH   3   4
HETATM    4  C   UNL     1     -21.605  -6.355  -3.134  1.00  0.00     0.066 C 
BRANCH   4   5
HETATM    5  C   UNL     1     -21.566  -7.153  -1.863  1.00  0.00    -0.028 C 
HETATM    6  C   UNL     1     -22.400  -6.941  -0.834  1.00  0.00    -0.031 C 
BRANCH   6   7
HETATM    7  C   UNL     1     -22.447  -7.826   0.379  1.00  0.00     0.027 C 
BRANCH   7   8
HETATM    8  C   UNL     1     -21.280  -8.819   0.391  1.00  0.00     0.004 C 
BRANCH   8   9
HETATM    9  C   UNL     1     -21.741 -10.281   0.356  1.00  0.00    -0.000 C 
BRANCH   9  10
HETATM   10  C   UNL     1     -22.763 -10.517  -0.753  1.00  0.00    -0.005 C 
HETATM   11  C   UNL     1     -24.030 -11.156  -0.207  1.00  0.00     0.005 C 
ENDBRANCH   9  10
ENDBRANCH   8   9
ENDBRANCH   7   8
ENDBRANCH   6   7
ENDBRANCH   4   5
ENDBRANCH   3   4
BRANCH   3  12
HETATM   12  O   UNL     1     -21.413  -8.477  -4.285  1.00  0.00    -0.234 OA
BRANCH  12  13
HETATM   13  O   UNL     1     -20.959  -8.819  -5.628  1.00  0.00    -0.250 OA
HETATM   14  H   UNL     1     -21.706  -9.405  -5.843  1.00  0.00     0.253 HD
ENDBRANCH  12  13
ENDBRANCH   3  12
ENDBRANCH   1   3
BRANCH   2  15
HETATM   15  C   UNL     1     -21.410  -4.783  -7.362  1.00  0.00    -0.004 C 
HETATM   16  C   UNL     1     -20.264  -5.143  -7.962  1.00  0.00    -0.023 C 
BRANCH  16  17
HETATM   17  C   UNL     1     -19.777  -4.583  -9.270  1.00  0.00     0.054 C 
BRANCH  17  18
HETATM   18  C   UNL     1     -20.921  -4.078 -10.105  1.00  0.00    -0.027 C 
HETATM   19  C   UNL     1     -20.922  -4.073 -11.451  1.00  0.00    -0.030 C 
BRANCH  19  20
HETATM   20  C   UNL     1     -22.075  -3.602 -12.293  1.00  0.00     0.027 C 
BRANCH  20  21
HETATM   21  C   UNL     1     -23.401  -4.234 -11.858  1.00  0.00     0.014 C 
BRANCH  21  22
HETATM   22  C   UNL     1     -24.429  -3.197 -11.403  1.00  0.00     0.110 C 
BRANCH  22  23
HETATM   23  C   UNL     1     -24.778  -3.344  -9.942  1.00  0.00     0.139 C 
HETATM   24  O   UNL     1     -23.977  -3.444  -9.027  1.00  0.00    -0.650 OA
BRANCH  23  25
HETATM   25  O   UNL     1     -26.116  -3.350  -9.737  1.00  0.00    -0.776 OA
HETATM   26  H   UNL     1     -26.373  -3.088  -8.834  1.00  0.00     0.167 HD
ENDBRANCH  23  25
ENDBRANCH  22  23
ENDBRANCH  21  22
ENDBRANCH  20  21
ENDBRANCH  19  20
ENDBRANCH  17  18
ENDBRANCH  16  17
ENDBRANCH   2  15
TORSDOF 17
ENDMDL
MODEL 3
REMARK VINA RESULT:      -7.6      1.544      1.996
REMARK  17 active torsions:
REMARK  status: ('A' for Active; 'I' for Inactive)
REMARK    1  A    between atoms: C_2  and  C_3 
REMARK    2  A    between atoms: C_3  and  C_4 
REMARK    3  A    between atoms: C_4  and  C_5 
REMARK    4  A    between atoms: C_5  and  C_6 
REMARK    5  A    between atoms: C_7  and  C_8 
REMARK    6  A    between atoms: C_8  and  C_9 
REMARK    7  A    between atoms: C_9  and  C_10 
REMARK    8  A    between atoms: C_9  and  O_23 
REMARK    9  A    between atoms: C_11  and  C_12 
REMARK   10  A    between atoms: C_13  and  C_14 
REMARK   11  A    between atoms: C_14  and  C_15 
REMARK   12  A    between atoms: C_16  and  C_17 
REMARK   13  A    between atoms: C_17  and  C_18 
REMARK   14  A    between atoms: C_18  and  C_19 
REMARK   15  A    between atoms: C_19  and  C_20 
REMARK   16  A    between atoms: C_20  and  O_22 
REMARK   17  A    between atoms: O_23  and  O_24 
ROOT
HETATM    1  C   UNL     1     -21.021  -7.516  -5.637  1.00  0.00     0.008 C 
HETATM    2  C   UNL     1     -20.815  -6.283  -5.147  1.00  0.00    -0.002 C 
ENDROOT
BRANCH   1   3
HETATM    3  C   UNL     1     -20.921  -8.778  -4.808  1.00  0.00     0.186 C 
BRANCH   3   4
HETATM    4  C   UNL     1     -20.233  -8.573  -3.438  1.00  0.00     0.066 C 
BRANCH   4   5
HETATM    5  C   UNL     1     -21.185  -8.480  -2.282  1.00  0.00    -0.028 C 
HETATM    6  C   UNL     1     -21.428  -7.342  -1.615  1.00  0.00    -0.031 C 
BRANCH   6   7
HETATM    7  C   UNL     1     -22.478  -7.223  -0.549  1.00  0.00     0.027 C 
BRANCH   7   8
HETATM    8  C   UNL     1     -22.496  -8.460   0.356  1.00  0.00     0.004 C 
BRANCH   8   9
HETATM    9  C   UNL     1     -21.274  -8.540   1.280  1.00  0.00    -0.000 C 
BRANCH   9  10
HETATM   10  C   UNL     1     -20.645  -9.931   1.254  1.00  0.00    -0.005 C 
HETATM   11  C   UNL     1     -21.515 -10.913   0.485  1.00  0.00     0.005 C 
ENDBRANCH   9  10
ENDBRANCH   8   9
ENDBRANCH   7   8
ENDBRANCH   6   7
ENDBRANCH   4   5
ENDBRANCH   3   4
BRANCH   3  12
HETATM   12  O   UNL     1     -20.137  -9.707  -5.575  1.00  0.00    -0.234 OA
BRANCH  12  13
HETATM   13  O   UNL     1     -21.087 -10.527  -6.319  1.00  0.00    -0.250 OA
HETATM   14  H   UNL     1     -21.564  -9.785  -6.730  1.00  0.00     0.253 HD
ENDBRANCH  12  13
ENDBRANCH   3  12
ENDBRANCH   1   3
BRANCH   2  15
HETATM   15  C   UNL     1     -20.912  -5.079  -5.940  1.00  0.00    -0.004 C 
HETATM   16  C   UNL     1     -21.677  -4.977  -7.039  1.00  0.00    -0.023 C 
BRANCH  16  17
HETATM   17  C   UNL     1     -21.811  -3.729  -7.868  1.00  0.00     0.054 C 
BRANCH  17  18
HETATM   18  C   UNL     1     -22.174  -4.058  -9.290  1.00  0.00    -0.027 C 
HETATM   19  C   UNL     1     -23.440  -4.118  -9.746  1.00  0.00    -0.030 C 
BRANCH  19  20
HETATM   20  C   UNL     1     -23.809  -4.412 -11.173  1.00  0.00     0.027 C 
BRANCH  20  21
HETATM   21  C   UNL     1     -23.918  -3.136 -12.014  1.00  0.00     0.014 C 
BRANCH  21  22
HETATM   22  C   UNL     1     -22.724  -2.944 -12.951  1.00  0.00     0.110 C 
BRANCH  22  23
HETATM   23  C   UNL     1     -23.149  -2.507 -14.332  1.00  0.00     0.139 C 
HETATM   24  O   UNL     1     -24.083  -1.766 -14.587  1.00  0.00    -0.650 OA
BRANCH  23  25
HETATM   25  O   UNL     1     -22.359  -3.036 -15.297  1.00  0.00    -0.776 OA
HETATM   26  H   UNL     1     -21.411  -2.843 -15.173  1.00  0.00     0.167 HD
ENDBRANCH  23  25
ENDBRANCH  22  23
ENDBRANCH  21  22
ENDBRANCH  20  21
ENDBRANCH  19  20
ENDBRANCH  17  18
ENDBRANCH  16  17
ENDBRANCH   2  15
TORSDOF 17
ENDMDL
MODEL 4
REMARK VINA RESULT:      -7.1      3.151     11.952
REMARK  17 active torsions:
REMARK  status: ('A' for Active; 'I' for Inactive)
REMARK    1  A    between atoms: C_2  and  C_3 
REMARK    2  A    between atoms: C_3  and  C_4 
REMARK    3  A    between atoms: C_4  and  C_5 
REMARK    4  A    between atoms: C_5  and  C_6 
REMARK    5  A    between atoms: C_7  and  C_8 
REMARK    6  A    between atoms: C_8  and  C_9 
REMARK    7  A    between atoms: C_9  and  C_10 
REMARK    8  A    between atoms: C_9  and  O_23 
REMARK    9  A    between atoms: C_11  and  C_12 
REMARK   10  A    between atoms: C_13  and  C_14 
REMARK   11  A    between atoms: C_14  and  C_15 
REMARK   12  A    between atoms: C_16  and  C_17 
REMARK   13  A    between atoms: C_17  and  C_18 
REMARK   14  A    between atoms: C_18  and  C_19 
REMARK   15  A    between atoms: C_19  and  C_20 
REMARK   16  A    between atoms: C_20  and  O_22 
REMARK   17  A    between atoms: O_23  and  O_24 
ROOT
HETATM    1  C   UNL     1     -21.478  -6.243  -4.414  1.00  0.00     0.008 C 
HETATM    2  C   UNL     1     -21.229  -6.103  -3.102  1.00  0.00    -0.002 C 
ENDROOT
BRANCH   1   3
HETATM    3  C   UNL     1     -20.503  -5.847  -5.502  1.00  0.00     0.186 C 
BRANCH   3   4
HETATM    4  C   UNL     1     -21.076  -4.830  -6.516  1.00  0.00     0.066 C 
BRANCH   4   5
HETATM    5  C   UNL     1     -20.644  -5.068  -7.934  1.00  0.00    -0.028 C 
HETATM    6  C   UNL     1     -20.891  -4.210  -8.934  1.00  0.00    -0.031 C 
BRANCH   6   7
HETATM    7  C   UNL     1     -20.342  -4.385 -10.320  1.00  0.00     0.027 C 
BRANCH   7   8
HETATM    8  C   UNL     1     -21.462  -4.399 -11.367  1.00  0.00     0.004 C 
BRANCH   8   9
HETATM    9  C   UNL     1     -21.883  -2.991 -11.806  1.00  0.00    -0.000 C 
BRANCH   9  10
HETATM   10  C   UNL     1     -23.403  -2.850 -11.842  1.00  0.00    -0.005 C 
HETATM   11  C   UNL     1     -24.069  -3.832 -10.891  1.00  0.00     0.005 C 
ENDBRANCH   9  10
ENDBRANCH   8   9
ENDBRANCH   7   8
ENDBRANCH   6   7
ENDBRANCH   4   5
ENDBRANCH   3   4
BRANCH   3  12
HETATM   12  O   UNL     1     -20.170  -7.054  -6.208  1.00  0.00    -0.234 OA
BRANCH  12  13
HETATM   13  O   UNL     1     -21.306  -7.954  -6.037  1.00  0.00    -0.250 OA
HETATM   14  H   UNL     1     -20.783  -8.774  -6.001  1.00  0.00     0.253 HD
ENDBRANCH  12  13
ENDBRANCH   3  12
ENDBRANCH   1   3
BRANCH   2  15
HETATM   15  C   UNL     1     -22.161  -6.482  -2.065  1.00  0.00    -0.004 C 
HETATM   16  C   UNL     1     -21.854  -7.328  -1.069  1.00  0.00    -0.023 C 
BRANCH  16  17
HETATM   17  C   UNL     1     -22.798  -7.722   0.033  1.00  0.00     0.054 C 
BRANCH  17  18
HETATM   18  C   UNL     1     -22.774  -9.208   0.265  1.00  0.00    -0.027 C 
HETATM   19  C   UNL     1     -23.717 -10.053  -0.193  1.00  0.00    -0.030 C 
BRANCH  19  20
HETATM   20  C   UNL     1     -23.682 -11.543   0.005  1.00  0.00     0.027 C 
BRANCH  20  21
HETATM   21  C   UNL     1     -22.250 -12.083   0.054  1.00  0.00     0.014 C 
BRANCH  21  22
HETATM   22  C   UNL     1     -22.005 -12.995   1.258  1.00  0.00     0.110 C 
BRANCH  22  23
HETATM   23  C   UNL     1     -23.077 -14.047   1.404  1.00  0.00     0.139 C 
HETATM   24  O   UNL     1     -23.335 -14.916   0.587  1.00  0.00    -0.650 OA
BRANCH  23  25
HETATM   25  O   UNL     1     -23.747 -13.931   2.575  1.00  0.00    -0.776 OA
HETATM   26  H   UNL     1     -23.870 -14.780   3.039  1.00  0.00     0.167 HD
ENDBRANCH  23  25
ENDBRANCH  22  23
ENDBRANCH  21  22
ENDBRANCH  20  21
ENDBRANCH  19  20
ENDBRANCH  17  18
ENDBRANCH  16  17
ENDBRANCH   2  15
TORSDOF 17
ENDMDL
MODEL 5
REMARK VINA RESULT:      -7.0      2.907     11.107
REMARK  17 active torsions:
REMARK  status: ('A' for Active; 'I' for Inactive)
REMARK    1  A    between atoms: C_2  and  C_3 
REMARK    2  A    between atoms: C_3  and  C_4 
REMARK    3  A    between atoms: C_4  and  C_5 
REMARK    4  A    between atoms: C_5  and  C_6 
REMARK    5  A    between atoms: C_7  and  C_8 
REMARK    6  A    between atoms: C_8  and  C_9 
REMARK    7  A    between atoms: C_9  and  C_10 
REMARK    8  A    between atoms: C_9  and  O_23 
REMARK    9  A    between atoms: C_11  and  C_12 
REMARK   10  A    between atoms: C_13  and  C_14 
REMARK   11  A    between atoms: C_14  and  C_15 
REMARK   12  A    between atoms: C_16  and  C_17 
REMARK   13  A    between atoms: C_17  and  C_18 
REMARK   14  A    between atoms: C_18  and  C_19 
REMARK   15  A    between atoms: C_19  and  C_20 
REMARK   16  A    between atoms: C_20  and  O_22 
REMARK   17  A    between atoms: O_23  and  O_24 
ROOT
HETATM    1  C   UNL     1     -21.991  -6.409  -5.149  1.00  0.00     0.008 C 
HETATM    2  C   UNL     1     -21.266  -6.126  -4.055  1.00  0.00    -0.002 C 
ENDROOT
BRANCH   1   3
HETATM    3  C   UNL     1     -21.873  -5.653  -6.456  1.00  0.00     0.186 C 
BRANCH   3   4
HETATM    4  C   UNL     1     -20.483  -5.015  -6.685  1.00  0.00     0.066 C 
BRANCH   4   5
HETATM    5  C   UNL     1     -20.091  -4.903  -8.129  1.00  0.00    -0.028 C 
HETATM    6  C   UNL     1     -20.851  -4.303  -9.057  1.00  0.00    -0.031 C 
BRANCH   6   7
HETATM    7  C   UNL     1     -20.396  -4.074 -10.469  1.00  0.00     0.027 C 
BRANCH   7   8
HETATM    8  C   UNL     1     -21.587  -3.968 -11.428  1.00  0.00     0.004 C 
BRANCH   8   9
HETATM    9  C   UNL     1     -22.938  -4.142 -10.723  1.00  0.00    -0.000 C 
BRANCH   9  10
HETATM   10  C   UNL     1     -23.984  -3.177 -11.275  1.00  0.00    -0.005 C 
HETATM   11  C   UNL     1     -23.673  -2.795 -12.714  1.00  0.00     0.005 C 
ENDBRANCH   9  10
ENDBRANCH   8   9
ENDBRANCH   7   8
ENDBRANCH   6   7
ENDBRANCH   4   5
ENDBRANCH   3   4
BRANCH   3  12
HETATM   12  O   UNL     1     -22.853  -4.603  -6.408  1.00  0.00    -0.234 OA
BRANCH  12  13
HETATM   13  O   UNL     1     -24.113  -5.236  -6.035  1.00  0.00    -0.250 OA
HETATM   14  H   UNL     1     -23.721  -5.915  -5.459  1.00  0.00     0.253 HD
ENDBRANCH  12  13
ENDBRANCH   3  12
ENDBRANCH   1   3
BRANCH   2  15
HETATM   15  C   UNL     1     -21.379  -6.848  -2.809  1.00  0.00    -0.004 C 
HETATM   16  C   UNL     1     -22.110  -6.417  -1.769  1.00  0.00    -0.023 C 
BRANCH  16  17
HETATM   17  C   UNL     1     -22.261  -7.161  -0.470  1.00  0.00     0.054 C 
BRANCH  17  18
HETATM   18  C   UNL     1     -22.609  -8.605  -0.707  1.00  0.00    -0.027 C 
HETATM   19  C   UNL     1     -23.396  -9.329   0.109  1.00  0.00    -0.030 C 
BRANCH  19  20
HETATM   20  C   UNL     1     -23.776 -10.763  -0.139  1.00  0.00     0.027 C 
BRANCH  20  21
HETATM   21  C   UNL     1     -23.408 -11.218  -1.554  1.00  0.00     0.014 C 
BRANCH  21  22
HETATM   22  C   UNL     1     -22.521 -12.465  -1.561  1.00  0.00     0.110 C 
BRANCH  22  23
HETATM   23  C   UNL     1     -21.214 -12.238  -0.841  1.00  0.00     0.139 C 
HETATM   24  O   UNL     1     -20.861 -12.799   0.183  1.00  0.00    -0.650 OA
BRANCH  23  25
HETATM   25  O   UNL     1     -20.442 -11.320  -1.469  1.00  0.00    -0.776 OA
HETATM   26  H   UNL     1     -19.491 -11.410  -1.270  1.00  0.00     0.167 HD
ENDBRANCH  23  25
ENDBRANCH  22  23
ENDBRANCH  21  22
ENDBRANCH  20  21
ENDBRANCH  19  20
ENDBRANCH  17  18
ENDBRANCH  16  17
ENDBRANCH   2  15
TORSDOF 17
ENDMDL
MODEL 6
REMARK VINA RESULT:      -6.9      2.066      3.434
REMARK  17 active torsions:
REMARK  status: ('A' for Active; 'I' for Inactive)
REMARK    1  A    between atoms: C_2  and  C_3 
REMARK    2  A    between atoms: C_3  and  C_4 
REMARK    3  A    between atoms: C_4  and  C_5 
REMARK    4  A    between atoms: C_5  and  C_6 
REMARK    5  A    between atoms: C_7  and  C_8 
REMARK    6  A    between atoms: C_8  and  C_9 
REMARK    7  A    between atoms: C_9  and  C_10 
REMARK    8  A    between atoms: C_9  and  O_23 
REMARK    9  A    between atoms: C_11  and  C_12 
REMARK   10  A    between atoms: C_13  and  C_14 
REMARK   11  A    between atoms: C_14  and  C_15 
REMARK   12  A    between atoms: C_16  and  C_17 
REMARK   13  A    between atoms: C_17  and  C_18 
REMARK   14  A    between atoms: C_18  and  C_19 
REMARK   15  A    between atoms: C_19  and  C_20 
REMARK   16  A    between atoms: C_20  and  O_22 
REMARK   17  A    between atoms: O_23  and  O_24 
ROOT
HETATM    1  C   UNL     1     -19.987  -8.727  -4.322  1.00  0.00     0.008 C 
HETATM    2  C   UNL     1     -20.721  -8.045  -5.216  1.00  0.00    -0.002 C 
ENDROOT
BRANCH   1   3
HETATM    3  C   UNL     1     -19.866 -10.236  -4.311  1.00  0.00     0.186 C 
BRANCH   3   4
HETATM    4  C   UNL     1     -21.179 -10.966  -3.945  1.00  0.00     0.066 C 
BRANCH   4   5
HETATM    5  C   UNL     1     -21.645 -10.723  -2.539  1.00  0.00    -0.028 C 
HETATM    6  C   UNL     1     -22.939 -10.648  -2.193  1.00  0.00    -0.031 C 
BRANCH   6   7
HETATM    7  C   UNL     1     -23.402 -10.540  -0.769  1.00  0.00     0.027 C 
BRANCH   7   8
HETATM    8  C   UNL     1     -22.445  -9.680   0.065  1.00  0.00     0.004 C 
BRANCH   8   9
HETATM    9  C   UNL     1     -22.741  -8.179  -0.048  1.00  0.00    -0.000 C 
BRANCH   9  10
HETATM   10  C   UNL     1     -21.666  -7.459  -0.858  1.00  0.00    -0.005 C 
HETATM   11  C   UNL     1     -22.281  -6.439  -1.803  1.00  0.00     0.005 C 
ENDBRANCH   9  10
ENDBRANCH   8   9
ENDBRANCH   7   8
ENDBRANCH   6   7
ENDBRANCH   4   5
ENDBRANCH   3   4
BRANCH   3  12
HETATM   12  O   UNL     1     -18.877 -10.557  -3.319  1.00  0.00    -0.234 OA
BRANCH  12  13
HETATM   13  O   UNL     1     -18.057 -11.621  -3.887  1.00  0.00    -0.250 OA
HETATM   14  H   UNL     1     -17.577 -11.831  -3.067  1.00  0.00     0.253 HD
ENDBRANCH  12  13
ENDBRANCH   3  12
ENDBRANCH   1   3
BRANCH   2  15
HETATM   15  C   UNL     1     -20.835  -6.604  -5.227  1.00  0.00    -0.004 C 
HETATM   16  C   UNL     1     -20.557  -5.849  -6.301  1.00  0.00    -0.023 C 
BRANCH  16  17
HETATM   17  C   UNL     1     -20.687  -4.351  -6.344  1.00  0.00     0.054 C 
BRANCH  17  18
HETATM   18  C   UNL     1     -20.794  -3.855  -7.759  1.00  0.00    -0.027 C 
HETATM   19  C   UNL     1     -20.683  -4.648  -8.842  1.00  0.00    -0.030 C 
BRANCH  19  20
HETATM   20  C   UNL     1     -20.823  -4.164 -10.259  1.00  0.00     0.027 C 
BRANCH  20  21
HETATM   21  C   UNL     1     -22.247  -4.350 -10.792  1.00  0.00     0.014 C 
BRANCH  21  22
HETATM   22  C   UNL     1     -22.737  -3.146 -11.598  1.00  0.00     0.110 C 
BRANCH  22  23
HETATM   23  C   UNL     1     -24.240  -3.125 -11.735  1.00  0.00     0.139 C 
HETATM   24  O   UNL     1     -25.038  -3.238 -10.819  1.00  0.00    -0.650 OA
BRANCH  23  25
HETATM   25  O   UNL     1     -24.631  -2.960 -13.021  1.00  0.00    -0.776 OA
HETATM   26  H   UNL     1     -23.996  -3.317 -13.670  1.00  0.00     0.167 HD
ENDBRANCH  23  25
ENDBRANCH  22  23
ENDBRANCH  21  22
ENDBRANCH  20  21
ENDBRANCH  19  20
ENDBRANCH  17  18
ENDBRANCH  16  17
ENDBRANCH   2  15
TORSDOF 17
ENDMDL
MODEL 7
REMARK VINA RESULT:      -6.9     13.244     15.459
REMARK  17 active torsions:
REMARK  status: ('A' for Active; 'I' for Inactive)
REMARK    1  A    between atoms: C_2  and  C_3 
REMARK    2  A    between atoms: C_3  and  C_4 
REMARK    3  A    between atoms: C_4  and  C_5 
REMARK    4  A    between atoms: C_5  and  C_6 
REMARK    5  A    between atoms: C_7  and  C_8 
REMARK    6  A    between atoms: C_8  and  C_9 
REMARK    7  A    between atoms: C_9  and  C_10 
REMARK    8  A    between atoms: C_9  and  O_23 
REMARK    9  A    between atoms: C_11  and  C_12 
REMARK   10  A    between atoms: C_13  and  C_14 
REMARK   11  A    between atoms: C_14  and  C_15 
REMARK   12  A    between atoms: C_16  and  C_17 
REMARK   13  A    between atoms: C_17  and  C_18 
REMARK   14  A    between atoms: C_18  and  C_19 
REMARK   15  A    between atoms: C_19  and  C_20 
REMARK   16  A    between atoms: C_20  and  O_22 
REMARK   17  A    between atoms: O_23  and  O_24 
ROOT
HETATM    1  C   UNL     1     -36.567  -0.031 -12.263  1.00  0.00     0.008 C 
HETATM    2  C   UNL     1     -35.537   0.452 -12.975  1.00  0.00    -0.002 C 
ENDROOT
BRANCH   1   3
HETATM    3  C   UNL     1     -36.683   0.096 -10.759  1.00  0.00     0.186 C 
BRANCH   3   4
HETATM    4  C   UNL     1     -36.344  -1.205  -9.994  1.00  0.00     0.066 C 
BRANCH   4   5
HETATM    5  C   UNL     1     -35.400  -2.116 -10.722  1.00  0.00    -0.028 C 
HETATM    6  C   UNL     1     -34.067  -2.059 -10.586  1.00  0.00    -0.031 C 
BRANCH   6   7
HETATM    7  C   UNL     1     -33.135  -3.057 -11.210  1.00  0.00     0.027 C 
BRANCH   7   8
HETATM    8  C   UNL     1     -33.907  -4.220 -11.844  1.00  0.00     0.004 C 
BRANCH   8   9
HETATM    9  C   UNL     1     -33.585  -5.572 -11.194  1.00  0.00    -0.000 C 
BRANCH   9  10
HETATM   10  C   UNL     1     -34.652  -5.970 -10.177  1.00  0.00    -0.005 C 
HETATM   11  C   UNL     1     -34.737  -7.481 -10.032  1.00  0.00     0.005 C 
ENDBRANCH   9  10
ENDBRANCH   8   9
ENDBRANCH   7   8
ENDBRANCH   6   7
ENDBRANCH   4   5
ENDBRANCH   3   4
BRANCH   3  12
HETATM   12  O   UNL     1     -38.051   0.441 -10.484  1.00  0.00    -0.234 OA
BRANCH  12  13
HETATM   13  O   UNL     1     -38.011   1.588  -9.584  1.00  0.00    -0.250 OA
HETATM   14  H   UNL     1     -38.199   1.087  -8.771  1.00  0.00     0.253 HD
ENDBRANCH  12  13
ENDBRANCH   3  12
ENDBRANCH   1   3
BRANCH   2  15
HETATM   15  C   UNL     1     -35.428   0.332 -14.410  1.00  0.00    -0.004 C 
HETATM   16  C   UNL     1     -35.615  -0.821 -15.072  1.00  0.00    -0.023 C 
BRANCH  16  17
HETATM   17  C   UNL     1     -35.528  -0.968 -16.566  1.00  0.00     0.054 C 
BRANCH  17  18
HETATM   18  C   UNL     1     -34.734  -2.188 -16.947  1.00  0.00    -0.027 C 
HETATM   19  C   UNL     1     -34.424  -3.178 -16.090  1.00  0.00    -0.030 C 
BRANCH  19  20
HETATM   20  C   UNL     1     -33.661  -4.416 -16.472  1.00  0.00     0.027 C 
BRANCH  20  21
HETATM   21  C   UNL     1     -32.309  -4.085 -17.111  1.00  0.00     0.014 C 
BRANCH  21  22
HETATM   22  C   UNL     1     -31.146  -4.825 -16.447  1.00  0.00     0.110 C 
BRANCH  22  23
HETATM   23  C   UNL     1     -30.645  -5.972 -17.291  1.00  0.00     0.139 C 
HETATM   24  O   UNL     1     -29.629  -5.967 -17.966  1.00  0.00    -0.650 OA
BRANCH  23  25
HETATM   25  O   UNL     1     -31.463  -7.049 -17.220  1.00  0.00    -0.776 OA
HETATM   26  H   UNL     1     -32.048  -7.145 -17.995  1.00  0.00     0.167 HD
ENDBRANCH  23  25
ENDBRANCH  22  23
ENDBRANCH  21  22
ENDBRANCH  20  21
ENDBRANCH  19  20
ENDBRANCH  17  18
ENDBRANCH  16  17
ENDBRANCH   2  15
TORSDOF 17
ENDMDL
MODEL 8
REMARK VINA RESULT:      -6.7      3.002     10.874
REMARK  17 active torsions:
REMARK  status: ('A' for Active; 'I' for Inactive)
REMARK    1  A    between atoms: C_2  and  C_3 
REMARK    2  A    between atoms: C_3  and  C_4 
REMARK    3  A    between atoms: C_4  and  C_5 
REMARK    4  A    between atoms: C_5  and  C_6 
REMARK    5  A    between atoms: C_7  and  C_8 
REMARK    6  A    between atoms: C_8  and  C_9 
REMARK    7  A    between atoms: C_9  and  C_10 
REMARK    8  A    between atoms: C_9  and  O_23 
REMARK    9  A    between atoms: C_11  and  C_12 
REMARK   10  A    between atoms: C_13  and  C_14 
REMARK   11  A    between atoms: C_14  and  C_15 
REMARK   12  A    between atoms: C_16  and  C_17 
REMARK   13  A    between atoms: C_17  and  C_18 
REMARK   14  A    between atoms: C_18  and  C_19 
REMARK   15  A    between atoms: C_19  and  C_20 
REMARK   16  A    between atoms: C_20  and  O_22 
REMARK   17  A    between atoms: O_23  and  O_24 
ROOT
HETATM    1  C   UNL     1     -21.936  -5.808  -5.660  1.00  0.00     0.008 C 
HETATM    2  C   UNL     1     -20.969  -5.988  -4.746  1.00  0.00    -0.002 C 
ENDROOT
BRANCH   1   3
HETATM    3  C   UNL     1     -21.701  -5.194  -7.023  1.00  0.00     0.186 C 
BRANCH   3   4
HETATM    4  C   UNL     1     -20.229  -4.800  -7.286  1.00  0.00     0.066 C 
BRANCH   4   5
HETATM    5  C   UNL     1     -19.935  -4.443  -8.714  1.00  0.00    -0.028 C 
HETATM    6  C   UNL     1     -20.858  -4.474  -9.687  1.00  0.00    -0.031 C 
BRANCH   6   7
HETATM    7  C   UNL     1     -20.594  -3.988 -11.083  1.00  0.00     0.027 C 
BRANCH   7   8
HETATM    8  C   UNL     1     -21.614  -2.925 -11.506  1.00  0.00     0.004 C 
BRANCH   8   9
HETATM    9  C   UNL     1     -23.019  -3.502 -11.725  1.00  0.00    -0.000 C 
BRANCH   9  10
HETATM   10  C   UNL     1     -23.756  -2.764 -12.840  1.00  0.00    -0.005 C 
HETATM   11  C   UNL     1     -22.977  -2.819 -14.144  1.00  0.00     0.005 C 
ENDBRANCH   9  10
ENDBRANCH   8   9
ENDBRANCH   7   8
ENDBRANCH   6   7
ENDBRANCH   4   5
ENDBRANCH   3   4
BRANCH   3  12
HETATM   12  O   UNL     1     -22.507  -4.006  -7.078  1.00  0.00    -0.234 OA
BRANCH  12  13
HETATM   13  O   UNL     1     -23.868  -4.419  -6.756  1.00  0.00    -0.250 OA
HETATM   14  H   UNL     1     -23.670  -4.738  -5.858  1.00  0.00     0.253 HD
ENDBRANCH  12  13
ENDBRANCH   3  12
ENDBRANCH   1   3
BRANCH   2  15
HETATM   15  C   UNL     1     -21.195  -6.575  -3.445  1.00  0.00    -0.004 C 
HETATM   16  C   UNL     1     -22.060  -6.075  -2.548  1.00  0.00    -0.023 C 
BRANCH  16  17
HETATM   17  C   UNL     1     -22.328  -6.679  -1.197  1.00  0.00     0.054 C 
BRANCH  17  18
HETATM   18  C   UNL     1     -22.015  -8.150  -1.187  1.00  0.00    -0.027 C 
HETATM   19  C   UNL     1     -20.903  -8.676  -0.638  1.00  0.00    -0.030 C 
BRANCH  19  20
HETATM   20  C   UNL     1     -20.600 -10.148  -0.594  1.00  0.00     0.027 C 
BRANCH  20  21
HETATM   21  C   UNL     1     -20.293 -10.714  -1.983  1.00  0.00     0.014 C 
BRANCH  21  22
HETATM   22  C   UNL     1     -19.391  -9.795  -2.809  1.00  0.00     0.110 C 
BRANCH  22  23
HETATM   23  C   UNL     1     -17.965 -10.285  -2.854  1.00  0.00     0.139 C 
HETATM   24  O   UNL     1     -17.616 -11.437  -3.052  1.00  0.00    -0.650 OA
BRANCH  23  25
HETATM   25  O   UNL     1     -17.077  -9.284  -2.649  1.00  0.00    -0.776 OA
HETATM   26  H   UNL     1     -16.973  -8.692  -3.417  1.00  0.00     0.167 HD
ENDBRANCH  23  25
ENDBRANCH  22  23
ENDBRANCH  21  22
ENDBRANCH  20  21
ENDBRANCH  19  20
ENDBRANCH  17  18
ENDBRANCH  16  17
ENDBRANCH   2  15
TORSDOF 17
ENDMDL
MODEL 9
REMARK VINA RESULT:      -6.7     11.507     15.455
REMARK  17 active torsions:
REMARK  status: ('A' for Active; 'I' for Inactive)
REMARK    1  A    between atoms: C_2  and  C_3 
REMARK    2  A    between atoms: C_3  and  C_4 
REMARK    3  A    between atoms: C_4  and  C_5 
REMARK    4  A    between atoms: C_5  and  C_6 
REMARK    5  A    between atoms: C_7  and  C_8 
REMARK    6  A    between atoms: C_8  and  C_9 
REMARK    7  A    between atoms: C_9  and  C_10 
REMARK    8  A    between atoms: C_9  and  O_23 
REMARK    9  A    between atoms: C_11  and  C_12 
REMARK   10  A    between atoms: C_13  and  C_14 
REMARK   11  A    between atoms: C_14  and  C_15 
REMARK   12  A    between atoms: C_16  and  C_17 
REMARK   13  A    between atoms: C_17  and  C_18 
REMARK   14  A    between atoms: C_18  and  C_19 
REMARK   15  A    between atoms: C_19  and  C_20 
REMARK   16  A    between atoms: C_20  and  O_22 
REMARK   17  A    between atoms: O_23  and  O_24 
ROOT
HETATM    1  C   UNL     1     -35.419  -1.607 -16.155  1.00  0.00     0.008 C 
HETATM    2  C   UNL     1     -34.321  -2.086 -16.761  1.00  0.00    -0.002 C 
ENDROOT
BRANCH   1   3
HETATM    3  C   UNL     1     -35.743  -0.133 -16.042  1.00  0.00     0.186 C 
BRANCH   3   4
HETATM    4  C   UNL     1     -35.583   0.436 -14.614  1.00  0.00     0.066 C 
BRANCH   4   5
HETATM    5  C   UNL     1     -35.715  -0.590 -13.527  1.00  0.00    -0.028 C 
HETATM    6  C   UNL     1     -34.845  -0.709 -12.513  1.00  0.00    -0.031 C 
BRANCH   6   7
HETATM    7  C   UNL     1     -35.053  -1.645 -11.358  1.00  0.00     0.027 C 
BRANCH   7   8
HETATM    8  C   UNL     1     -33.717  -2.124 -10.780  1.00  0.00     0.004 C 
BRANCH   8   9
HETATM    9  C   UNL     1     -33.214  -3.416 -11.435  1.00  0.00    -0.000 C 
BRANCH   9  10
HETATM   10  C   UNL     1     -33.764  -4.651 -10.726  1.00  0.00    -0.005 C 
HETATM   11  C   UNL     1     -34.541  -5.537 -11.687  1.00  0.00     0.005 C 
ENDBRANCH   9  10
ENDBRANCH   8   9
ENDBRANCH   7   8
ENDBRANCH   6   7
ENDBRANCH   4   5
ENDBRANCH   3   4
BRANCH   3  12
HETATM   12  O   UNL     1     -37.117   0.013 -16.438  1.00  0.00    -0.234 OA
BRANCH  12  13
HETATM   13  O   UNL     1     -37.711  -1.317 -16.350  1.00  0.00    -0.250 OA
HETATM   14  H   UNL     1     -38.592  -1.018 -16.065  1.00  0.00     0.253 HD
ENDBRANCH  12  13
ENDBRANCH   3  12
ENDBRANCH   1   3
BRANCH   2  15
HETATM   15  C   UNL     1     -34.013  -3.493 -16.868  1.00  0.00    -0.004 C 
HETATM   16  C   UNL     1     -32.772  -3.990 -16.750  1.00  0.00    -0.023 C 
BRANCH  16  17
HETATM   17  C   UNL     1     -32.429  -5.451 -16.837  1.00  0.00     0.054 C 
BRANCH  17  18
HETATM   18  C   UNL     1     -31.032  -5.653 -17.358  1.00  0.00    -0.027 C 
HETATM   19  C   UNL     1     -30.181  -6.581 -16.882  1.00  0.00    -0.030 C 
BRANCH  19  20
HETATM   20  C   UNL     1     -28.797  -6.811 -17.421  1.00  0.00     0.027 C 
BRANCH  20  21
HETATM   21  C   UNL     1     -27.715  -6.463 -16.394  1.00  0.00     0.014 C 
BRANCH  21  22
HETATM   22  C   UNL     1     -26.324  -6.342 -17.021  1.00  0.00     0.110 C 
BRANCH  22  23
HETATM   23  C   UNL     1     -25.228  -6.707 -16.049  1.00  0.00     0.139 C 
HETATM   24  O   UNL     1     -24.703  -7.804 -15.949  1.00  0.00    -0.650 OA
BRANCH  23  25
HETATM   25  O   UNL     1     -24.868  -5.658 -15.272  1.00  0.00    -0.776 OA
HETATM   26  H   UNL     1     -24.390  -5.919 -14.463  1.00  0.00     0.167 HD
ENDBRANCH  23  25
ENDBRANCH  22  23
ENDBRANCH  21  22
ENDBRANCH  20  21
ENDBRANCH  19  20
ENDBRANCH  17  18
ENDBRANCH  16  17
ENDBRANCH   2  15
TORSDOF 17
ENDMDL
