REMARK  4 active torsions:
REMARK  status: ('A' for Active; 'I' for Inactive)
REMARK    1  A    between atoms: C_5  and  N_6 
REMARK       I    between atoms: N_6  and  C_7 
REMARK       I    between atoms: C_7  and  N_9 
REMARK    2  A    between atoms: N_9  and  C_10 
REMARK    3  A    between atoms: C_12  and  C_13 
REMARK    4  A    between atoms: C_12  and  C_15 
ROOT
HETATM    1  N   UNL     1       6.576   5.526   1.490  1.00  0.00    -0.308 N 
HETATM    2  C   UNL     1       5.541   5.083   0.718  1.00  0.00     0.321 C 
HETATM    3  O   UNL     1       5.540   4.100  -0.008  1.00  0.00    -0.247 OA
HETATM    4  N   UNL     1       4.456   5.903   0.723  1.00  0.00    -0.334 N 
HETATM    5  H   UNL     1       6.642   6.529   1.426  1.00  0.00     0.170 HD
HETATM    6  H   UNL     1       3.912   5.778  -0.122  1.00  0.00     0.165 HD
ENDROOT
BRANCH   4   7
HETATM    7  C   UNL     1       4.113   7.005   1.603  1.00  0.00     0.125 C 
HETATM    8  C   UNL     1       2.598   7.026   2.028  1.00  0.00     0.073 C 
HETATM    9  C   UNL     1       1.688   7.032   0.761  1.00  0.00     0.121 C 
HETATM   10  O   UNL     1       2.365   7.718  -0.333  1.00  0.00    -0.335 OA
HETATM   11  C   UNL     1       3.186   8.721   0.139  1.00  0.00     0.080 C 
HETATM   12  C   UNL     1       2.847  10.061   0.047  1.00  0.00     0.061 C 
HETATM   13  C   UNL     1       4.288   8.335   0.910  1.00  0.00    -0.002 C 
HETATM   14  C   UNL     1       3.700  11.005   0.625  1.00  0.00     0.036 C 
HETATM   15 CL   UNL     1       3.175  12.637   0.799  1.00  0.00    -0.084 Cl
HETATM   16  C   UNL     1       4.937  10.629   1.159  1.00  0.00     0.024 C 
HETATM   17  C   UNL     1       5.241   9.276   1.306  1.00  0.00     0.013 C 
BRANCH   9  18
HETATM   18  C   UNL     1       0.322   7.732   0.844  1.00  0.00     0.263 C 
HETATM   19  F   UNL     1      -0.302   7.573  -0.370  1.00  0.00    -0.252 F 
ENDBRANCH   9  18
BRANCH   9  20
HETATM   20  C   UNL     1       1.347   5.557   0.455  1.00  0.00     0.263 C 
HETATM   21  F   UNL     1       0.593   5.072   1.490  1.00  0.00    -0.252 F 
ENDBRANCH   9  20
ENDBRANCH   4   7
BRANCH   1  22
HETATM   22  C   UNL     1       7.828   4.874   1.562  1.00  0.00     0.047 A 
HETATM   23  C   UNL     1       8.013   3.544   2.036  1.00  0.00     0.004 A 
HETATM   24  C   UNL     1       6.980   2.630   2.367  1.00  0.00     0.039 A 
HETATM   25  C   UNL     1       9.339   3.108   2.232  1.00  0.00    -0.008 A 
HETATM   26  C   UNL     1       7.301   1.352   2.843  1.00  0.00     0.005 A 
HETATM   27  C   UNL     1       6.229   0.342   3.124  1.00  0.00     0.068 C 
HETATM   28  N   UNL     1       8.569   0.959   3.078  1.00  0.00    -0.369 N 
HETATM   29  C   UNL     1       9.547   1.838   2.772  1.00  0.00     0.100 A 
ATOM     30  HN  UNL     1       8.780   0.041   3.469  1.00  0.00     0.165 HD
HETATM   31  C   UNL     1      10.431   3.941   1.927  1.00  0.00     0.014 A 
HETATM   32  C   UNL     1      10.226   5.215   1.414  1.00  0.00     0.003 A 
HETATM   33  C   UNL     1       8.931   5.684   1.251  1.00  0.00     0.030 A 
ENDBRANCH   1  22
TORSDOF 4
