MODEL 1
REMARK VINA RESULT:      -8.2      0.000      0.000
REMARK  4 active torsions:
REMARK  status: ('A' for Active; 'I' for Inactive)
REMARK    1  A    between atoms: C_5  and  N_6 
REMARK       I    between atoms: N_6  and  C_7 
REMARK       I    between atoms: C_7  and  N_9 
REMARK    2  A    between atoms: N_9  and  C_10 
REMARK    3  A    between atoms: C_12  and  C_13 
REMARK    4  A    between atoms: C_12  and  C_15 
ROOT
HETATM    1  N   UNL     1     -19.514 -10.153  -1.404  1.00  0.00    -0.308 N 
HETATM    2  C   UNL     1     -19.671 -11.238  -2.218  1.00  0.00     0.321 C 
HETATM    3  O   UNL     1     -20.708 -11.609  -2.748  1.00  0.00    -0.247 OA
HETATM    4  N   UNL     1     -18.553 -12.000  -2.348  1.00  0.00    -0.334 N 
HETATM    5  H   UNL     1     -18.917 -10.395  -0.629  1.00  0.00     0.170 HD
HETATM    6  H   UNL     1     -18.797 -12.952  -2.594  1.00  0.00     0.165 HD
ENDROOT
BRANCH   4   7
HETATM    7  C   UNL     1     -17.174 -11.716  -1.996  1.00  0.00     0.125 C 
HETATM    8  C   UNL     1     -16.474 -10.691  -2.963  1.00  0.00     0.073 C 
HETATM    9  C   UNL     1     -16.572 -11.194  -4.436  1.00  0.00     0.121 C 
HETATM   10  O   UNL     1     -16.582 -12.652  -4.463  1.00  0.00    -0.335 OA
HETATM   11  C   UNL     1     -15.841 -13.175  -3.425  1.00  0.00     0.080 C 
HETATM   12  C   UNL     1     -14.583 -13.723  -3.615  1.00  0.00     0.061 C 
HETATM   13  C   UNL     1     -16.309 -12.947  -2.126  1.00  0.00    -0.002 C 
HETATM   14  C   UNL     1     -13.868 -14.156  -2.495  1.00  0.00     0.036 C 
HETATM   15 CL   UNL     1     -12.200 -14.559  -2.649  1.00  0.00    -0.084 Cl
HETATM   16  C   UNL     1     -14.456 -14.172  -1.225  1.00  0.00     0.024 C 
HETATM   17  C   UNL     1     -15.694 -13.560  -1.032  1.00  0.00     0.013 C 
BRANCH   9  18
HETATM   18  C   UNL     1     -15.448 -10.817  -5.415  1.00  0.00     0.263 C 
HETATM   19  F   UNL     1     -15.200  -9.473  -5.267  1.00  0.00    -0.252 F 
ENDBRANCH   9  18
BRANCH   9  20
HETATM   20  C   UNL     1     -17.839 -10.551  -5.040  1.00  0.00     0.263 C 
HETATM   21  F   UNL     1     -18.000  -9.315  -4.472  1.00  0.00    -0.252 F 
ENDBRANCH   9  20
ENDBRANCH   4   7
BRANCH   1  22
HETATM   22  C   UNL     1     -20.568  -9.276  -1.063  1.00  0.00     0.047 A 
HETATM   23  C   UNL     1     -21.012  -8.200  -1.882  1.00  0.00     0.004 A 
HETATM   24  C   UNL     1     -20.577  -7.930  -3.205  1.00  0.00     0.039 A 
HETATM   25  C   UNL     1     -21.937  -7.298  -1.317  1.00  0.00    -0.008 A 
HETATM   26  C   UNL     1     -21.082  -6.821  -3.897  1.00  0.00     0.005 A 
HETATM   27  C   UNL     1     -20.697  -6.560  -5.322  1.00  0.00     0.068 C 
HETATM   28  N   UNL     1     -21.926  -5.933  -3.333  1.00  0.00    -0.369 N 
HETATM   29  C   UNL     1     -22.327  -6.189  -2.070  1.00  0.00     0.100 A 
ATOM     30  HN  UNL     1     -22.246  -5.106  -3.837  1.00  0.00     0.165 HD
HETATM   31  C   UNL     1     -22.431  -7.485  -0.014  1.00  0.00     0.014 A 
HETATM   32  C   UNL     1     -22.024  -8.574   0.747  1.00  0.00     0.003 A 
HETATM   33  C   UNL     1     -21.084  -9.453   0.230  1.00  0.00     0.030 A 
ENDBRANCH   1  22
TORSDOF 4
ENDMDL
MODEL 2
REMARK VINA RESULT:      -8.2      2.821      3.849
REMARK  4 active torsions:
REMARK  status: ('A' for Active; 'I' for Inactive)
REMARK    1  A    between atoms: C_5  and  N_6 
REMARK       I    between atoms: N_6  and  C_7 
REMARK       I    between atoms: C_7  and  N_9 
REMARK    2  A    between atoms: N_9  and  C_10 
REMARK    3  A    between atoms: C_12  and  C_13 
REMARK    4  A    between atoms: C_12  and  C_15 
ROOT
HETATM    1  N   UNL     1     -19.579 -10.469  -2.695  1.00  0.00    -0.308 N 
HETATM    2  C   UNL     1     -18.305 -10.090  -3.004  1.00  0.00     0.321 C 
HETATM    3  O   UNL     1     -17.722  -9.092  -2.605  1.00  0.00    -0.247 OA
HETATM    4  N   UNL     1     -17.697 -10.887  -3.924  1.00  0.00    -0.334 N 
HETATM    5  H   UNL     1     -20.042 -10.810  -3.522  1.00  0.00     0.170 HD
HETATM    6  H   UNL     1     -16.970 -10.378  -4.411  1.00  0.00     0.165 HD
ENDROOT
BRANCH   4   7
HETATM    7  C   UNL     1     -18.064 -12.201  -4.418  1.00  0.00     0.125 C 
HETATM    8  C   UNL     1     -16.933 -13.281  -4.242  1.00  0.00     0.073 C 
HETATM    9  C   UNL     1     -15.615 -12.788  -4.916  1.00  0.00     0.121 C 
HETATM   10  O   UNL     1     -15.929 -11.937  -6.057  1.00  0.00    -0.335 OA
HETATM   11  C   UNL     1     -17.108 -12.324  -6.659  1.00  0.00     0.080 C 
HETATM   12  C   UNL     1     -17.136 -13.015  -7.859  1.00  0.00     0.061 C 
HETATM   13  C   UNL     1     -18.283 -12.183  -5.912  1.00  0.00    -0.002 C 
HETATM   14  C   UNL     1     -18.371 -13.440  -8.355  1.00  0.00     0.036 C 
HETATM   15 CL   UNL     1     -18.427 -14.551  -9.671  1.00  0.00    -0.084 Cl
HETATM   16  C   UNL     1     -19.567 -13.059  -7.737  1.00  0.00     0.024 C 
HETATM   17  C   UNL     1     -19.529 -12.421  -6.498  1.00  0.00     0.013 C 
BRANCH   9  18
HETATM   18  C   UNL     1     -14.652 -13.838  -5.495  1.00  0.00     0.263 C 
HETATM   19  F   UNL     1     -13.898 -13.222  -6.465  1.00  0.00    -0.252 F 
ENDBRANCH   9  18
BRANCH   9  20
HETATM   20  C   UNL     1     -14.795 -12.078  -3.817  1.00  0.00     0.263 C 
HETATM   21  F   UNL     1     -13.685 -12.838  -3.557  1.00  0.00    -0.252 F 
ENDBRANCH   9  20
ENDBRANCH   4   7
BRANCH   1  22
HETATM   22  C   UNL     1     -20.421  -9.735  -1.829  1.00  0.00     0.047 A 
HETATM   23  C   UNL     1     -21.059  -8.511  -2.179  1.00  0.00     0.004 A 
HETATM   24  C   UNL     1     -21.070  -7.921  -3.468  1.00  0.00     0.039 A 
HETATM   25  C   UNL     1     -21.705  -7.802  -1.146  1.00  0.00    -0.008 A 
HETATM   26  C   UNL     1     -21.723  -6.698  -3.674  1.00  0.00     0.005 A 
HETATM   27  C   UNL     1     -21.816  -6.093  -5.043  1.00  0.00     0.068 C 
HETATM   28  N   UNL     1     -22.293  -5.999  -2.672  1.00  0.00    -0.369 N 
HETATM   29  C   UNL     1     -22.268  -6.561  -1.444  1.00  0.00     0.100 A 
ATOM     30  HN  UNL     1     -22.722  -5.087  -2.833  1.00  0.00     0.165 HD
HETATM   31  C   UNL     1     -21.752  -8.310   0.166  1.00  0.00     0.014 A 
HETATM   32  C   UNL     1     -21.169  -9.533   0.471  1.00  0.00     0.003 A 
HETATM   33  C   UNL     1     -20.492 -10.231  -0.518  1.00  0.00     0.030 A 
ENDBRANCH   1  22
TORSDOF 4
ENDMDL
MODEL 3
REMARK VINA RESULT:      -7.9      2.691      4.046
REMARK  4 active torsions:
REMARK  status: ('A' for Active; 'I' for Inactive)
REMARK    1  A    between atoms: C_5  and  N_6 
REMARK       I    between atoms: N_6  and  C_7 
REMARK       I    between atoms: C_7  and  N_9 
REMARK    2  A    between atoms: N_9  and  C_10 
REMARK    3  A    between atoms: C_12  and  C_13 
REMARK    4  A    between atoms: C_12  and  C_15 
ROOT
HETATM    1  N   UNL     1     -20.195  -9.207  -4.190  1.00  0.00    -0.308 N 
HETATM    2  C   UNL     1     -20.855 -10.322  -4.619  1.00  0.00     0.321 C 
HETATM    3  O   UNL     1     -21.992 -10.658  -4.319  1.00  0.00    -0.247 OA
HETATM    4  N   UNL     1     -20.098 -11.156  -5.381  1.00  0.00    -0.334 N 
HETATM    5  H   UNL     1     -19.240  -9.442  -3.970  1.00  0.00     0.170 HD
HETATM    6  H   UNL     1     -20.454 -12.103  -5.334  1.00  0.00     0.165 HD
ENDROOT
BRANCH   4   7
HETATM    7  C   UNL     1     -18.819 -10.936  -6.031  1.00  0.00     0.125 C 
HETATM    8  C   UNL     1     -18.580 -11.858  -7.283  1.00  0.00     0.073 C 
HETATM    9  C   UNL     1     -18.740 -13.357  -6.881  1.00  0.00     0.121 C 
HETATM   10  O   UNL     1     -18.345 -13.542  -5.490  1.00  0.00    -0.335 OA
HETATM   11  C   UNL     1     -17.347 -12.660  -5.133  1.00  0.00     0.080 C 
HETATM   12  C   UNL     1     -16.026 -13.053  -4.992  1.00  0.00     0.061 C 
HETATM   13  C   UNL     1     -17.672 -11.299  -5.119  1.00  0.00    -0.002 C 
HETATM   14  C   UNL     1     -15.067 -12.076  -4.708  1.00  0.00     0.036 C 
HETATM   15 CL   UNL     1     -13.392 -12.465  -4.823  1.00  0.00    -0.084 Cl
HETATM   16  C   UNL     1     -15.441 -10.757  -4.429  1.00  0.00     0.024 C 
HETATM   17  C   UNL     1     -16.761 -10.357  -4.636  1.00  0.00     0.013 C 
BRANCH   9  18
HETATM   18  C   UNL     1     -17.918 -14.410  -7.640  1.00  0.00     0.263 C 
HETATM   19  F   UNL     1     -17.793 -13.984  -8.941  1.00  0.00    -0.252 F 
ENDBRANCH   9  18
BRANCH   9  20
HETATM   20  C   UNL     1     -20.210 -13.736  -7.167  1.00  0.00     0.263 C 
HETATM   21  F   UNL     1     -20.579 -13.146  -8.346  1.00  0.00    -0.252 F 
ENDBRANCH   9  20
ENDBRANCH   4   7
BRANCH   1  22
HETATM   22  C   UNL     1     -20.764  -8.252  -3.318  1.00  0.00     0.047 A 
HETATM   23  C   UNL     1     -21.024  -8.482  -1.937  1.00  0.00     0.004 A 
HETATM   24  C   UNL     1     -20.629  -9.626  -1.198  1.00  0.00     0.039 A 
HETATM   25  C   UNL     1     -21.773  -7.505  -1.251  1.00  0.00    -0.008 A 
HETATM   26  C   UNL     1     -20.967  -9.736   0.157  1.00  0.00     0.005 A 
HETATM   27  C   UNL     1     -20.493 -10.898   0.979  1.00  0.00     0.068 C 
HETATM   28  N   UNL     1     -21.729  -8.825   0.795  1.00  0.00    -0.369 N 
HETATM   29  C   UNL     1     -22.111  -7.744   0.082  1.00  0.00     0.100 A 
ATOM     30  HN  UNL     1     -22.003  -8.946   1.770  1.00  0.00     0.165 HD
HETATM   31  C   UNL     1     -22.206  -6.333  -1.897  1.00  0.00     0.014 A 
HETATM   32  C   UNL     1     -21.893  -6.106  -3.231  1.00  0.00     0.003 A 
HETATM   33  C   UNL     1     -21.193  -7.070  -3.941  1.00  0.00     0.030 A 
ENDBRANCH   1  22
TORSDOF 4
ENDMDL
MODEL 4
REMARK VINA RESULT:      -7.8      2.862      4.509
REMARK  4 active torsions:
REMARK  status: ('A' for Active; 'I' for Inactive)
REMARK    1  A    between atoms: C_5  and  N_6 
REMARK       I    between atoms: N_6  and  C_7 
REMARK       I    between atoms: C_7  and  N_9 
REMARK    2  A    between atoms: N_9  and  C_10 
REMARK    3  A    between atoms: C_12  and  C_13 
REMARK    4  A    between atoms: C_12  and  C_15 
ROOT
HETATM    1  N   UNL     1     -19.301  -9.697  -3.902  1.00  0.00    -0.308 N 
HETATM    2  C   UNL     1     -18.064  -9.912  -3.367  1.00  0.00     0.321 C 
HETATM    3  O   UNL     1     -17.391  -9.110  -2.737  1.00  0.00    -0.247 OA
HETATM    4  N   UNL     1     -17.533 -11.127  -3.670  1.00  0.00    -0.334 N 
HETATM    5  H   UNL     1     -19.349 -10.107  -4.821  1.00  0.00     0.170 HD
HETATM    6  H   UNL     1     -16.522 -11.095  -3.620  1.00  0.00     0.165 HD
ENDROOT
BRANCH   4   7
HETATM    7  C   UNL     1     -18.156 -12.314  -4.226  1.00  0.00     0.125 C 
HETATM    8  C   UNL     1     -17.368 -13.642  -3.920  1.00  0.00     0.073 C 
HETATM    9  C   UNL     1     -15.894 -13.515  -4.412  1.00  0.00     0.121 C 
HETATM   10  O   UNL     1     -15.833 -12.634  -5.573  1.00  0.00    -0.335 OA
HETATM   11  C   UNL     1     -16.985 -12.721  -6.326  1.00  0.00     0.080 C 
HETATM   12  C   UNL     1     -17.034 -13.406  -7.529  1.00  0.00     0.061 C 
HETATM   13  C   UNL     1     -18.171 -12.271  -5.735  1.00  0.00    -0.002 C 
HETATM   14  C   UNL     1     -18.264 -13.512  -8.185  1.00  0.00     0.036 C 
HETATM   15 CL   UNL     1     -18.432 -14.598  -9.513  1.00  0.00    -0.084 Cl
HETATM   16  C   UNL     1     -19.391 -12.827  -7.721  1.00  0.00     0.024 C 
HETATM   17  C   UNL     1     -19.350 -12.196  -6.479  1.00  0.00     0.013 C 
BRANCH   9  18
HETATM   18  C   UNL     1     -15.164 -14.785  -4.877  1.00  0.00     0.263 C 
HETATM   19  F   UNL     1     -14.079 -14.394  -5.623  1.00  0.00    -0.252 F 
ENDBRANCH   9  18
BRANCH   9  20
HETATM   20  C   UNL     1     -15.067 -13.015  -3.207  1.00  0.00     0.263 C 
HETATM   21  F   UNL     1     -14.519 -11.805  -3.541  1.00  0.00    -0.252 F 
ENDBRANCH   9  20
ENDBRANCH   4   7
BRANCH   1  22
HETATM   22  C   UNL     1     -19.999  -8.474  -3.783  1.00  0.00     0.047 A 
HETATM   23  C   UNL     1     -20.687  -8.053  -2.610  1.00  0.00     0.004 A 
HETATM   24  C   UNL     1     -20.662  -8.711  -1.353  1.00  0.00     0.039 A 
HETATM   25  C   UNL     1     -21.497  -6.904  -2.714  1.00  0.00    -0.008 A 
HETATM   26  C   UNL     1     -21.404  -8.200  -0.280  1.00  0.00     0.005 A 
HETATM   27  C   UNL     1     -21.331  -8.832   1.078  1.00  0.00     0.068 C 
HETATM   28  N   UNL     1     -22.217  -7.132  -0.399  1.00  0.00    -0.369 N 
HETATM   29  C   UNL     1     -22.245  -6.517  -1.601  1.00  0.00     0.100 A 
ATOM     30  HN  UNL     1     -22.785  -6.803   0.381  1.00  0.00     0.165 HD
HETATM   31  C   UNL     1     -21.581  -6.181  -3.917  1.00  0.00     0.014 A 
HETATM   32  C   UNL     1     -20.857  -6.579  -5.033  1.00  0.00     0.003 A 
HETATM   33  C   UNL     1     -20.086  -7.730  -4.970  1.00  0.00     0.030 A 
ENDBRANCH   1  22
TORSDOF 4
ENDMDL
MODEL 5
REMARK VINA RESULT:      -7.7      2.250      2.662
REMARK  4 active torsions:
REMARK  status: ('A' for Active; 'I' for Inactive)
REMARK    1  A    between atoms: C_5  and  N_6 
REMARK       I    between atoms: N_6  and  C_7 
REMARK       I    between atoms: C_7  and  N_9 
REMARK    2  A    between atoms: N_9  and  C_10 
REMARK    3  A    between atoms: C_12  and  C_13 
REMARK    4  A    between atoms: C_12  and  C_15 
ROOT
HETATM    1  N   UNL     1     -19.648 -10.429  -2.454  1.00  0.00    -0.308 N 
HETATM    2  C   UNL     1     -19.847 -11.738  -2.787  1.00  0.00     0.321 C 
HETATM    3  O   UNL     1     -20.747 -12.463  -2.391  1.00  0.00    -0.247 OA
HETATM    4  N   UNL     1     -18.867 -12.265  -3.569  1.00  0.00    -0.334 N 
HETATM    5  H   UNL     1     -18.668 -10.264  -2.295  1.00  0.00     0.170 HD
HETATM    6  H   UNL     1     -18.826 -13.270  -3.457  1.00  0.00     0.165 HD
ENDROOT
BRANCH   4   7
HETATM    7  C   UNL     1     -17.809 -11.613  -4.319  1.00  0.00     0.125 C 
HETATM    8  C   UNL     1     -18.176 -11.344  -5.825  1.00  0.00     0.073 C 
HETATM    9  C   UNL     1     -18.600 -12.676  -6.518  1.00  0.00     0.121 C 
HETATM   10  O   UNL     1     -17.894 -13.798  -5.911  1.00  0.00    -0.335 OA
HETATM   11  C   UNL     1     -16.643 -13.420  -5.469  1.00  0.00     0.080 C 
HETATM   12  C   UNL     1     -15.484 -13.762  -6.147  1.00  0.00     0.061 C 
HETATM   13  C   UNL     1     -16.587 -12.495  -4.421  1.00  0.00    -0.002 C 
HETATM   14  C   UNL     1     -14.265 -13.267  -5.674  1.00  0.00     0.036 C 
HETATM   15 CL   UNL     1     -12.849 -13.413  -6.645  1.00  0.00    -0.084 Cl
HETATM   16  C   UNL     1     -14.192 -12.563  -4.467  1.00  0.00     0.024 C 
HETATM   17  C   UNL     1     -15.366 -12.169  -3.827  1.00  0.00     0.013 C 
BRANCH   9  18
HETATM   18  C   UNL     1     -18.324 -12.839  -8.021  1.00  0.00     0.263 C 
HETATM   19  F   UNL     1     -18.939 -13.997  -8.434  1.00  0.00    -0.252 F 
ENDBRANCH   9  18
BRANCH   9  20
HETATM   20  C   UNL     1     -20.137 -12.768  -6.396  1.00  0.00     0.263 C 
HETATM   21  F   UNL     1     -20.682 -11.730  -7.103  1.00  0.00    -0.252 F 
ENDBRANCH   9  20
ENDBRANCH   4   7
BRANCH   1  22
HETATM   22  C   UNL     1     -20.497  -9.710  -1.581  1.00  0.00     0.047 A 
HETATM   23  C   UNL     1     -21.137  -8.483  -1.916  1.00  0.00     0.004 A 
HETATM   24  C   UNL     1     -21.142  -7.872  -3.196  1.00  0.00     0.039 A 
HETATM   25  C   UNL     1     -21.789  -7.791  -0.875  1.00  0.00    -0.008 A 
HETATM   26  C   UNL     1     -21.796  -6.648  -3.386  1.00  0.00     0.005 A 
HETATM   27  C   UNL     1     -21.884  -6.023  -4.746  1.00  0.00     0.068 C 
HETATM   28  N   UNL     1     -22.374  -5.966  -2.376  1.00  0.00    -0.369 N 
HETATM   29  C   UNL     1     -22.354  -6.547  -1.158  1.00  0.00     0.100 A 
ATOM     30  HN  UNL     1     -22.804  -5.053  -2.526  1.00  0.00     0.165 HD
HETATM   31  C   UNL     1     -21.842  -8.319   0.428  1.00  0.00     0.014 A 
HETATM   32  C   UNL     1     -21.258  -9.545   0.717  1.00  0.00     0.003 A 
HETATM   33  C   UNL     1     -20.573 -10.226  -0.278  1.00  0.00     0.030 A 
ENDBRANCH   1  22
TORSDOF 4
ENDMDL
MODEL 6
REMARK VINA RESULT:      -7.7      3.616      7.893
REMARK  4 active torsions:
REMARK  status: ('A' for Active; 'I' for Inactive)
REMARK    1  A    between atoms: C_5  and  N_6 
REMARK       I    between atoms: N_6  and  C_7 
REMARK       I    between atoms: C_7  and  N_9 
REMARK    2  A    between atoms: N_9  and  C_10 
REMARK    3  A    between atoms: C_12  and  C_13 
REMARK    4  A    between atoms: C_12  and  C_15 
ROOT
HETATM    1  N   UNL     1     -17.434 -10.857  -1.893  1.00  0.00    -0.308 N 
HETATM    2  C   UNL     1     -18.734 -11.270  -1.945  1.00  0.00     0.321 C 
HETATM    3  O   UNL     1     -19.166 -12.367  -1.624  1.00  0.00    -0.247 OA
HETATM    4  N   UNL     1     -19.581 -10.362  -2.501  1.00  0.00    -0.334 N 
HETATM    5  H   UNL     1     -17.211 -10.331  -2.722  1.00  0.00     0.170 HD
HETATM    6  H   UNL     1     -20.396 -10.825  -2.884  1.00  0.00     0.165 HD
ENDROOT
BRANCH   4   7
HETATM    7  C   UNL     1     -19.391  -8.953  -2.794  1.00  0.00     0.125 C 
HETATM    8  C   UNL     1     -19.968  -7.995  -1.687  1.00  0.00     0.073 C 
HETATM    9  C   UNL     1     -21.477  -8.306  -1.445  1.00  0.00     0.121 C 
HETATM   10  O   UNL     1     -22.088  -8.792  -2.677  1.00  0.00    -0.335 OA
HETATM   11  C   UNL     1     -21.496  -8.222  -3.785  1.00  0.00     0.080 C 
HETATM   12  C   UNL     1     -22.107  -7.219  -4.518  1.00  0.00     0.061 C 
HETATM   13  C   UNL     1     -20.156  -8.542  -4.029  1.00  0.00    -0.002 C 
HETATM   14  C   UNL     1     -21.400  -6.642  -5.577  1.00  0.00     0.036 C 
HETATM   15 CL   UNL     1     -21.993  -5.203  -6.316  1.00  0.00    -0.084 Cl
HETATM   16  C   UNL     1     -20.164  -7.155  -5.984  1.00  0.00     0.024 C 
HETATM   17  C   UNL     1     -19.528  -8.119  -5.203  1.00  0.00     0.013 C 
BRANCH   9  18
HETATM   18  C   UNL     1     -22.400  -7.159  -1.005  1.00  0.00     0.263 C 
HETATM   19  F   UNL     1     -21.876  -5.989  -1.500  1.00  0.00    -0.252 F 
ENDBRANCH   9  18
BRANCH   9  20
HETATM   20  C   UNL     1     -21.538  -9.318  -0.279  1.00  0.00     0.263 C 
HETATM   21  F   UNL     1     -21.345  -8.631   0.890  1.00  0.00    -0.252 F 
ENDBRANCH   9  20
ENDBRANCH   4   7
BRANCH   1  22
HETATM   22  C   UNL     1     -16.376 -11.674  -1.433  1.00  0.00     0.047 A 
HETATM   23  C   UNL     1     -15.390 -12.259  -2.277  1.00  0.00     0.004 A 
HETATM   24  C   UNL     1     -15.228 -12.005  -3.663  1.00  0.00     0.039 A 
HETATM   25  C   UNL     1     -14.522 -13.205  -1.695  1.00  0.00    -0.008 A 
HETATM   26  C   UNL     1     -14.225 -12.666  -4.384  1.00  0.00     0.005 A 
HETATM   27  C   UNL     1     -13.983 -12.355  -5.831  1.00  0.00     0.068 C 
HETATM   28  N   UNL     1     -13.432 -13.608  -3.834  1.00  0.00    -0.369 N 
HETATM   29  C   UNL     1     -13.599 -13.854  -2.517  1.00  0.00     0.100 A 
ATOM     30  HN  UNL     1     -12.738 -14.111  -4.387  1.00  0.00     0.165 HD
HETATM   31  C   UNL     1     -14.602 -13.520  -0.326  1.00  0.00     0.014 A 
HETATM   32  C   UNL     1     -15.537 -12.895   0.489  1.00  0.00     0.003 A 
HETATM   33  C   UNL     1     -16.430 -11.992  -0.067  1.00  0.00     0.030 A 
ENDBRANCH   1  22
TORSDOF 4
ENDMDL
MODEL 7
REMARK VINA RESULT:      -7.7      2.020      3.241
REMARK  4 active torsions:
REMARK  status: ('A' for Active; 'I' for Inactive)
REMARK    1  A    between atoms: C_5  and  N_6 
REMARK       I    between atoms: N_6  and  C_7 
REMARK       I    between atoms: C_7  and  N_9 
REMARK    2  A    between atoms: N_9  and  C_10 
REMARK    3  A    between atoms: C_12  and  C_13 
REMARK    4  A    between atoms: C_12  and  C_15 
ROOT
HETATM    1  N   UNL     1     -19.614  -9.577  -1.678  1.00  0.00    -0.308 N 
HETATM    2  C   UNL     1     -19.529  -9.673  -3.037  1.00  0.00     0.321 C 
HETATM    3  O   UNL     1     -20.443  -9.542  -3.837  1.00  0.00    -0.247 OA
HETATM    4  N   UNL     1     -18.301 -10.042  -3.491  1.00  0.00    -0.334 N 
HETATM    5  H   UNL     1     -19.064 -10.305  -1.252  1.00  0.00     0.170 HD
HETATM    6  H   UNL     1     -18.375 -10.483  -4.399  1.00  0.00     0.165 HD
ENDROOT
BRANCH   4   7
HETATM    7  C   UNL     1     -17.020 -10.085  -2.809  1.00  0.00     0.125 C 
HETATM    8  C   UNL     1     -15.787  -9.898  -3.770  1.00  0.00     0.073 C 
HETATM    9  C   UNL     1     -15.836 -10.957  -4.914  1.00  0.00     0.121 C 
HETATM   10  O   UNL     1     -16.475 -12.177  -4.434  1.00  0.00    -0.335 OA
HETATM   11  C   UNL     1     -16.228 -12.375  -3.092  1.00  0.00     0.080 C 
HETATM   12  C   UNL     1     -15.322 -13.318  -2.636  1.00  0.00     0.061 C 
HETATM   13  C   UNL     1     -16.769 -11.443  -2.199  1.00  0.00    -0.002 C 
HETATM   14  C   UNL     1     -15.074 -13.394  -1.262  1.00  0.00     0.036 C 
HETATM   15 CL   UNL     1     -13.748 -14.331  -0.685  1.00  0.00    -0.084 Cl
HETATM   16  C   UNL     1     -15.821 -12.640  -0.351  1.00  0.00     0.024 C 
HETATM   17  C   UNL     1     -16.683 -11.649  -0.820  1.00  0.00     0.013 C 
BRANCH   9  18
HETATM   18  C   UNL     1     -14.509 -11.449  -5.513  1.00  0.00     0.263 C 
HETATM   19  F   UNL     1     -14.739 -11.768  -6.830  1.00  0.00    -0.252 F 
ENDBRANCH   9  18
BRANCH   9  20
HETATM   20  C   UNL     1     -16.571 -10.294  -6.099  1.00  0.00     0.263 C 
HETATM   21  F   UNL     1     -15.921  -9.128  -6.403  1.00  0.00    -0.252 F 
ENDBRANCH   9  20
ENDBRANCH   4   7
BRANCH   1  22
HETATM   22  C   UNL     1     -20.816  -9.291  -0.992  1.00  0.00     0.047 A 
HETATM   23  C   UNL     1     -21.809 -10.262  -0.677  1.00  0.00     0.004 A 
HETATM   24  C   UNL     1     -21.689 -11.663  -0.866  1.00  0.00     0.039 A 
HETATM   25  C   UNL     1     -23.035  -9.789  -0.168  1.00  0.00    -0.008 A 
HETATM   26  C   UNL     1     -22.754 -12.509  -0.530  1.00  0.00     0.005 A 
HETATM   27  C   UNL     1     -22.623 -13.998  -0.647  1.00  0.00     0.068 C 
HETATM   28  N   UNL     1     -23.943 -12.046  -0.094  1.00  0.00    -0.369 N 
HETATM   29  C   UNL     1     -24.054 -10.711   0.073  1.00  0.00     0.100 A 
ATOM     30  HN  UNL     1     -24.722 -12.675   0.101  1.00  0.00     0.165 HD
HETATM   31  C   UNL     1     -23.246  -8.416   0.060  1.00  0.00     0.014 A 
HETATM   32  C   UNL     1     -22.243  -7.494  -0.204  1.00  0.00     0.003 A 
HETATM   33  C   UNL     1     -21.042  -7.929  -0.745  1.00  0.00     0.030 A 
ENDBRANCH   1  22
TORSDOF 4
ENDMDL
MODEL 8
REMARK VINA RESULT:      -7.6     20.043     21.274
REMARK  4 active torsions:
REMARK  status: ('A' for Active; 'I' for Inactive)
REMARK    1  A    between atoms: C_5  and  N_6 
REMARK       I    between atoms: N_6  and  C_7 
REMARK       I    between atoms: C_7  and  N_9 
REMARK    2  A    between atoms: N_9  and  C_10 
REMARK    3  A    between atoms: C_12  and  C_13 
REMARK    4  A    between atoms: C_12  and  C_15 
ROOT
HETATM    1  N   UNL     1     -22.070   8.956   1.483  1.00  0.00    -0.308 N 
HETATM    2  C   UNL     1     -21.544  10.190   1.732  1.00  0.00     0.321 C 
HETATM    3  O   UNL     1     -22.076  11.269   1.515  1.00  0.00    -0.247 OA
HETATM    4  N   UNL     1     -20.260  10.164   2.182  1.00  0.00    -0.334 N 
HETATM    5  H   UNL     1     -21.361   8.356   1.093  1.00  0.00     0.170 HD
HETATM    6  H   UNL     1     -19.791  11.036   1.970  1.00  0.00     0.165 HD
ENDROOT
BRANCH   4   7
HETATM    7  C   UNL     1     -19.464   9.063   2.692  1.00  0.00     0.125 C 
HETATM    8  C   UNL     1     -19.844   8.634   4.158  1.00  0.00     0.073 C 
HETATM    9  C   UNL     1     -19.756   9.864   5.114  1.00  0.00     0.121 C 
HETATM   10  O   UNL     1     -18.730  10.786   4.642  1.00  0.00    -0.335 OA
HETATM   11  C   UNL     1     -17.704  10.112   4.014  1.00  0.00     0.080 C 
HETATM   12  C   UNL     1     -16.473   9.908   4.616  1.00  0.00     0.061 C 
HETATM   13  C   UNL     1     -18.010   9.451   2.820  1.00  0.00    -0.002 C 
HETATM   14  C   UNL     1     -15.519   9.144   3.939  1.00  0.00     0.036 C 
HETATM   15 CL   UNL     1     -14.104   8.615   4.768  1.00  0.00    -0.084 Cl
HETATM   16  C   UNL     1     -15.738   8.712   2.627  1.00  0.00     0.024 C 
HETATM   17  C   UNL     1     -17.000   8.865   2.053  1.00  0.00     0.013 C 
BRANCH   9  18
HETATM   18  C   UNL     1     -19.384   9.622   6.585  1.00  0.00     0.263 C 
HETATM   19  F   UNL     1     -20.288   8.724   7.101  1.00  0.00    -0.252 F 
ENDBRANCH   9  18
BRANCH   9  20
HETATM   20  C   UNL     1     -21.170  10.482   5.170  1.00  0.00     0.263 C 
HETATM   21  F   UNL     1     -22.080   9.482   4.950  1.00  0.00    -0.252 F 
ENDBRANCH   9  20
ENDBRANCH   4   7
BRANCH   1  22
HETATM   22  C   UNL     1     -23.356   8.755   0.930  1.00  0.00     0.047 A 
HETATM   23  C   UNL     1     -24.574   9.053   1.604  1.00  0.00     0.004 A 
HETATM   24  C   UNL     1     -24.690   9.719   2.851  1.00  0.00     0.039 A 
HETATM   25  C   UNL     1     -25.769   8.614   1.000  1.00  0.00    -0.008 A 
HETATM   26  C   UNL     1     -25.955   9.933   3.415  1.00  0.00     0.005 A 
HETATM   27  C   UNL     1     -26.109  10.704   4.692  1.00  0.00     0.068 C 
HETATM   28  N   UNL     1     -27.090   9.465   2.859  1.00  0.00    -0.369 N 
HETATM   29  C   UNL     1     -26.971   8.822   1.678  1.00  0.00     0.100 A 
ATOM     30  HN  UNL     1     -27.997   9.591   3.309  1.00  0.00     0.165 HD
HETATM   31  C   UNL     1     -25.756   7.950  -0.240  1.00  0.00     0.014 A 
HETATM   32  C   UNL     1     -24.559   7.719  -0.905  1.00  0.00     0.003 A 
HETATM   33  C   UNL     1     -23.365   8.103  -0.313  1.00  0.00     0.030 A 
ENDBRANCH   1  22
TORSDOF 4
ENDMDL
MODEL 9
REMARK VINA RESULT:      -7.5      1.796      3.068
REMARK  4 active torsions:
REMARK  status: ('A' for Active; 'I' for Inactive)
REMARK    1  A    between atoms: C_5  and  N_6 
REMARK       I    between atoms: N_6  and  C_7 
REMARK       I    between atoms: C_7  and  N_9 
REMARK    2  A    between atoms: N_9  and  C_10 
REMARK    3  A    between atoms: C_12  and  C_13 
REMARK    4  A    between atoms: C_12  and  C_15 
ROOT
HETATM    1  N   UNL     1     -18.518  -9.626  -2.907  1.00  0.00    -0.308 N 
HETATM    2  C   UNL     1     -18.624 -10.949  -3.226  1.00  0.00     0.321 C 
HETATM    3  O   UNL     1     -19.511 -11.473  -3.884  1.00  0.00    -0.247 OA
HETATM    4  N   UNL     1     -17.672 -11.735  -2.655  1.00  0.00    -0.334 N 
HETATM    5  H   UNL     1     -18.227  -9.531  -1.948  1.00  0.00     0.170 HD
HETATM    6  H   UNL     1     -18.001 -12.689  -2.571  1.00  0.00     0.165 HD
ENDROOT
BRANCH   4   7
HETATM    7  C   UNL     1     -16.427 -11.378  -1.998  1.00  0.00     0.125 C 
HETATM    8  C   UNL     1     -15.210 -11.239  -2.986  1.00  0.00     0.073 C 
HETATM    9  C   UNL     1     -15.039 -12.551  -3.811  1.00  0.00     0.121 C 
HETATM   10  O   UNL     1     -15.481 -13.695  -3.022  1.00  0.00    -0.335 OA
HETATM   11  C   UNL     1     -15.253 -13.491  -1.677  1.00  0.00     0.080 C 
HETATM   12  C   UNL     1     -14.218 -14.113  -0.998  1.00  0.00     0.061 C 
HETATM   13  C   UNL     1     -15.974 -12.466  -1.055  1.00  0.00    -0.002 C 
HETATM   14  C   UNL     1     -14.010 -13.785   0.344  1.00  0.00     0.036 C 
HETATM   15 CL   UNL     1     -12.567 -14.298   1.135  1.00  0.00    -0.084 Cl
HETATM   16  C   UNL     1     -14.905 -12.960   1.033  1.00  0.00     0.024 C 
HETATM   17  C   UNL     1     -15.904 -12.289   0.329  1.00  0.00     0.013 C 
BRANCH   9  18
HETATM   18  C   UNL     1     -13.627 -12.947  -4.273  1.00  0.00     0.263 C 
HETATM   19  F   UNL     1     -13.291 -12.132  -5.328  1.00  0.00    -0.252 F 
ENDBRANCH   9  18
BRANCH   9  20
HETATM   20  C   UNL     1     -15.833 -12.355  -5.122  1.00  0.00     0.263 C 
HETATM   21  F   UNL     1     -16.708 -13.401  -5.248  1.00  0.00    -0.252 F 
ENDBRANCH   9  20
ENDBRANCH   4   7
BRANCH   1  22
HETATM   22  C   UNL     1     -19.451  -8.648  -3.321  1.00  0.00     0.047 A 
HETATM   23  C   UNL     1     -20.457  -8.094  -2.481  1.00  0.00     0.004 A 
HETATM   24  C   UNL     1     -20.591  -8.319  -1.087  1.00  0.00     0.039 A 
HETATM   25  C   UNL     1     -21.432  -7.280  -3.092  1.00  0.00    -0.008 A 
HETATM   26  C   UNL     1     -21.643  -7.725  -0.378  1.00  0.00     0.005 A 
HETATM   27  C   UNL     1     -21.759  -7.884   1.108  1.00  0.00     0.068 C 
HETATM   28  N   UNL     1     -22.602  -6.990  -0.977  1.00  0.00    -0.369 N 
HETATM   29  C   UNL     1     -22.476  -6.789  -2.306  1.00  0.00     0.100 A 
ATOM     30  HN  UNL     1     -23.386  -6.604  -0.452  1.00  0.00     0.165 HD
HETATM   31  C   UNL     1     -21.381  -6.994  -4.469  1.00  0.00     0.014 A 
HETATM   32  C   UNL     1     -20.358  -7.502  -5.258  1.00  0.00     0.003 A 
HETATM   33  C   UNL     1     -19.410  -8.340  -4.690  1.00  0.00     0.030 A 
ENDBRANCH   1  22
TORSDOF 4
ENDMDL
