REMARK  6 active torsions:
REMARK  status: ('A' for Active; 'I' for Inactive)
REMARK    1  A    between atoms: N_1  and  C_2 
REMARK    2  A    between atoms: C_2  and  C_3 
REMARK    3  A    between atoms: C_3  and  O_4 
REMARK    4  A    between atoms: O_4  and  B_5 
REMARK    5  A    between atoms: B_5  and  C_6 
REMARK    6  A    between atoms: B_5  and  C_12 
ROOT
HETATM    1  B   UNL     1       4.873   2.754  -0.795  1.00  0.00     0.402 B 
ENDROOT
BRANCH   1   2
HETATM    2  O   UNL     1       4.343   1.440  -0.371  1.00  0.00    -0.442 OA
BRANCH   2   3
HETATM    3  C   UNL     1       3.610   0.852  -1.427  1.00  0.00     0.173 C 
BRANCH   3   4
HETATM    4  C   UNL     1       3.188  -0.567  -1.048  1.00  0.00     0.290 C 
BRANCH   4   5
HETATM    5  N   UNL     1       4.348  -1.435  -0.866  1.00  0.00     0.080 N 
HETATM    6  H   UNL     1       4.012  -2.402  -0.664  1.00  0.00     0.312 HD
HETATM    7  H   UNL     1       4.894  -1.110  -0.035  1.00  0.00     0.312 HD
ENDBRANCH   4   5
ENDBRANCH   3   4
ENDBRANCH   2   3
ENDBRANCH   1   2
BRANCH   1   8
HETATM    8  C   UNL     1       3.901   3.985  -1.059  1.00  0.00    -0.060 A 
HETATM    9  C   UNL     1       2.624   4.054  -0.479  1.00  0.00    -0.002 A 
HETATM   10  C   UNL     1       1.790   5.150  -0.748  1.00  0.00    -0.000 A 
HETATM   11  C   UNL     1       2.213   6.161  -1.612  1.00  0.00     0.000 A 
HETATM   12  C   UNL     1       3.469   6.088  -2.209  1.00  0.00    -0.000 A 
HETATM   13  C   UNL     1       4.307   5.011  -1.935  1.00  0.00    -0.002 A 
ENDBRANCH   1   8
BRANCH   1  14
HETATM   14  C   UNL     1       6.436   2.950  -0.983  1.00  0.00    -0.060 A 
HETATM   15  C   UNL     1       7.261   1.899  -1.423  1.00  0.00    -0.002 A 
HETATM   16  C   UNL     1       8.634   2.120  -1.612  1.00  0.00    -0.000 A 
HETATM   17  C   UNL     1       9.191   3.374  -1.330  1.00  0.00     0.000 A 
HETATM   18  C   UNL     1       8.384   4.410  -0.862  1.00  0.00    -0.000 A 
HETATM   19  C   UNL     1       7.016   4.201  -0.694  1.00  0.00    -0.002 A 
ENDBRANCH   1  14
TORSDOF 6
