REMARK  8 active torsions:
REMARK  status: ('A' for Active; 'I' for Inactive)
REMARK    1  A    between atoms: C_2  and  C_5 
REMARK    2  A    between atoms: C_8  and  C_9 
REMARK    3  A    between atoms: C_9  and  N_10 
REMARK    4  A    between atoms: N_10  and  C_11 
REMARK    5  A    between atoms: N_13  and  C_14 
REMARK    6  A    between atoms: C_14  and  C_15 
REMARK    7  A    between atoms: C_18  and  N_19 
REMARK    8  A    between atoms: N_19  and  S_20 
ROOT
HETATM    1  C   UNL     1       3.825   7.099   3.041  1.00  0.00     0.168 C 
HETATM    2  S   UNL     1       4.379   8.448   2.237  1.00  0.00    -0.041 SA
HETATM    3  N   UNL     1       3.551   7.181   4.361  1.00  0.00    -0.363 N 
HETATM    4  H   UNL     1       3.779   8.087   4.752  1.00  0.00     0.162 HD
ENDROOT
BRANCH   3   5
HETATM    5  C   UNL     1       2.576   6.424   5.124  1.00  0.00     0.160 C 
BRANCH   5   6
HETATM    6  C   UNL     1       1.212   7.051   5.092  1.00  0.00    -0.037 A 
HETATM    7  C   UNL     1       0.737   7.753   6.211  1.00  0.00     0.011 A 
HETATM    8  C   UNL     1      -0.581   8.203   6.254  1.00  0.00     0.034 A 
HETATM    9  C   UNL     1      -1.438   7.934   5.186  1.00  0.00     0.081 A 
HETATM   10  C   UNL     1      -0.945   7.310   4.043  1.00  0.00     0.144 A 
HETATM   11  F   UNL     1      -1.762   7.086   3.003  1.00  0.00    -0.204 F 
HETATM   12  C   UNL     1       0.371   6.875   3.983  1.00  0.00     0.053 A 
BRANCH   9  13
HETATM   13  N   UNL     1      -2.819   8.276   5.290  1.00  0.00    -0.282 N 
HETATM   14  H   UNL     1      -3.476   7.562   4.971  1.00  0.00     0.178 HD
BRANCH  13  15
HETATM   15  S   UNL     1      -3.310   9.826   4.893  1.00  0.00     0.227 S 
HETATM   16  C   UNL     1      -2.928   9.962   3.159  1.00  0.00     0.186 C 
HETATM   17  O   UNL     1      -4.753   9.821   5.020  1.00  0.00    -0.206 OA
HETATM   18  O   UNL     1      -2.497  10.773   5.626  1.00  0.00    -0.206 OA
ENDBRANCH  13  15
ENDBRANCH   9  13
ENDBRANCH   5   6
ENDBRANCH   3   5
BRANCH   1  19
HETATM   19  N   UNL     1       3.666   5.941   2.368  1.00  0.00    -0.363 N 
HETATM   20  H   UNL     1       3.823   6.007   1.368  1.00  0.00     0.162 HD
BRANCH  19  21
HETATM   21  C   UNL     1       3.763   4.620   2.947  1.00  0.00     0.160 C 
BRANCH  21  22
HETATM   22  C   UNL     1       4.698   3.685   2.248  1.00  0.00    -0.041 A 
HETATM   23  C   UNL     1       5.874   4.115   1.636  1.00  0.00     0.009 A 
HETATM   24  C   UNL     1       6.769   3.185   1.104  1.00  0.00     0.008 A 
HETATM   25  C   UNL     1       6.535   1.799   1.198  1.00  0.00    -0.051 A 
HETATM   26  C   UNL     1       5.353   1.387   1.833  1.00  0.00     0.008 A 
HETATM   27  C   UNL     1       4.453   2.314   2.357  1.00  0.00     0.009 A 
BRANCH  25  28
HETATM   28  C   UNL     1       7.495   0.778   0.577  1.00  0.00    -0.024 C 
HETATM   29  C   UNL     1       8.950   1.293   0.520  1.00  0.00     0.019 C 
HETATM   30  C   UNL     1       7.006   0.496  -0.856  1.00  0.00     0.019 C 
HETATM   31  C   UNL     1       7.533  -0.555   1.359  1.00  0.00     0.019 C 
ENDBRANCH  25  28
ENDBRANCH  21  22
ENDBRANCH  19  21
ENDBRANCH   1  19
TORSDOF 8
