MODEL 1
REMARK VINA RESULT:      -8.1      0.000      0.000
REMARK  8 active torsions:
REMARK  status: ('A' for Active; 'I' for Inactive)
REMARK    1  A    between atoms: C_2  and  C_5 
REMARK    2  A    between atoms: C_8  and  C_9 
REMARK    3  A    between atoms: C_9  and  N_10 
REMARK    4  A    between atoms: N_10  and  C_11 
REMARK    5  A    between atoms: N_13  and  C_14 
REMARK    6  A    between atoms: C_14  and  C_15 
REMARK    7  A    between atoms: C_18  and  N_19 
REMARK    8  A    between atoms: N_19  and  S_20 
ROOT
HETATM    1  C   UNL     1     -21.595  -6.559  -3.972  1.00  0.00     0.168 C 
HETATM    2  S   UNL     1     -21.866  -6.227  -2.362  1.00  0.00    -0.041 SA
HETATM    3  N   UNL     1     -21.025  -5.618  -4.755  1.00  0.00    -0.363 N 
HETATM    4  H   UNL     1     -20.869  -4.745  -4.266  1.00  0.00     0.162 HD
ENDROOT
BRANCH   3   5
HETATM    5  C   UNL     1     -20.190  -5.811  -5.926  1.00  0.00     0.160 C 
BRANCH   5   6
HETATM    6  C   UNL     1     -20.683  -5.037  -7.114  1.00  0.00    -0.037 A 
HETATM    7  C   UNL     1     -21.800  -4.195  -6.988  1.00  0.00     0.011 A 
HETATM    8  C   UNL     1     -22.362  -3.595  -8.113  1.00  0.00     0.034 A 
HETATM    9  C   UNL     1     -21.823  -3.852  -9.375  1.00  0.00     0.081 A 
HETATM   10  C   UNL     1     -20.668  -4.620  -9.491  1.00  0.00     0.144 A 
HETATM   11  F   UNL     1     -20.130  -4.835 -10.701  1.00  0.00    -0.204 F 
HETATM   12  C   UNL     1     -20.089  -5.206  -8.374  1.00  0.00     0.053 A 
BRANCH   9  13
HETATM   13  N   UNL     1     -22.481  -3.347 -10.536  1.00  0.00    -0.282 N 
HETATM   14  H   UNL     1     -22.539  -2.330 -10.603  1.00  0.00     0.178 HD
BRANCH  13  15
HETATM   15  S   UNL     1     -23.865  -4.109 -11.088  1.00  0.00     0.227 S 
HETATM   16  C   UNL     1     -24.067  -5.483  -9.974  1.00  0.00     0.186 C 
HETATM   17  O   UNL     1     -24.947  -3.180 -10.833  1.00  0.00    -0.206 OA
HETATM   18  O   UNL     1     -23.614  -4.620 -12.419  1.00  0.00    -0.206 OA
ENDBRANCH  13  15
ENDBRANCH   9  13
ENDBRANCH   5   6
ENDBRANCH   3   5
BRANCH   1  19
HETATM   19  N   UNL     1     -21.955  -7.758  -4.474  1.00  0.00    -0.363 N 
HETATM   20  H   UNL     1     -22.111  -7.768  -5.476  1.00  0.00     0.162 HD
BRANCH  19  21
HETATM   21  C   UNL     1     -21.689  -9.036  -3.854  1.00  0.00     0.160 C 
BRANCH  21  22
HETATM   22  C   UNL     1     -20.314  -9.580  -4.077  1.00  0.00    -0.041 A 
HETATM   23  C   UNL     1     -19.961 -10.286  -5.226  1.00  0.00     0.009 A 
HETATM   24  C   UNL     1     -18.634 -10.665  -5.437  1.00  0.00     0.008 A 
HETATM   25  C   UNL     1     -17.615 -10.320  -4.527  1.00  0.00    -0.051 A 
HETATM   26  C   UNL     1     -17.989  -9.594  -3.386  1.00  0.00     0.008 A 
HETATM   27  C   UNL     1     -19.315  -9.222  -3.168  1.00  0.00     0.009 A 
BRANCH  25  28
HETATM   28  C   UNL     1     -16.165 -10.771  -4.736  1.00  0.00    -0.024 C 
HETATM   29  C   UNL     1     -16.060 -12.032  -5.623  1.00  0.00     0.019 C 
HETATM   30  C   UNL     1     -15.574 -11.084  -3.348  1.00  0.00     0.019 C 
HETATM   31  C   UNL     1     -15.296  -9.687  -5.412  1.00  0.00     0.019 C 
ENDBRANCH  25  28
ENDBRANCH  21  22
ENDBRANCH  19  21
ENDBRANCH   1  19
TORSDOF 8
ENDMDL
MODEL 2
REMARK VINA RESULT:      -7.9      1.787      2.857
REMARK  8 active torsions:
REMARK  status: ('A' for Active; 'I' for Inactive)
REMARK    1  A    between atoms: C_2  and  C_5 
REMARK    2  A    between atoms: C_8  and  C_9 
REMARK    3  A    between atoms: C_9  and  N_10 
REMARK    4  A    between atoms: N_10  and  C_11 
REMARK    5  A    between atoms: N_13  and  C_14 
REMARK    6  A    between atoms: C_14  and  C_15 
REMARK    7  A    between atoms: C_18  and  N_19 
REMARK    8  A    between atoms: N_19  and  S_20 
ROOT
HETATM    1  C   UNL     1     -20.422  -8.419  -3.198  1.00  0.00     0.168 C 
HETATM    2  S   UNL     1     -21.226  -8.187  -1.758  1.00  0.00    -0.041 SA
HETATM    3  N   UNL     1     -20.848  -7.773  -4.305  1.00  0.00    -0.363 N 
HETATM    4  H   UNL     1     -21.690  -7.234  -4.143  1.00  0.00     0.162 HD
ENDROOT
BRANCH   3   5
HETATM    5  C   UNL     1     -20.066  -7.340  -5.448  1.00  0.00     0.160 C 
BRANCH   5   6
HETATM    6  C   UNL     1     -20.672  -6.152  -6.139  1.00  0.00    -0.037 A 
HETATM    7  C   UNL     1     -22.034  -5.860  -5.967  1.00  0.00     0.011 A 
HETATM    8  C   UNL     1     -22.642  -4.859  -6.722  1.00  0.00     0.034 A 
HETATM    9  C   UNL     1     -21.894  -4.159  -7.670  1.00  0.00     0.081 A 
HETATM   10  C   UNL     1     -20.526  -4.393  -7.783  1.00  0.00     0.144 A 
HETATM   11  F   UNL     1     -19.803  -3.692  -8.670  1.00  0.00    -0.204 F 
HETATM   12  C   UNL     1     -19.908  -5.374  -7.022  1.00  0.00     0.053 A 
BRANCH   9  13
HETATM   13  N   UNL     1     -22.548  -3.231  -8.534  1.00  0.00    -0.282 N 
HETATM   14  H   UNL     1     -23.205  -2.593  -8.082  1.00  0.00     0.178 HD
BRANCH  13  15
HETATM   15  S   UNL     1     -23.082  -3.747 -10.034  1.00  0.00     0.227 S 
HETATM   16  C   UNL     1     -21.752  -3.308 -11.134  1.00  0.00     0.186 C 
HETATM   17  O   UNL     1     -23.121  -5.193  -9.957  1.00  0.00    -0.206 OA
HETATM   18  O   UNL     1     -24.258  -2.985 -10.396  1.00  0.00    -0.206 OA
ENDBRANCH  13  15
ENDBRANCH   9  13
ENDBRANCH   5   6
ENDBRANCH   3   5
BRANCH   1  19
HETATM   19  N   UNL     1     -19.364  -9.253  -3.243  1.00  0.00    -0.363 N 
HETATM   20  H   UNL     1     -19.379  -9.916  -4.011  1.00  0.00     0.162 HD
BRANCH  19  21
HETATM   21  C   UNL     1     -18.075  -8.999  -2.641  1.00  0.00     0.160 C 
BRANCH  21  22
HETATM   22  C   UNL     1     -16.989  -9.949  -3.034  1.00  0.00    -0.041 A 
HETATM   23  C   UNL     1     -16.486 -10.917  -2.167  1.00  0.00     0.009 A 
HETATM   24  C   UNL     1     -15.559 -11.856  -2.624  1.00  0.00     0.008 A 
HETATM   25  C   UNL     1     -15.134 -11.879  -3.967  1.00  0.00    -0.051 A 
HETATM   26  C   UNL     1     -15.665 -10.906  -4.827  1.00  0.00     0.008 A 
HETATM   27  C   UNL     1     -16.584  -9.961  -4.371  1.00  0.00     0.009 A 
BRANCH  25  28
HETATM   28  C   UNL     1     -14.084 -12.881  -4.460  1.00  0.00    -0.024 C 
HETATM   29  C   UNL     1     -13.373 -12.407  -5.746  1.00  0.00     0.019 C 
HETATM   30  C   UNL     1     -14.812 -14.207  -4.749  1.00  0.00     0.019 C 
HETATM   31  C   UNL     1     -12.974 -13.142  -3.417  1.00  0.00     0.019 C 
ENDBRANCH  25  28
ENDBRANCH  21  22
ENDBRANCH  19  21
ENDBRANCH   1  19
TORSDOF 8
ENDMDL
MODEL 3
REMARK VINA RESULT:      -7.9      3.806      5.709
REMARK  8 active torsions:
REMARK  status: ('A' for Active; 'I' for Inactive)
REMARK    1  A    between atoms: C_2  and  C_5 
REMARK    2  A    between atoms: C_8  and  C_9 
REMARK    3  A    between atoms: C_9  and  N_10 
REMARK    4  A    between atoms: N_10  and  C_11 
REMARK    5  A    between atoms: N_13  and  C_14 
REMARK    6  A    between atoms: C_14  and  C_15 
REMARK    7  A    between atoms: C_18  and  N_19 
REMARK    8  A    between atoms: N_19  and  S_20 
ROOT
HETATM    1  C   UNL     1     -21.821 -11.558   0.026  1.00  0.00     0.168 C 
HETATM    2  S   UNL     1     -22.579 -13.041   0.040  1.00  0.00    -0.041 SA
HETATM    3  N   UNL     1     -22.549 -10.445  -0.212  1.00  0.00    -0.363 N 
HETATM    4  H   UNL     1     -23.518 -10.649  -0.424  1.00  0.00     0.162 HD
ENDROOT
BRANCH   3   5
HETATM    5  C   UNL     1     -22.309  -9.097   0.268  1.00  0.00     0.160 C 
BRANCH   5   6
HETATM    6  C   UNL     1     -21.827  -8.180  -0.820  1.00  0.00    -0.037 A 
HETATM    7  C   UNL     1     -22.394  -6.903  -0.962  1.00  0.00     0.011 A 
HETATM    8  C   UNL     1     -22.069  -6.106  -2.058  1.00  0.00     0.034 A 
HETATM    9  C   UNL     1     -21.192  -6.590  -3.029  1.00  0.00     0.081 A 
HETATM   10  C   UNL     1     -20.568  -7.822  -2.847  1.00  0.00     0.144 A 
HETATM   11  F   UNL     1     -19.698  -8.268  -3.764  1.00  0.00    -0.204 F 
HETATM   12  C   UNL     1     -20.870  -8.615  -1.749  1.00  0.00     0.053 A 
BRANCH   9  13
HETATM   13  N   UNL     1     -20.968  -5.830  -4.215  1.00  0.00    -0.282 N 
HETATM   14  H   UNL     1     -20.817  -4.829  -4.076  1.00  0.00     0.178 HD
BRANCH  13  15
HETATM   15  S   UNL     1     -21.874  -6.160  -5.583  1.00  0.00     0.227 S 
HETATM   16  C   UNL     1     -21.567  -4.763  -6.644  1.00  0.00     0.186 C 
HETATM   17  O   UNL     1     -21.248  -7.314  -6.194  1.00  0.00    -0.206 OA
HETATM   18  O   UNL     1     -23.275  -6.172  -5.220  1.00  0.00    -0.206 OA
ENDBRANCH  13  15
ENDBRANCH   9  13
ENDBRANCH   5   6
ENDBRANCH   3   5
BRANCH   1  19
HETATM   19  N   UNL     1     -20.492 -11.487   0.242  1.00  0.00    -0.363 N 
HETATM   20  H   UNL     1     -20.228 -11.050   1.118  1.00  0.00     0.162 HD
BRANCH  19  21
HETATM   21  C   UNL     1     -19.501 -12.340  -0.375  1.00  0.00     0.160 C 
BRANCH  21  22
HETATM   22  C   UNL     1     -18.855 -11.782  -1.603  1.00  0.00    -0.041 A 
HETATM   23  C   UNL     1     -17.599 -11.178  -1.585  1.00  0.00     0.009 A 
HETATM   24  C   UNL     1     -16.993 -10.783  -2.779  1.00  0.00     0.008 A 
HETATM   25  C   UNL     1     -17.605 -11.011  -4.027  1.00  0.00    -0.051 A 
HETATM   26  C   UNL     1     -18.862 -11.635  -4.024  1.00  0.00     0.008 A 
HETATM   27  C   UNL     1     -19.474 -12.022  -2.832  1.00  0.00     0.009 A 
BRANCH  25  28
HETATM   28  C   UNL     1     -16.961 -10.540  -5.336  1.00  0.00    -0.024 C 
HETATM   29  C   UNL     1     -15.624  -9.802  -5.105  1.00  0.00     0.019 C 
HETATM   30  C   UNL     1     -17.953  -9.580  -6.020  1.00  0.00     0.019 C 
HETATM   31  C   UNL     1     -16.655 -11.708  -6.302  1.00  0.00     0.019 C 
ENDBRANCH  25  28
ENDBRANCH  21  22
ENDBRANCH  19  21
ENDBRANCH   1  19
TORSDOF 8
ENDMDL
MODEL 4
REMARK VINA RESULT:      -7.8      4.825      7.273
REMARK  8 active torsions:
REMARK  status: ('A' for Active; 'I' for Inactive)
REMARK    1  A    between atoms: C_2  and  C_5 
REMARK    2  A    between atoms: C_8  and  C_9 
REMARK    3  A    between atoms: C_9  and  N_10 
REMARK    4  A    between atoms: N_10  and  C_11 
REMARK    5  A    between atoms: N_13  and  C_14 
REMARK    6  A    between atoms: C_14  and  C_15 
REMARK    7  A    between atoms: C_18  and  N_19 
REMARK    8  A    between atoms: N_19  and  S_20 
ROOT
HETATM    1  C   UNL     1     -21.987 -14.450  -2.980  1.00  0.00     0.168 C 
HETATM    2  S   UNL     1     -23.252 -14.992  -3.918  1.00  0.00    -0.041 SA
HETATM    3  N   UNL     1     -21.036 -13.669  -3.538  1.00  0.00    -0.363 N 
HETATM    4  H   UNL     1     -21.171 -13.539  -4.533  1.00  0.00     0.162 HD
ENDROOT
BRANCH   3   5
HETATM    5  C   UNL     1     -20.227 -12.647  -2.901  1.00  0.00     0.160 C 
BRANCH   5   6
HETATM    6  C   UNL     1     -20.436 -11.290  -3.509  1.00  0.00    -0.037 A 
HETATM    7  C   UNL     1     -21.720 -10.723  -3.534  1.00  0.00     0.011 A 
HETATM    8  C   UNL     1     -21.956  -9.541  -4.232  1.00  0.00     0.034 A 
HETATM    9  C   UNL     1     -20.912  -8.930  -4.928  1.00  0.00     0.081 A 
HETATM   10  C   UNL     1     -19.623  -9.447  -4.837  1.00  0.00     0.144 A 
HETATM   11  F   UNL     1     -18.615  -8.836  -5.477  1.00  0.00    -0.204 F 
HETATM   12  C   UNL     1     -19.374 -10.614  -4.129  1.00  0.00     0.053 A 
BRANCH   9  13
HETATM   13  N   UNL     1     -21.185  -7.797  -5.751  1.00  0.00    -0.282 N 
HETATM   14  H   UNL     1     -20.601  -7.704  -6.583  1.00  0.00     0.178 HD
BRANCH  13  15
HETATM   15  S   UNL     1     -21.517  -6.323  -5.030  1.00  0.00     0.227 S 
HETATM   16  C   UNL     1     -20.593  -5.155  -6.007  1.00  0.00     0.186 C 
HETATM   17  O   UNL     1     -22.923  -6.078  -5.276  1.00  0.00    -0.206 OA
HETATM   18  O   UNL     1     -20.982  -6.333  -3.685  1.00  0.00    -0.206 OA
ENDBRANCH  13  15
ENDBRANCH   9  13
ENDBRANCH   5   6
ENDBRANCH   3   5
BRANCH   1  19
HETATM   19  N   UNL     1     -21.922 -14.803  -1.680  1.00  0.00    -0.363 N 
HETATM   20  H   UNL     1     -21.021 -15.162  -1.382  1.00  0.00     0.162 HD
BRANCH  19  21
HETATM   21  C   UNL     1     -22.791 -14.307  -0.637  1.00  0.00     0.160 C 
BRANCH  21  22
HETATM   22  C   UNL     1     -22.585 -12.873  -0.264  1.00  0.00    -0.041 A 
HETATM   23  C   UNL     1     -21.406 -12.409   0.317  1.00  0.00     0.009 A 
HETATM   24  C   UNL     1     -21.221 -11.042   0.533  1.00  0.00     0.008 A 
HETATM   25  C   UNL     1     -22.190 -10.096   0.144  1.00  0.00    -0.051 A 
HETATM   26  C   UNL     1     -23.362 -10.584  -0.454  1.00  0.00     0.008 A 
HETATM   27  C   UNL     1     -23.554 -11.949  -0.663  1.00  0.00     0.009 A 
BRANCH  25  28
HETATM   28  C   UNL     1     -22.007  -8.599   0.419  1.00  0.00    -0.024 C 
HETATM   29  C   UNL     1     -21.398  -7.847  -0.784  1.00  0.00     0.019 C 
HETATM   30  C   UNL     1     -21.061  -8.463   1.627  1.00  0.00     0.019 C 
HETATM   31  C   UNL     1     -23.339  -7.888   0.751  1.00  0.00     0.019 C 
ENDBRANCH  25  28
ENDBRANCH  21  22
ENDBRANCH  19  21
ENDBRANCH   1  19
TORSDOF 8
ENDMDL
MODEL 5
REMARK VINA RESULT:      -7.7      3.137      4.399
REMARK  8 active torsions:
REMARK  status: ('A' for Active; 'I' for Inactive)
REMARK    1  A    between atoms: C_2  and  C_5 
REMARK    2  A    between atoms: C_8  and  C_9 
REMARK    3  A    between atoms: C_9  and  N_10 
REMARK    4  A    between atoms: N_10  and  C_11 
REMARK    5  A    between atoms: N_13  and  C_14 
REMARK    6  A    between atoms: C_14  and  C_15 
REMARK    7  A    between atoms: C_18  and  N_19 
REMARK    8  A    between atoms: N_19  and  S_20 
ROOT
HETATM    1  C   UNL     1     -21.415  -7.094  -3.180  1.00  0.00     0.168 C 
HETATM    2  S   UNL     1     -22.152  -6.267  -1.937  1.00  0.00    -0.041 SA
HETATM    3  N   UNL     1     -21.622  -6.696  -4.454  1.00  0.00    -0.363 N 
HETATM    4  H   UNL     1     -22.285  -5.933  -4.523  1.00  0.00     0.162 HD
ENDROOT
BRANCH   3   5
HETATM    5  C   UNL     1     -20.728  -6.821  -5.590  1.00  0.00     0.160 C 
BRANCH   5   6
HETATM    6  C   UNL     1     -21.007  -5.797  -6.653  1.00  0.00    -0.037 A 
HETATM    7  C   UNL     1     -22.122  -4.953  -6.538  1.00  0.00     0.011 A 
HETATM    8  C   UNL     1     -22.480  -4.110  -7.588  1.00  0.00     0.034 A 
HETATM    9  C   UNL     1     -21.736  -4.123  -8.769  1.00  0.00     0.081 A 
HETATM   10  C   UNL     1     -20.583  -4.899  -8.852  1.00  0.00     0.144 A 
HETATM   11  F   UNL     1     -19.849  -4.881  -9.974  1.00  0.00    -0.204 F 
HETATM   12  C   UNL     1     -20.208  -5.728  -7.804  1.00  0.00     0.053 A 
BRANCH   9  13
HETATM   13  N   UNL     1     -22.183  -3.361  -9.889  1.00  0.00    -0.282 N 
HETATM   14  H   UNL     1     -22.279  -2.357  -9.730  1.00  0.00     0.178 HD
BRANCH  13  15
HETATM   15  S   UNL     1     -23.393  -3.977 -10.867  1.00  0.00     0.227 S 
HETATM   16  C   UNL     1     -23.966  -5.412  -9.982  1.00  0.00     0.186 C 
HETATM   17  O   UNL     1     -24.457  -2.995 -10.835  1.00  0.00    -0.206 OA
HETATM   18  O   UNL     1     -22.806  -4.405 -12.119  1.00  0.00    -0.206 OA
ENDBRANCH  13  15
ENDBRANCH   9  13
ENDBRANCH   5   6
ENDBRANCH   3   5
BRANCH   1  19
HETATM   19  N   UNL     1     -20.629  -8.154  -2.901  1.00  0.00    -0.363 N 
HETATM   20  H   UNL     1     -20.040  -8.459  -3.669  1.00  0.00     0.162 HD
BRANCH  19  21
HETATM   21  C   UNL     1     -20.218  -8.561  -1.577  1.00  0.00     0.160 C 
BRANCH  21  22
HETATM   22  C   UNL     1     -20.883  -9.796  -1.055  1.00  0.00    -0.041 A 
HETATM   23  C   UNL     1     -22.043  -9.757  -0.283  1.00  0.00     0.009 A 
HETATM   24  C   UNL     1     -22.687 -10.942   0.075  1.00  0.00     0.008 A 
HETATM   25  C   UNL     1     -22.215 -12.198  -0.356  1.00  0.00    -0.051 A 
HETATM   26  C   UNL     1     -21.056 -12.213  -1.146  1.00  0.00     0.008 A 
HETATM   27  C   UNL     1     -20.405 -11.031  -1.498  1.00  0.00     0.009 A 
BRANCH  25  28
HETATM   28  C   UNL     1     -22.897 -13.502   0.072  1.00  0.00    -0.024 C 
HETATM   29  C   UNL     1     -21.948 -14.718  -0.005  1.00  0.00     0.019 C 
HETATM   30  C   UNL     1     -24.088 -13.734  -0.878  1.00  0.00     0.019 C 
HETATM   31  C   UNL     1     -23.425 -13.450   1.524  1.00  0.00     0.019 C 
ENDBRANCH  25  28
ENDBRANCH  21  22
ENDBRANCH  19  21
ENDBRANCH   1  19
TORSDOF 8
ENDMDL
MODEL 6
REMARK VINA RESULT:      -7.7      3.842      5.104
REMARK  8 active torsions:
REMARK  status: ('A' for Active; 'I' for Inactive)
REMARK    1  A    between atoms: C_2  and  C_5 
REMARK    2  A    between atoms: C_8  and  C_9 
REMARK    3  A    between atoms: C_9  and  N_10 
REMARK    4  A    between atoms: N_10  and  C_11 
REMARK    5  A    between atoms: N_13  and  C_14 
REMARK    6  A    between atoms: C_14  and  C_15 
REMARK    7  A    between atoms: C_18  and  N_19 
REMARK    8  A    between atoms: N_19  and  S_20 
ROOT
HETATM    1  C   UNL     1     -20.565  -9.447  -4.565  1.00  0.00     0.168 C 
HETATM    2  S   UNL     1     -21.240 -10.812  -5.237  1.00  0.00    -0.041 SA
HETATM    3  N   UNL     1     -20.110  -8.466  -5.374  1.00  0.00    -0.363 N 
HETATM    4  H   UNL     1     -20.181  -8.704  -6.355  1.00  0.00     0.162 HD
ENDROOT
BRANCH   3   5
HETATM    5  C   UNL     1     -20.038  -7.042  -5.104  1.00  0.00     0.160 C 
BRANCH   5   6
HETATM    6  C   UNL     1     -20.746  -6.225  -6.146  1.00  0.00    -0.037 A 
HETATM    7  C   UNL     1     -20.046  -5.769  -7.274  1.00  0.00     0.011 A 
HETATM    8  C   UNL     1     -20.647  -4.882  -8.166  1.00  0.00     0.034 A 
HETATM    9  C   UNL     1     -21.944  -4.430  -7.922  1.00  0.00     0.081 A 
HETATM   10  C   UNL     1     -22.667  -4.945  -6.849  1.00  0.00     0.144 A 
HETATM   11  F   UNL     1     -23.927  -4.537  -6.639  1.00  0.00    -0.204 F 
HETATM   12  C   UNL     1     -22.084  -5.843  -5.966  1.00  0.00     0.053 A 
BRANCH   9  13
HETATM   13  N   UNL     1     -22.506  -3.422  -8.761  1.00  0.00    -0.282 N 
HETATM   14  H   UNL     1     -23.077  -2.720  -8.286  1.00  0.00     0.178 HD
BRANCH  13  15
HETATM   15  S   UNL     1     -23.126  -3.851 -10.255  1.00  0.00     0.227 S 
HETATM   16  C   UNL     1     -21.755  -3.617 -11.367  1.00  0.00     0.186 C 
HETATM   17  O   UNL     1     -23.381  -5.275 -10.175  1.00  0.00    -0.206 OA
HETATM   18  O   UNL     1     -24.177  -2.921 -10.607  1.00  0.00    -0.206 OA
ENDBRANCH  13  15
ENDBRANCH   9  13
ENDBRANCH   5   6
ENDBRANCH   3   5
BRANCH   1  19
HETATM   19  N   UNL     1     -20.472  -9.342  -3.223  1.00  0.00    -0.363 N 
HETATM   20  H   UNL     1     -19.559  -9.058  -2.883  1.00  0.00     0.162 HD
BRANCH  19  21
HETATM   21  C   UNL     1     -21.585  -9.137  -2.324  1.00  0.00     0.160 C 
BRANCH  21  22
HETATM   22  C   UNL     1     -21.960 -10.323  -1.494  1.00  0.00    -0.041 A 
HETATM   23  C   UNL     1     -23.283 -10.641  -1.191  1.00  0.00     0.009 A 
HETATM   24  C   UNL     1     -23.584 -11.826  -0.516  1.00  0.00     0.008 A 
HETATM   25  C   UNL     1     -22.578 -12.744  -0.156  1.00  0.00    -0.051 A 
HETATM   26  C   UNL     1     -21.255 -12.413  -0.485  1.00  0.00     0.008 A 
HETATM   27  C   UNL     1     -20.951 -11.226  -1.151  1.00  0.00     0.009 A 
BRANCH  25  28
HETATM   28  C   UNL     1     -22.901 -14.025   0.623  1.00  0.00    -0.024 C 
HETATM   29  C   UNL     1     -21.668 -14.938   0.797  1.00  0.00     0.019 C 
HETATM   30  C   UNL     1     -23.982 -14.786  -0.167  1.00  0.00     0.019 C 
HETATM   31  C   UNL     1     -23.437 -13.737   2.044  1.00  0.00     0.019 C 
ENDBRANCH  25  28
ENDBRANCH  21  22
ENDBRANCH  19  21
ENDBRANCH   1  19
TORSDOF 8
ENDMDL
MODEL 7
REMARK VINA RESULT:      -7.6     17.184     19.926
REMARK  8 active torsions:
REMARK  status: ('A' for Active; 'I' for Inactive)
REMARK    1  A    between atoms: C_2  and  C_5 
REMARK    2  A    between atoms: C_8  and  C_9 
REMARK    3  A    between atoms: C_9  and  N_10 
REMARK    4  A    between atoms: N_10  and  C_11 
REMARK    5  A    between atoms: N_13  and  C_14 
REMARK    6  A    between atoms: C_14  and  C_15 
REMARK    7  A    between atoms: C_18  and  N_19 
REMARK    8  A    between atoms: N_19  and  S_20 
ROOT
HETATM    1  C   UNL     1     -22.604  10.231   5.117  1.00  0.00     0.168 C 
HETATM    2  S   UNL     1     -23.439  10.654   6.494  1.00  0.00    -0.041 SA
HETATM    3  N   UNL     1     -21.423   9.586   5.231  1.00  0.00    -0.363 N 
HETATM    4  H   UNL     1     -21.130   9.475   6.194  1.00  0.00     0.162 HD
ENDROOT
BRANCH   3   5
HETATM    5  C   UNL     1     -20.822   8.644   4.305  1.00  0.00     0.160 C 
BRANCH   5   6
HETATM    6  C   UNL     1     -19.346   8.865   4.140  1.00  0.00    -0.037 A 
HETATM    7  C   UNL     1     -18.528   9.009   5.271  1.00  0.00     0.011 A 
HETATM    8  C   UNL     1     -17.190   9.370   5.132  1.00  0.00     0.034 A 
HETATM    9  C   UNL     1     -16.668   9.612   3.860  1.00  0.00     0.081 A 
HETATM   10  C   UNL     1     -17.457   9.390   2.735  1.00  0.00     0.144 A 
HETATM   11  F   UNL     1     -16.941   9.587   1.512  1.00  0.00    -0.204 F 
HETATM   12  C   UNL     1     -18.785   9.012   2.862  1.00  0.00     0.053 A 
BRANCH   9  13
HETATM   13  N   UNL     1     -15.338  10.112   3.730  1.00  0.00    -0.282 N 
HETATM   14  H   UNL     1     -15.219  10.883   3.071  1.00  0.00     0.178 HD
BRANCH  13  15
HETATM   15  S   UNL     1     -14.058   9.034   3.697  1.00  0.00     0.227 S 
HETATM   16  C   UNL     1     -13.436   9.062   5.366  1.00  0.00     0.186 C 
HETATM   17  O   UNL     1     -14.653   7.731   3.478  1.00  0.00    -0.206 OA
HETATM   18  O   UNL     1     -13.038   9.550   2.810  1.00  0.00    -0.206 OA
ENDBRANCH  13  15
ENDBRANCH   9  13
ENDBRANCH   5   6
ENDBRANCH   3   5
BRANCH   1  19
HETATM   19  N   UNL     1     -23.112  10.545   3.908  1.00  0.00    -0.363 N 
HETATM   20  H   UNL     1     -22.432  10.894   3.240  1.00  0.00     0.162 HD
BRANCH  19  21
HETATM   21  C   UNL     1     -24.340  10.020   3.356  1.00  0.00     0.160 C 
BRANCH  21  22
HETATM   22  C   UNL     1     -24.210   9.368   2.016  1.00  0.00    -0.041 A 
HETATM   23  C   UNL     1     -22.980   9.001   1.475  1.00  0.00     0.009 A 
HETATM   24  C   UNL     1     -22.925   8.288   0.276  1.00  0.00     0.008 A 
HETATM   25  C   UNL     1     -24.096   7.890  -0.399  1.00  0.00    -0.051 A 
HETATM   26  C   UNL     1     -25.325   8.256   0.172  1.00  0.00     0.008 A 
HETATM   27  C   UNL     1     -25.382   8.976   1.364  1.00  0.00     0.009 A 
BRANCH  25  28
HETATM   28  C   UNL     1     -24.038   7.145  -1.738  1.00  0.00    -0.024 C 
HETATM   29  C   UNL     1     -25.328   7.320  -2.569  1.00  0.00     0.019 C 
HETATM   30  C   UNL     1     -23.842   5.649  -1.425  1.00  0.00     0.019 C 
HETATM   31  C   UNL     1     -22.872   7.621  -2.634  1.00  0.00     0.019 C 
ENDBRANCH  25  28
ENDBRANCH  21  22
ENDBRANCH  19  21
ENDBRANCH   1  19
TORSDOF 8
ENDMDL
MODEL 8
REMARK VINA RESULT:      -7.5     17.031     19.737
REMARK  8 active torsions:
REMARK  status: ('A' for Active; 'I' for Inactive)
REMARK    1  A    between atoms: C_2  and  C_5 
REMARK    2  A    between atoms: C_8  and  C_9 
REMARK    3  A    between atoms: C_9  and  N_10 
REMARK    4  A    between atoms: N_10  and  C_11 
REMARK    5  A    between atoms: N_13  and  C_14 
REMARK    6  A    between atoms: C_14  and  C_15 
REMARK    7  A    between atoms: C_18  and  N_19 
REMARK    8  A    between atoms: N_19  and  S_20 
ROOT
HETATM    1  C   UNL     1     -22.658   9.924   5.190  1.00  0.00     0.168 C 
HETATM    2  S   UNL     1     -23.704  10.270   6.439  1.00  0.00    -0.041 SA
HETATM    3  N   UNL     1     -21.521   9.242   5.447  1.00  0.00    -0.363 N 
HETATM    4  H   UNL     1     -21.393   9.054   6.434  1.00  0.00     0.162 HD
ENDROOT
BRANCH   3   5
HETATM    5  C   UNL     1     -20.789   8.352   4.565  1.00  0.00     0.160 C 
BRANCH   5   6
HETATM    6  C   UNL     1     -19.503   8.957   4.082  1.00  0.00    -0.037 A 
HETATM    7  C   UNL     1     -19.295   9.156   2.708  1.00  0.00     0.011 A 
HETATM    8  C   UNL     1     -18.051   9.568   2.235  1.00  0.00     0.034 A 
HETATM    9  C   UNL     1     -17.000   9.762   3.132  1.00  0.00     0.081 A 
HETATM   10  C   UNL     1     -17.228   9.643   4.501  1.00  0.00     0.144 A 
HETATM   11  F   UNL     1     -16.225   9.866   5.363  1.00  0.00    -0.204 F 
HETATM   12  C   UNL     1     -18.469   9.251   4.983  1.00  0.00     0.053 A 
BRANCH   9  13
HETATM   13  N   UNL     1     -15.695  10.051   2.634  1.00  0.00    -0.282 N 
HETATM   14  H   UNL     1     -15.646  10.783   1.924  1.00  0.00     0.178 HD
BRANCH  13  15
HETATM   15  S   UNL     1     -14.636   8.790   2.333  1.00  0.00     0.227 S 
HETATM   16  C   UNL     1     -13.285   9.566   1.471  1.00  0.00     0.186 C 
HETATM   17  O   UNL     1     -14.143   8.379   3.632  1.00  0.00    -0.206 OA
HETATM   18  O   UNL     1     -15.278   7.846   1.443  1.00  0.00    -0.206 OA
ENDBRANCH  13  15
ENDBRANCH   9  13
ENDBRANCH   5   6
ENDBRANCH   3   5
BRANCH   1  19
HETATM   19  N   UNL     1     -22.954  10.337   3.940  1.00  0.00    -0.363 N 
HETATM   20  H   UNL     1     -22.152  10.445   3.329  1.00  0.00     0.162 HD
BRANCH  19  21
HETATM   21  C   UNL     1     -24.238  10.186   3.294  1.00  0.00     0.160 C 
BRANCH  21  22
HETATM   22  C   UNL     1     -24.237   9.330   2.067  1.00  0.00    -0.041 A 
HETATM   23  C   UNL     1     -25.402   9.006   1.375  1.00  0.00     0.009 A 
HETATM   24  C   UNL     1     -25.331   8.305   0.169  1.00  0.00     0.008 A 
HETATM   25  C   UNL     1     -24.094   7.938  -0.398  1.00  0.00    -0.051 A 
HETATM   26  C   UNL     1     -22.933   8.288   0.308  1.00  0.00     0.008 A 
HETATM   27  C   UNL     1     -23.002   8.980   1.516  1.00  0.00     0.009 A 
BRANCH  25  28
HETATM   28  C   UNL     1     -24.015   7.131  -1.699  1.00  0.00    -0.024 C 
HETATM   29  C   UNL     1     -22.825   7.556  -2.587  1.00  0.00     0.019 C 
HETATM   30  C   UNL     1     -25.327   7.369  -2.471  1.00  0.00     0.019 C 
HETATM   31  C   UNL     1     -23.855   5.614  -1.449  1.00  0.00     0.019 C 
ENDBRANCH  25  28
ENDBRANCH  21  22
ENDBRANCH  19  21
ENDBRANCH   1  19
TORSDOF 8
ENDMDL
MODEL 9
REMARK VINA RESULT:      -7.4      6.159      8.661
REMARK  8 active torsions:
REMARK  status: ('A' for Active; 'I' for Inactive)
REMARK    1  A    between atoms: C_2  and  C_5 
REMARK    2  A    between atoms: C_8  and  C_9 
REMARK    3  A    between atoms: C_9  and  N_10 
REMARK    4  A    between atoms: N_10  and  C_11 
REMARK    5  A    between atoms: N_13  and  C_14 
REMARK    6  A    between atoms: C_14  and  C_15 
REMARK    7  A    between atoms: C_18  and  N_19 
REMARK    8  A    between atoms: N_19  and  S_20 
ROOT
HETATM    1  C   UNL     1     -21.268  -7.662  -2.515  1.00  0.00     0.168 C 
HETATM    2  S   UNL     1     -21.516  -6.201  -3.275  1.00  0.00    -0.041 SA
HETATM    3  N   UNL     1     -21.231  -8.793  -3.251  1.00  0.00    -0.363 N 
HETATM    4  H   UNL     1     -21.425  -8.629  -4.231  1.00  0.00     0.162 HD
ENDROOT
BRANCH   3   5
HETATM    5  C   UNL     1     -20.499 -10.017  -2.979  1.00  0.00     0.160 C 
BRANCH   5   6
HETATM    6  C   UNL     1     -19.100  -9.980  -3.523  1.00  0.00    -0.037 A 
HETATM    7  C   UNL     1     -18.884 -10.047  -4.909  1.00  0.00     0.011 A 
HETATM    8  C   UNL     1     -17.592 -10.172  -5.416  1.00  0.00     0.034 A 
HETATM    9  C   UNL     1     -16.510 -10.252  -4.539  1.00  0.00     0.081 A 
HETATM   10  C   UNL     1     -16.716 -10.103  -3.170  1.00  0.00     0.144 A 
HETATM   11  F   UNL     1     -15.670 -10.142  -2.332  1.00  0.00    -0.204 F 
HETATM   12  C   UNL     1     -17.997  -9.959  -2.656  1.00  0.00     0.053 A 
BRANCH   9  13
HETATM   13  N   UNL     1     -15.206 -10.515  -5.054  1.00  0.00    -0.282 N 
HETATM   14  H   UNL     1     -14.916  -9.931  -5.840  1.00  0.00     0.178 HD
BRANCH  13  15
HETATM   15  S   UNL     1     -14.691 -12.100  -5.205  1.00  0.00     0.227 S 
HETATM   16  C   UNL     1     -14.328 -12.266  -6.940  1.00  0.00     0.186 C 
HETATM   17  O   UNL     1     -13.432 -12.168  -4.491  1.00  0.00    -0.206 OA
HETATM   18  O   UNL     1     -15.790 -12.980  -4.871  1.00  0.00    -0.206 OA
ENDBRANCH  13  15
ENDBRANCH   9  13
ENDBRANCH   5   6
ENDBRANCH   3   5
BRANCH   1  19
HETATM   19  N   UNL     1     -21.117  -7.698  -1.175  1.00  0.00    -0.363 N 
HETATM   20  H   UNL     1     -20.307  -7.198  -0.826  1.00  0.00     0.162 HD
BRANCH  19  21
HETATM   21  C   UNL     1     -22.177  -7.947  -0.223  1.00  0.00     0.160 C 
BRANCH  21  22
HETATM   22  C   UNL     1     -22.414  -9.387   0.104  1.00  0.00    -0.041 A 
HETATM   23  C   UNL     1     -23.621 -10.031  -0.166  1.00  0.00     0.009 A 
HETATM   24  C   UNL     1     -23.747 -11.404   0.049  1.00  0.00     0.008 A 
HETATM   25  C   UNL     1     -22.664 -12.182   0.504  1.00  0.00    -0.051 A 
HETATM   26  C   UNL     1     -21.453 -11.517   0.753  1.00  0.00     0.008 A 
HETATM   27  C   UNL     1     -21.327 -10.143   0.549  1.00  0.00     0.009 A 
BRANCH  25  28
HETATM   28  C   UNL     1     -22.812 -13.682   0.781  1.00  0.00    -0.024 C 
HETATM   29  C   UNL     1     -23.421 -13.970   2.171  1.00  0.00     0.019 C 
HETATM   30  C   UNL     1     -21.406 -14.307   0.710  1.00  0.00     0.019 C 
HETATM   31  C   UNL     1     -23.721 -14.390  -0.250  1.00  0.00     0.019 C 
ENDBRANCH  25  28
ENDBRANCH  21  22
ENDBRANCH  19  21
ENDBRANCH   1  19
TORSDOF 8
ENDMDL
