MODEL 1
REMARK VINA RESULT:      -8.4      0.000      0.000
REMARK  6 active torsions:
REMARK  status: ('A' for Active; 'I' for Inactive)
REMARK    1  A    between atoms: C_2  and  N_3 
REMARK    2  A    between atoms: N_3  and  C_4 
REMARK    3  A    between atoms: N_3  and  C_17 
REMARK    4  A    between atoms: C_4  and  C_5 
REMARK    5  A    between atoms: C_5  and  N_6 
REMARK       I    between atoms: N_6  and  C_7 
REMARK       I    between atoms: C_7  and  N_9 
REMARK    6  A    between atoms: N_9  and  C_10 
ROOT
HETATM    1  N   UNL     1     -22.203  -5.921  -5.104  1.00  0.00    -0.341 N 
HETATM    2  C   UNL     1     -21.883  -5.921  -6.434  1.00  0.00     0.320 C 
HETATM    3  O   UNL     1     -21.377  -6.896  -6.989  1.00  0.00    -0.247 OA
HETATM    4  N   UNL     1     -22.134  -4.708  -7.041  1.00  0.00    -0.308 N 
HETATM    5  H   UNL     1     -23.066  -5.436  -4.895  1.00  0.00     0.164 HD
HETATM    6  H   UNL     1     -21.985  -3.912  -6.437  1.00  0.00     0.170 HD
ENDROOT
BRANCH   1   7
HETATM    7  C   UNL     1     -21.944  -7.135  -4.322  1.00  0.00     0.144 C 
BRANCH   7   8
HETATM    8  C   UNL     1     -20.809  -6.977  -3.281  1.00  0.00     0.142 C 
BRANCH   8   9
HETATM    9  N   UNL     1     -20.678  -8.170  -2.422  1.00  0.00    -0.380 N 
BRANCH   9  10
HETATM   10  C   UNL     1     -19.468  -9.013  -2.452  1.00  0.00     0.118 C 
HETATM   11  C   UNL     1     -18.762  -9.232  -3.775  1.00  0.00     0.026 C 
ENDBRANCH   9  10
BRANCH   9  12
HETATM   12  C   UNL     1     -21.670  -8.509  -1.487  1.00  0.00     0.030 A 
HETATM   13  C   UNL     1     -22.126  -7.587  -0.524  1.00  0.00     0.029 A 
HETATM   14  C   UNL     1     -23.083  -7.909   0.444  1.00  0.00     0.003 A 
HETATM   15  C   UNL     1     -23.635  -9.177   0.474  1.00  0.00     0.007 A 
HETATM   16  C   UNL     1     -23.240 -10.124  -0.472  1.00  0.00    -0.060 A 
HETATM   17  C   UNL     1     -23.831 -11.502  -0.465  1.00  0.00     0.048 C 
HETATM   18  C   UNL     1     -22.269  -9.781  -1.435  1.00  0.00     0.036 A 
ENDBRANCH   9  12
ENDBRANCH   8   9
ENDBRANCH   7   8
ENDBRANCH   1   7
BRANCH   4  19
HETATM   19  C   UNL     1     -21.809  -4.514  -8.408  1.00  0.00     0.053 A 
HETATM   20  C   UNL     1     -22.817  -4.572  -9.381  1.00  0.00     0.031 A 
HETATM   21  C   UNL     1     -22.510  -4.416 -10.732  1.00  0.00     0.002 A 
HETATM   22  C   UNL     1     -21.192  -4.203 -11.127  1.00  0.00     0.002 A 
HETATM   23  C   UNL     1     -20.178  -4.142 -10.168  1.00  0.00     0.021 A 
HETATM   24  C   UNL     1     -20.486  -4.287  -8.811  1.00  0.00     0.037 A 
HETATM   25 BR   UNL     1     -19.055  -4.299  -7.563  1.00  0.00    -0.049 Br
ENDBRANCH   4  19
TORSDOF 6
ENDMDL
MODEL 2
REMARK VINA RESULT:      -8.4      1.258      1.593
REMARK  6 active torsions:
REMARK  status: ('A' for Active; 'I' for Inactive)
REMARK    1  A    between atoms: C_2  and  N_3 
REMARK    2  A    between atoms: N_3  and  C_4 
REMARK    3  A    between atoms: N_3  and  C_17 
REMARK    4  A    between atoms: C_4  and  C_5 
REMARK    5  A    between atoms: C_5  and  N_6 
REMARK       I    between atoms: N_6  and  C_7 
REMARK       I    between atoms: C_7  and  N_9 
REMARK    6  A    between atoms: N_9  and  C_10 
ROOT
HETATM    1  N   UNL     1     -22.304  -5.654  -5.385  1.00  0.00    -0.341 N 
HETATM    2  C   UNL     1     -21.838  -5.695  -6.671  1.00  0.00     0.320 C 
HETATM    3  O   UNL     1     -21.268  -6.684  -7.132  1.00  0.00    -0.247 OA
HETATM    4  N   UNL     1     -22.027  -4.505  -7.343  1.00  0.00    -0.308 N 
HETATM    5  H   UNL     1     -23.187  -5.170  -5.290  1.00  0.00     0.164 HD
HETATM    6  H   UNL     1     -21.950  -3.688  -6.754  1.00  0.00     0.170 HD
ENDROOT
BRANCH   1   7
HETATM    7  C   UNL     1     -22.126  -6.838  -4.539  1.00  0.00     0.144 C 
BRANCH   7   8
HETATM    8  C   UNL     1     -20.889  -6.763  -3.610  1.00  0.00     0.142 C 
BRANCH   8   9
HETATM    9  N   UNL     1     -20.755  -7.971  -2.772  1.00  0.00    -0.380 N 
BRANCH   9  10
HETATM   10  C   UNL     1     -19.639  -8.918  -2.957  1.00  0.00     0.118 C 
HETATM   11  C   UNL     1     -19.072  -9.118  -4.347  1.00  0.00     0.026 C 
ENDBRANCH   9  10
BRANCH   9  12
HETATM   12  C   UNL     1     -21.643  -8.227  -1.714  1.00  0.00     0.030 A 
HETATM   13  C   UNL     1     -22.018  -7.222  -0.801  1.00  0.00     0.029 A 
HETATM   14  C   UNL     1     -22.868  -7.458   0.283  1.00  0.00     0.003 A 
HETATM   15  C   UNL     1     -23.392  -8.723   0.488  1.00  0.00     0.007 A 
HETATM   16  C   UNL     1     -23.074  -9.752  -0.399  1.00  0.00    -0.060 A 
HETATM   17  C   UNL     1     -23.637 -11.129  -0.204  1.00  0.00     0.048 C 
HETATM   18  C   UNL     1     -22.211  -9.495  -1.483  1.00  0.00     0.036 A 
ENDBRANCH   9  12
ENDBRANCH   8   9
ENDBRANCH   7   8
ENDBRANCH   1   7
BRANCH   4  19
HETATM   19  C   UNL     1     -21.552  -4.354  -8.672  1.00  0.00     0.053 A 
HETATM   20  C   UNL     1     -20.188  -4.517  -8.949  1.00  0.00     0.031 A 
HETATM   21  C   UNL     1     -19.700  -4.341 -10.243  1.00  0.00     0.002 A 
HETATM   22  C   UNL     1     -20.570  -3.998 -11.274  1.00  0.00     0.002 A 
HETATM   23  C   UNL     1     -21.932  -3.833 -11.012  1.00  0.00     0.021 A 
HETATM   24  C   UNL     1     -22.424  -4.021  -9.717  1.00  0.00     0.037 A 
HETATM   25 BR   UNL     1     -24.266  -3.684  -9.399  1.00  0.00    -0.049 Br
ENDBRANCH   4  19
TORSDOF 6
ENDMDL
MODEL 3
REMARK VINA RESULT:      -7.9      0.850      1.647
REMARK  6 active torsions:
REMARK  status: ('A' for Active; 'I' for Inactive)
REMARK    1  A    between atoms: C_2  and  N_3 
REMARK    2  A    between atoms: N_3  and  C_4 
REMARK    3  A    between atoms: N_3  and  C_17 
REMARK    4  A    between atoms: C_4  and  C_5 
REMARK    5  A    between atoms: C_5  and  N_6 
REMARK       I    between atoms: N_6  and  C_7 
REMARK       I    between atoms: C_7  and  N_9 
REMARK    6  A    between atoms: N_9  and  C_10 
ROOT
HETATM    1  N   UNL     1     -21.676  -5.610  -5.284  1.00  0.00    -0.341 N 
HETATM    2  C   UNL     1     -21.500  -5.669  -6.639  1.00  0.00     0.320 C 
HETATM    3  O   UNL     1     -20.848  -6.562  -7.180  1.00  0.00    -0.247 OA
HETATM    4  N   UNL     1     -22.076  -4.601  -7.297  1.00  0.00    -0.308 N 
HETATM    5  H   UNL     1     -22.600  -5.303  -5.009  1.00  0.00     0.164 HD
HETATM    6  H   UNL     1     -22.048  -3.738  -6.773  1.00  0.00     0.170 HD
ENDROOT
BRANCH   1   7
HETATM    7  C   UNL     1     -21.075  -6.660  -4.454  1.00  0.00     0.144 C 
BRANCH   7   8
HETATM    8  C   UNL     1     -21.748  -8.046  -4.615  1.00  0.00     0.142 C 
BRANCH   8   9
HETATM    9  N   UNL     1     -21.183  -9.044  -3.686  1.00  0.00    -0.380 N 
BRANCH   9  10
HETATM   10  C   UNL     1     -19.844  -9.625  -3.899  1.00  0.00     0.118 C 
HETATM   11  C   UNL     1     -18.753  -9.340  -2.886  1.00  0.00     0.026 C 
ENDBRANCH   9  10
BRANCH   9  12
HETATM   12  C   UNL     1     -21.868  -9.425  -2.520  1.00  0.00     0.030 A 
HETATM   13  C   UNL     1     -22.499 -10.679  -2.408  1.00  0.00     0.029 A 
HETATM   14  C   UNL     1     -23.221 -11.069  -1.276  1.00  0.00     0.003 A 
HETATM   15  C   UNL     1     -23.327 -10.212  -0.195  1.00  0.00     0.007 A 
HETATM   16  C   UNL     1     -22.699  -8.966  -0.240  1.00  0.00    -0.060 A 
HETATM   17  C   UNL     1     -22.791  -8.023   0.923  1.00  0.00     0.048 C 
HETATM   18  C   UNL     1     -21.982  -8.590  -1.393  1.00  0.00     0.036 A 
ENDBRANCH   9  12
ENDBRANCH   8   9
ENDBRANCH   7   8
ENDBRANCH   1   7
BRANCH   4  19
HETATM   19  C   UNL     1     -21.942  -4.474  -8.703  1.00  0.00     0.053 A 
HETATM   20  C   UNL     1     -23.037  -4.742  -9.536  1.00  0.00     0.031 A 
HETATM   21  C   UNL     1     -22.914  -4.654 -10.922  1.00  0.00     0.002 A 
HETATM   22  C   UNL     1     -21.695  -4.298 -11.492  1.00  0.00     0.002 A 
HETATM   23  C   UNL     1     -20.595  -4.028 -10.674  1.00  0.00     0.021 A 
HETATM   24  C   UNL     1     -20.721  -4.106  -9.283  1.00  0.00     0.037 A 
HETATM   25 BR   UNL     1     -19.167  -3.828  -8.225  1.00  0.00    -0.049 Br
ENDBRANCH   4  19
TORSDOF 6
ENDMDL
MODEL 4
REMARK VINA RESULT:      -7.8      2.293      8.882
REMARK  6 active torsions:
REMARK  status: ('A' for Active; 'I' for Inactive)
REMARK    1  A    between atoms: C_2  and  N_3 
REMARK    2  A    between atoms: N_3  and  C_4 
REMARK    3  A    between atoms: N_3  and  C_17 
REMARK    4  A    between atoms: C_4  and  C_5 
REMARK    5  A    between atoms: C_5  and  N_6 
REMARK       I    between atoms: N_6  and  C_7 
REMARK       I    between atoms: C_7  and  N_9 
REMARK    6  A    between atoms: N_9  and  C_10 
ROOT
HETATM    1  N   UNL     1     -20.537  -6.306  -4.280  1.00  0.00    -0.341 N 
HETATM    2  C   UNL     1     -21.476  -6.728  -3.379  1.00  0.00     0.320 C 
HETATM    3  O   UNL     1     -22.566  -6.171  -3.255  1.00  0.00    -0.247 OA
HETATM    4  N   UNL     1     -21.035  -7.784  -2.608  1.00  0.00    -0.308 N 
HETATM    5  H   UNL     1     -20.033  -7.062  -4.724  1.00  0.00     0.164 HD
HETATM    6  H   UNL     1     -20.046  -7.754  -2.402  1.00  0.00     0.170 HD
ENDROOT
BRANCH   1   7
HETATM    7  C   UNL     1     -20.855  -5.157  -5.134  1.00  0.00     0.144 C 
BRANCH   7   8
HETATM    8  C   UNL     1     -21.510  -5.544  -6.483  1.00  0.00     0.142 C 
BRANCH   8   9
HETATM    9  N   UNL     1     -20.673  -5.155  -7.635  1.00  0.00    -0.380 N 
BRANCH   9  10
HETATM   10  C   UNL     1     -19.212  -5.357  -7.629  1.00  0.00     0.118 C 
HETATM   11  C   UNL     1     -18.312  -4.181  -7.308  1.00  0.00     0.026 C 
ENDBRANCH   9  10
BRANCH   9  12
HETATM   12  C   UNL     1     -21.243  -4.645  -8.813  1.00  0.00     0.030 A 
HETATM   13  C   UNL     1     -20.481  -4.454  -9.982  1.00  0.00     0.029 A 
HETATM   14  C   UNL     1     -21.012  -3.912 -11.156  1.00  0.00     0.003 A 
HETATM   15  C   UNL     1     -22.347  -3.549 -11.208  1.00  0.00     0.007 A 
HETATM   16  C   UNL     1     -23.156  -3.740 -10.087  1.00  0.00    -0.060 A 
HETATM   17  C   UNL     1     -24.608  -3.364 -10.121  1.00  0.00     0.048 C 
HETATM   18  C   UNL     1     -22.600  -4.282  -8.911  1.00  0.00     0.036 A 
ENDBRANCH   9  12
ENDBRANCH   8   9
ENDBRANCH   7   8
ENDBRANCH   1   7
BRANCH   4  19
HETATM   19  C   UNL     1     -21.862  -8.313  -1.584  1.00  0.00     0.053 A 
HETATM   20  C   UNL     1     -22.179  -7.527  -0.466  1.00  0.00     0.031 A 
HETATM   21  C   UNL     1     -22.963  -8.042   0.565  1.00  0.00     0.002 A 
HETATM   22  C   UNL     1     -23.440  -9.347   0.492  1.00  0.00     0.002 A 
HETATM   23  C   UNL     1     -23.134 -10.141  -0.616  1.00  0.00     0.021 A 
HETATM   24  C   UNL     1     -22.356  -9.622  -1.656  1.00  0.00     0.037 A 
HETATM   25 BR   UNL     1     -21.885 -10.779  -3.087  1.00  0.00    -0.049 Br
ENDBRANCH   4  19
TORSDOF 6
ENDMDL
MODEL 5
REMARK VINA RESULT:      -7.5      2.449      8.945
REMARK  6 active torsions:
REMARK  status: ('A' for Active; 'I' for Inactive)
REMARK    1  A    between atoms: C_2  and  N_3 
REMARK    2  A    between atoms: N_3  and  C_4 
REMARK    3  A    between atoms: N_3  and  C_17 
REMARK    4  A    between atoms: C_4  and  C_5 
REMARK    5  A    between atoms: C_5  and  N_6 
REMARK       I    between atoms: N_6  and  C_7 
REMARK       I    between atoms: C_7  and  N_9 
REMARK    6  A    between atoms: N_9  and  C_10 
ROOT
HETATM    1  N   UNL     1     -20.530  -7.331  -4.679  1.00  0.00    -0.341 N 
HETATM    2  C   UNL     1     -20.911  -8.306  -3.799  1.00  0.00     0.320 C 
HETATM    3  O   UNL     1     -21.871  -9.046  -4.013  1.00  0.00    -0.247 OA
HETATM    4  N   UNL     1     -20.147  -8.314  -2.650  1.00  0.00    -0.308 N 
HETATM    5  H   UNL     1     -19.527  -7.224  -4.755  1.00  0.00     0.164 HD
HETATM    6  H   UNL     1     -19.840  -7.397  -2.359  1.00  0.00     0.170 HD
ENDROOT
BRANCH   1   7
HETATM    7  C   UNL     1     -21.288  -7.178  -5.925  1.00  0.00     0.144 C 
BRANCH   7   8
HETATM    8  C   UNL     1     -21.577  -5.704  -6.304  1.00  0.00     0.142 C 
BRANCH   8   9
HETATM    9  N   UNL     1     -20.807  -5.279  -7.489  1.00  0.00    -0.380 N 
BRANCH   9  10
HETATM   10  C   UNL     1     -19.351  -5.496  -7.582  1.00  0.00     0.118 C 
HETATM   11  C   UNL     1     -18.416  -4.419  -7.070  1.00  0.00     0.026 C 
ENDBRANCH   9  10
BRANCH   9  12
HETATM   12  C   UNL     1     -21.443  -4.717  -8.609  1.00  0.00     0.030 A 
HETATM   13  C   UNL     1     -20.758  -4.510  -9.823  1.00  0.00     0.029 A 
HETATM   14  C   UNL     1     -21.353  -3.917 -10.940  1.00  0.00     0.003 A 
HETATM   15  C   UNL     1     -22.677  -3.515 -10.887  1.00  0.00     0.007 A 
HETATM   16  C   UNL     1     -23.411  -3.718  -9.718  1.00  0.00    -0.060 A 
HETATM   17  C   UNL     1     -24.850  -3.301  -9.638  1.00  0.00     0.048 C 
HETATM   18  C   UNL     1     -22.791  -4.313  -8.600  1.00  0.00     0.036 A 
ENDBRANCH   9  12
ENDBRANCH   8   9
ENDBRANCH   7   8
ENDBRANCH   1   7
BRANCH   4  19
HETATM   19  C   UNL     1     -20.441  -9.227  -1.605  1.00  0.00     0.053 A 
HETATM   20  C   UNL     1     -19.822 -10.485  -1.581  1.00  0.00     0.031 A 
HETATM   21  C   UNL     1     -20.123 -11.406  -0.579  1.00  0.00     0.002 A 
HETATM   22  C   UNL     1     -21.049 -11.082   0.409  1.00  0.00     0.002 A 
HETATM   23  C   UNL     1     -21.673  -9.832   0.398  1.00  0.00     0.021 A 
HETATM   24  C   UNL     1     -21.362  -8.903  -0.600  1.00  0.00     0.037 A 
HETATM   25 BR   UNL     1     -22.316  -7.261  -0.625  1.00  0.00    -0.049 Br
ENDBRANCH   4  19
TORSDOF 6
ENDMDL
MODEL 6
REMARK VINA RESULT:      -7.2     14.748     17.114
REMARK  6 active torsions:
REMARK  status: ('A' for Active; 'I' for Inactive)
REMARK    1  A    between atoms: C_2  and  N_3 
REMARK    2  A    between atoms: N_3  and  C_4 
REMARK    3  A    between atoms: N_3  and  C_17 
REMARK    4  A    between atoms: C_4  and  C_5 
REMARK    5  A    between atoms: C_5  and  N_6 
REMARK       I    between atoms: N_6  and  C_7 
REMARK       I    between atoms: C_7  and  N_9 
REMARK    6  A    between atoms: N_9  and  C_10 
ROOT
HETATM    1  N   UNL     1     -34.088  -2.171 -17.136  1.00  0.00    -0.341 N 
HETATM    2  C   UNL     1     -33.329  -3.270 -16.840  1.00  0.00     0.320 C 
HETATM    3  O   UNL     1     -33.620  -4.044 -15.929  1.00  0.00    -0.247 OA
HETATM    4  N   UNL     1     -32.199  -3.362 -17.627  1.00  0.00    -0.308 N 
HETATM    5  H   UNL     1     -34.162  -1.985 -18.128  1.00  0.00     0.164 HD
HETATM    6  H   UNL     1     -31.802  -2.467 -17.876  1.00  0.00     0.170 HD
ENDROOT
BRANCH   1   7
HETATM    7  C   UNL     1     -35.297  -1.922 -16.344  1.00  0.00     0.144 C 
BRANCH   7   8
HETATM    8  C   UNL     1     -35.241  -0.619 -15.509  1.00  0.00     0.142 C 
BRANCH   8   9
HETATM    9  N   UNL     1     -36.213  -0.633 -14.399  1.00  0.00    -0.380 N 
BRANCH   9  10
HETATM   10  C   UNL     1     -37.636  -0.313 -14.616  1.00  0.00     0.118 C 
HETATM   11  C   UNL     1     -38.005   0.690 -15.691  1.00  0.00     0.026 C 
ENDBRANCH   9  10
BRANCH   9  12
HETATM   12  C   UNL     1     -35.836  -1.025 -13.103  1.00  0.00     0.030 A 
HETATM   13  C   UNL     1     -36.519  -0.561 -11.961  1.00  0.00     0.029 A 
HETATM   14  C   UNL     1     -36.142  -0.903 -10.659  1.00  0.00     0.003 A 
HETATM   15  C   UNL     1     -35.062  -1.743 -10.450  1.00  0.00     0.007 A 
HETATM   16  C   UNL     1     -34.364  -2.253 -11.546  1.00  0.00    -0.060 A 
HETATM   17  C   UNL     1     -33.197  -3.174 -11.346  1.00  0.00     0.048 C 
HETATM   18  C   UNL     1     -34.757  -1.892 -12.850  1.00  0.00     0.036 A 
ENDBRANCH   9  12
ENDBRANCH   8   9
ENDBRANCH   7   8
ENDBRANCH   1   7
BRANCH   4  19
HETATM   19  C   UNL     1     -31.269  -4.413 -17.417  1.00  0.00     0.053 A 
HETATM   20  C   UNL     1     -31.715  -5.741 -17.368  1.00  0.00     0.031 A 
HETATM   21  C   UNL     1     -30.819  -6.783 -17.130  1.00  0.00     0.002 A 
HETATM   22  C   UNL     1     -29.468  -6.509 -16.938  1.00  0.00     0.002 A 
HETATM   23  C   UNL     1     -29.010  -5.191 -16.985  1.00  0.00     0.021 A 
HETATM   24  C   UNL     1     -29.906  -4.146 -17.234  1.00  0.00     0.037 A 
HETATM   25 BR   UNL     1     -29.244  -2.366 -17.185  1.00  0.00    -0.049 Br
ENDBRANCH   4  19
TORSDOF 6
ENDMDL
MODEL 7
REMARK VINA RESULT:      -7.2      5.232      9.343
REMARK  6 active torsions:
REMARK  status: ('A' for Active; 'I' for Inactive)
REMARK    1  A    between atoms: C_2  and  N_3 
REMARK    2  A    between atoms: N_3  and  C_4 
REMARK    3  A    between atoms: N_3  and  C_17 
REMARK    4  A    between atoms: C_4  and  C_5 
REMARK    5  A    between atoms: C_5  and  N_6 
REMARK       I    between atoms: N_6  and  C_7 
REMARK       I    between atoms: C_7  and  N_9 
REMARK    6  A    between atoms: N_9  and  C_10 
ROOT
HETATM    1  N   UNL     1     -19.613 -11.914  -1.803  1.00  0.00    -0.341 N 
HETATM    2  C   UNL     1     -20.224 -12.151  -0.603  1.00  0.00     0.320 C 
HETATM    3  O   UNL     1     -20.071 -11.414   0.370  1.00  0.00    -0.247 OA
HETATM    4  N   UNL     1     -20.962 -13.317  -0.603  1.00  0.00    -0.308 N 
HETATM    5  H   UNL     1     -20.194 -12.128  -2.603  1.00  0.00     0.164 HD
HETATM    6  H   UNL     1     -20.566 -14.050  -1.175  1.00  0.00     0.170 HD
ENDROOT
BRANCH   1   7
HETATM    7  C   UNL     1     -18.756 -10.730  -1.931  1.00  0.00     0.144 C 
BRANCH   7   8
HETATM    8  C   UNL     1     -19.017  -9.905  -3.215  1.00  0.00     0.142 C 
BRANCH   8   9
HETATM    9  N   UNL     1     -20.452  -9.615  -3.403  1.00  0.00    -0.380 N 
BRANCH   9  10
HETATM   10  C   UNL     1     -21.296 -10.439  -4.289  1.00  0.00     0.118 C 
HETATM   11  C   UNL     1     -22.585 -11.017  -3.742  1.00  0.00     0.026 C 
ENDBRANCH   9  10
BRANCH   9  12
HETATM   12  C   UNL     1     -21.089  -8.589  -2.686  1.00  0.00     0.030 A 
HETATM   13  C   UNL     1     -21.177  -7.277  -3.191  1.00  0.00     0.029 A 
HETATM   14  C   UNL     1     -21.769  -6.227  -2.482  1.00  0.00     0.003 A 
HETATM   15  C   UNL     1     -22.315  -6.459  -1.231  1.00  0.00     0.007 A 
HETATM   16  C   UNL     1     -22.279  -7.745  -0.692  1.00  0.00    -0.060 A 
HETATM   17  C   UNL     1     -22.872  -8.023   0.657  1.00  0.00     0.048 C 
HETATM   18  C   UNL     1     -21.672  -8.788  -1.420  1.00  0.00     0.036 A 
ENDBRANCH   9  12
ENDBRANCH   8   9
ENDBRANCH   7   8
ENDBRANCH   1   7
BRANCH   4  19
HETATM   19  C   UNL     1     -21.619 -13.745   0.579  1.00  0.00     0.053 A 
HETATM   20  C   UNL     1     -21.044 -14.746   1.374  1.00  0.00     0.031 A 
HETATM   21  C   UNL     1     -21.691 -15.201   2.522  1.00  0.00     0.002 A 
HETATM   22  C   UNL     1     -22.922 -14.662   2.887  1.00  0.00     0.002 A 
HETATM   23  C   UNL     1     -23.506 -13.664   2.105  1.00  0.00     0.021 A 
HETATM   24  C   UNL     1     -22.852 -13.198   0.959  1.00  0.00     0.037 A 
HETATM   25 BR   UNL     1     -23.740 -11.914  -0.122  1.00  0.00    -0.049 Br
ENDBRANCH   4  19
TORSDOF 6
ENDMDL
MODEL 8
REMARK VINA RESULT:      -7.1      5.015      7.465
REMARK  6 active torsions:
REMARK  status: ('A' for Active; 'I' for Inactive)
REMARK    1  A    between atoms: C_2  and  N_3 
REMARK    2  A    between atoms: N_3  and  C_4 
REMARK    3  A    between atoms: N_3  and  C_17 
REMARK    4  A    between atoms: C_4  and  C_5 
REMARK    5  A    between atoms: C_5  and  N_6 
REMARK       I    between atoms: N_6  and  C_7 
REMARK       I    between atoms: C_7  and  N_9 
REMARK    6  A    between atoms: N_9  and  C_10 
ROOT
HETATM    1  N   UNL     1     -18.929 -11.326  -0.411  1.00  0.00    -0.341 N 
HETATM    2  C   UNL     1     -18.444 -11.288  -1.689  1.00  0.00     0.320 C 
HETATM    3  O   UNL     1     -19.163 -11.465  -2.672  1.00  0.00    -0.247 OA
HETATM    4  N   UNL     1     -17.078 -11.093  -1.734  1.00  0.00    -0.308 N 
HETATM    5  H   UNL     1     -18.509 -10.639   0.202  1.00  0.00     0.164 HD
HETATM    6  H   UNL     1     -16.580 -11.523  -0.967  1.00  0.00     0.170 HD
ENDROOT
BRANCH   1   7
HETATM    7  C   UNL     1     -20.360 -11.573  -0.213  1.00  0.00     0.144 C 
BRANCH   7   8
HETATM    8  C   UNL     1     -21.090 -10.443   0.554  1.00  0.00     0.142 C 
BRANCH   8   9
HETATM    9  N   UNL     1     -22.185  -9.854  -0.242  1.00  0.00    -0.380 N 
BRANCH   9  10
HETATM   10  C   UNL     1     -23.563 -10.374  -0.162  1.00  0.00     0.118 C 
HETATM   11  C   UNL     1     -24.019 -11.395  -1.185  1.00  0.00     0.026 C 
ENDBRANCH   9  10
BRANCH   9  12
HETATM   12  C   UNL     1     -21.973  -8.725  -1.051  1.00  0.00     0.030 A 
HETATM   13  C   UNL     1     -22.374  -7.437  -0.645  1.00  0.00     0.029 A 
HETATM   14  C   UNL     1     -22.213  -6.303  -1.446  1.00  0.00     0.003 A 
HETATM   15  C   UNL     1     -21.623  -6.416  -2.694  1.00  0.00     0.007 A 
HETATM   16  C   UNL     1     -21.183  -7.663  -3.137  1.00  0.00    -0.060 A 
HETATM   17  C   UNL     1     -20.533  -7.810  -4.481  1.00  0.00     0.048 C 
HETATM   18  C   UNL     1     -21.361  -8.796  -2.317  1.00  0.00     0.036 A 
ENDBRANCH   9  12
ENDBRANCH   8   9
ENDBRANCH   7   8
ENDBRANCH   1   7
BRANCH   4  19
HETATM   19  C   UNL     1     -16.400 -11.083  -2.980  1.00  0.00     0.053 A 
HETATM   20  C   UNL     1     -16.400  -9.921  -3.766  1.00  0.00     0.031 A 
HETATM   21  C   UNL     1     -15.767  -9.903  -5.008  1.00  0.00     0.002 A 
HETATM   22  C   UNL     1     -15.128 -11.046  -5.480  1.00  0.00     0.002 A 
HETATM   23  C   UNL     1     -15.119 -12.210  -4.707  1.00  0.00     0.021 A 
HETATM   24  C   UNL     1     -15.745 -12.226  -3.456  1.00  0.00     0.037 A 
HETATM   25 BR   UNL     1     -15.790 -13.864  -2.497  1.00  0.00    -0.049 Br
ENDBRANCH   4  19
TORSDOF 6
ENDMDL
MODEL 9
REMARK VINA RESULT:      -7.1     17.815     19.351
REMARK  6 active torsions:
REMARK  status: ('A' for Active; 'I' for Inactive)
REMARK    1  A    between atoms: C_2  and  N_3 
REMARK    2  A    between atoms: N_3  and  C_4 
REMARK    3  A    between atoms: N_3  and  C_17 
REMARK    4  A    between atoms: C_4  and  C_5 
REMARK    5  A    between atoms: C_5  and  N_6 
REMARK       I    between atoms: N_6  and  C_7 
REMARK       I    between atoms: C_7  and  N_9 
REMARK    6  A    between atoms: N_9  and  C_10 
ROOT
HETATM    1  N   UNL     1     -19.173   9.893   3.367  1.00  0.00    -0.341 N 
HETATM    2  C   UNL     1     -18.138   9.521   4.181  1.00  0.00     0.320 C 
HETATM    3  O   UNL     1     -18.289   8.745   5.124  1.00  0.00    -0.247 OA
HETATM    4  N   UNL     1     -16.955  10.155   3.860  1.00  0.00    -0.308 N 
HETATM    5  H   UNL     1     -18.910   9.981   2.394  1.00  0.00     0.164 HD
HETATM    6  H   UNL     1     -17.078  11.098   3.518  1.00  0.00     0.170 HD
ENDROOT
BRANCH   1   7
HETATM    7  C   UNL     1     -20.502   9.331   3.625  1.00  0.00     0.144 C 
BRANCH   7   8
HETATM    8  C   UNL     1     -21.170   8.705   2.375  1.00  0.00     0.142 C 
BRANCH   8   9
HETATM    9  N   UNL     1     -22.328   9.495   1.914  1.00  0.00    -0.380 N 
BRANCH   9  10
HETATM   10  C   UNL     1     -22.434  10.940   2.189  1.00  0.00     0.118 C 
HETATM   11  C   UNL     1     -22.221  11.918   1.052  1.00  0.00     0.026 C 
ENDBRANCH   9  10
BRANCH   9  12
HETATM   12  C   UNL     1     -23.340   8.917   1.130  1.00  0.00     0.030 A 
HETATM   13  C   UNL     1     -24.704   9.170   1.378  1.00  0.00     0.029 A 
HETATM   14  C   UNL     1     -25.734   8.577   0.640  1.00  0.00     0.003 A 
HETATM   15  C   UNL     1     -25.431   7.710  -0.395  1.00  0.00     0.007 A 
HETATM   16  C   UNL     1     -24.096   7.442  -0.701  1.00  0.00    -0.060 A 
HETATM   17  C   UNL     1     -23.743   6.513  -1.825  1.00  0.00     0.048 C 
HETATM   18  C   UNL     1     -23.073   8.044   0.059  1.00  0.00     0.036 A 
ENDBRANCH   9  12
ENDBRANCH   8   9
ENDBRANCH   7   8
ENDBRANCH   1   7
BRANCH   4  19
HETATM   19  C   UNL     1     -15.791   9.928   4.638  1.00  0.00     0.053 A 
HETATM   20  C   UNL     1     -15.652  10.551   5.886  1.00  0.00     0.031 A 
HETATM   21  C   UNL     1     -14.501  10.365   6.650  1.00  0.00     0.002 A 
HETATM   22  C   UNL     1     -13.474   9.554   6.174  1.00  0.00     0.002 A 
HETATM   23  C   UNL     1     -13.599   8.926   4.933  1.00  0.00     0.021 A 
HETATM   24  C   UNL     1     -14.759   9.103   4.172  1.00  0.00     0.037 A 
HETATM   25 BR   UNL     1     -14.830   8.308   2.448  1.00  0.00    -0.049 Br
ENDBRANCH   4  19
TORSDOF 6
ENDMDL
