REMARK  6 active torsions:
REMARK  status: ('A' for Active; 'I' for Inactive)
REMARK    1  A    between atoms: C_2  and  N_3 
REMARK    2  A    between atoms: N_3  and  C_4 
REMARK    3  A    between atoms: N_3  and  C_17 
REMARK    4  A    between atoms: C_4  and  C_5 
REMARK    5  A    between atoms: C_5  and  N_6 
REMARK       I    between atoms: N_6  and  C_7 
REMARK       I    between atoms: C_7  and  N_9 
REMARK    6  A    between atoms: N_9  and  C_10 
ROOT
HETATM    1  N   UNL     1      -0.343  -2.748   2.085  1.00  0.00    -0.341 N 
HETATM    2  C   UNL     1      -0.349  -2.757   3.453  1.00  0.00     0.320 C 
HETATM    3  O   UNL     1       0.343  -1.988   4.119  1.00  0.00    -0.247 OA
HETATM    4  N   UNL     1      -1.157  -3.747   3.974  1.00  0.00    -0.308 N 
HETATM    5  H   UNL     1      -1.254  -2.906   1.675  1.00  0.00     0.164 HD
HETATM    6  H   UNL     1      -1.181  -4.589   3.416  1.00  0.00     0.170 HD
ENDROOT
BRANCH   1   7
HETATM    7  C   UNL     1       0.511  -1.775   1.396  1.00  0.00     0.144 C 
BRANCH   7   8
HETATM    8  C   UNL     1       2.027  -2.040   1.570  1.00  0.00     0.142 C 
BRANCH   8   9
HETATM    9  N   UNL     1       2.845  -1.108   0.770  1.00  0.00    -0.380 N 
BRANCH   9  10
HETATM   10  C   UNL     1       3.483   0.075   1.378  1.00  0.00     0.118 C 
HETATM   11  C   UNL     1       3.169   0.415   2.821  1.00  0.00     0.026 C 
ENDBRANCH   9  10
BRANCH   9  12
HETATM   12  C   UNL     1       3.111  -1.351  -0.588  1.00  0.00     0.030 A 
HETATM   13  C   UNL     1       3.922  -0.487  -1.350  1.00  0.00     0.029 A 
HETATM   14  C   UNL     1       4.171  -0.682  -2.712  1.00  0.00     0.003 A 
HETATM   15  C   UNL     1       3.621  -1.771  -3.366  1.00  0.00     0.007 A 
HETATM   16  C   UNL     1       2.830  -2.674  -2.655  1.00  0.00    -0.060 A 
HETATM   17  C   UNL     1       2.231  -3.867  -3.339  1.00  0.00     0.048 C 
HETATM   18  C   UNL     1       2.586  -2.456  -1.284  1.00  0.00     0.036 A 
ENDBRANCH   9  12
ENDBRANCH   8   9
ENDBRANCH   7   8
ENDBRANCH   1   7
BRANCH   4  19
HETATM   19  C   UNL     1      -1.238  -3.935   5.378  1.00  0.00     0.053 A 
HETATM   20  C   UNL     1      -1.452  -2.834   6.219  1.00  0.00     0.031 A 
HETATM   21  C   UNL     1      -1.502  -2.996   7.603  1.00  0.00     0.002 A 
HETATM   22  C   UNL     1      -1.337  -4.260   8.162  1.00  0.00     0.002 A 
HETATM   23  C   UNL     1      -1.124  -5.366   7.336  1.00  0.00     0.021 A 
HETATM   24  C   UNL     1      -1.085  -5.206   5.947  1.00  0.00     0.037 A 
HETATM   25 BR   UNL     1      -0.690  -6.727   4.880  1.00  0.00    -0.049 Br
ENDBRANCH   4  19
TORSDOF 6
