REMARK  3 active torsions:
REMARK  status: ('A' for Active; 'I' for Inactive)
REMARK    1  A    between atoms: C_2  and  C_5 
REMARK    2  A    between atoms: C_8  and  N_9 
REMARK       I    between atoms: N_9  and  C_10 
REMARK       I    between atoms: C_10  and  N_12 
REMARK    3  A    between atoms: N_15  and  C_16 
ROOT
HETATM    1  N   UNL     1       3.816   5.230   2.043  1.00  0.00    -0.309 N 
HETATM    2  C   UNL     1       3.553   6.463   1.490  1.00  0.00     0.323 C 
HETATM    3  O   UNL     1       3.031   6.629   0.389  1.00  0.00    -0.247 OA
HETATM    4  N   UNL     1       3.899   7.556   2.269  1.00  0.00    -0.331 N 
HETATM    5  C   UNL     1       4.618   7.533   3.560  1.00  0.00     0.147 C 
HETATM    6  C   UNL     1       4.157   8.677   4.481  1.00  0.00     0.144 C 
HETATM    7  N   UNL     1       4.309   9.933   3.753  1.00  0.00    -0.363 N 
HETATM    8  C   UNL     1       3.455  10.019   2.562  1.00  0.00     0.144 C 
HETATM    9  C   UNL     1       3.856   8.879   1.609  1.00  0.00     0.147 C 
HETATM   10  H   UNL     1       4.134   5.197   2.992  1.00  0.00     0.170 HD
ENDROOT
BRANCH   1  11
HETATM   11  C   UNL     1       3.560   3.975   1.460  1.00  0.00     0.036 A 
HETATM   12  C   UNL     1       3.194   3.806   0.134  1.00  0.00     0.030 A 
HETATM   13  C   UNL     1       2.912   2.536  -0.371  1.00  0.00     0.010 A 
HETATM   14  C   UNL     1       3.008   1.385   0.424  1.00  0.00    -0.051 A 
HETATM   15  C   UNL     1       3.388   1.569   1.765  1.00  0.00     0.010 A 
HETATM   16  C   UNL     1       3.673   2.845   2.274  1.00  0.00     0.030 A 
BRANCH  14  17
HETATM   17  C   UNL     1       2.661   0.003  -0.151  1.00  0.00    -0.024 C 
HETATM   18  C   UNL     1       2.967  -0.087  -1.665  1.00  0.00     0.019 C 
HETATM   19  C   UNL     1       1.156  -0.254   0.059  1.00  0.00     0.019 C 
HETATM   20  C   UNL     1       3.455  -1.137   0.523  1.00  0.00     0.019 C 
ENDBRANCH  14  17
ENDBRANCH   1  11
BRANCH   7  21
HETATM   21  C   UNL     1       4.882  11.068   4.269  1.00  0.00     0.125 A 
HETATM   22  N   UNL     1       4.276  12.241   3.950  1.00  0.00    -0.351 N 
HETATM   23  C   UNL     1       4.811  13.404   4.380  1.00  0.00     0.090 A 
ATOM     24  HN  UNL     1       3.423  12.243   3.390  1.00  0.00     0.166 HD
HETATM   25  C   UNL     1       5.952  13.486   5.148  1.00  0.00     0.019 A 
HETATM   26  C   UNL     1       6.593  12.300   5.475  1.00  0.00     0.029 A 
HETATM   27  C   UNL     1       6.073  11.084   5.026  1.00  0.00     0.077 A 
HETATM   28 CL   UNL     1       7.053   9.687   5.335  1.00  0.00    -0.080 Cl
ENDBRANCH   7  21
TORSDOF 3
