MODEL 1
REMARK VINA RESULT:      -8.5      0.000      0.000
REMARK  3 active torsions:
REMARK  status: ('A' for Active; 'I' for Inactive)
REMARK    1  A    between atoms: C_2  and  C_5 
REMARK    2  A    between atoms: C_8  and  N_9 
REMARK       I    between atoms: N_9  and  C_10 
REMARK       I    between atoms: C_10  and  N_12 
REMARK    3  A    between atoms: N_15  and  C_16 
ROOT
HETATM    1  N   UNL     1     -20.990  -7.579  -4.456  1.00  0.00    -0.309 N 
HETATM    2  C   UNL     1     -21.877  -6.572  -4.767  1.00  0.00     0.323 C 
HETATM    3  O   UNL     1     -22.745  -6.156  -4.002  1.00  0.00    -0.247 OA
HETATM    4  N   UNL     1     -21.730  -6.011  -6.025  1.00  0.00    -0.331 N 
HETATM    5  C   UNL     1     -20.810  -6.457  -7.093  1.00  0.00     0.147 C 
HETATM    6  C   UNL     1     -20.320  -5.272  -7.944  1.00  0.00     0.144 C 
HETATM    7  N   UNL     1     -21.491  -4.559  -8.445  1.00  0.00    -0.363 N 
HETATM    8  C   UNL     1     -22.307  -3.966  -7.379  1.00  0.00     0.144 C 
HETATM    9  C   UNL     1     -22.810  -5.107  -6.477  1.00  0.00     0.147 C 
HETATM   10  H   UNL     1     -20.246  -7.767  -5.098  1.00  0.00     0.170 HD
ENDROOT
BRANCH   1  11
HETATM   11  C   UNL     1     -20.930  -8.304  -3.251  1.00  0.00     0.036 A 
HETATM   12  C   UNL     1     -20.720  -7.717  -2.013  1.00  0.00     0.030 A 
HETATM   13  C   UNL     1     -20.628  -8.499  -0.861  1.00  0.00     0.010 A 
HETATM   14  C   UNL     1     -20.766  -9.894  -0.899  1.00  0.00    -0.051 A 
HETATM   15  C   UNL     1     -20.987 -10.476  -2.160  1.00  0.00     0.010 A 
HETATM   16  C   UNL     1     -21.081  -9.691  -3.319  1.00  0.00     0.030 A 
BRANCH  14  17
HETATM   17  C   UNL     1     -20.628 -10.732   0.381  1.00  0.00    -0.024 C 
HETATM   18  C   UNL     1     -20.515  -9.844   1.644  1.00  0.00     0.019 C 
HETATM   19  C   UNL     1     -19.354 -11.591   0.273  1.00  0.00     0.019 C 
HETATM   20  C   UNL     1     -21.836 -11.666   0.612  1.00  0.00     0.019 C 
ENDBRANCH  14  17
ENDBRANCH   1  11
BRANCH   7  21
HETATM   21  C   UNL     1     -21.656  -4.149  -9.744  1.00  0.00     0.125 A 
HETATM   22  N   UNL     1     -20.574  -3.578 -10.333  1.00  0.00    -0.351 N 
HETATM   23  C   UNL     1     -20.675  -3.105 -11.594  1.00  0.00     0.090 A 
ATOM     24  HN  UNL     1     -19.691  -3.508  -9.826  1.00  0.00     0.166 HD
HETATM   25  C   UNL     1     -21.826  -3.171 -12.348  1.00  0.00     0.019 A 
HETATM   26  C   UNL     1     -22.947  -3.740 -11.760  1.00  0.00     0.029 A 
HETATM   27  C   UNL     1     -22.876  -4.219 -10.450  1.00  0.00     0.077 A 
HETATM   28 CL   UNL     1     -24.379  -4.737  -9.756  1.00  0.00    -0.080 Cl
ENDBRANCH   7  21
TORSDOF 3
ENDMDL
MODEL 2
REMARK VINA RESULT:      -7.9      3.950     10.734
REMARK  3 active torsions:
REMARK  status: ('A' for Active; 'I' for Inactive)
REMARK    1  A    between atoms: C_2  and  C_5 
REMARK    2  A    between atoms: C_8  and  N_9 
REMARK       I    between atoms: N_9  and  C_10 
REMARK       I    between atoms: C_10  and  N_12 
REMARK    3  A    between atoms: N_15  and  C_16 
ROOT
HETATM    1  N   UNL     1     -21.538  -8.657  -3.862  1.00  0.00    -0.309 N 
HETATM    2  C   UNL     1     -21.067  -8.665  -2.568  1.00  0.00     0.323 C 
HETATM    3  O   UNL     1     -20.381  -7.770  -2.077  1.00  0.00    -0.247 OA
HETATM    4  N   UNL     1     -21.432  -9.762  -1.804  1.00  0.00    -0.331 N 
HETATM    5  C   UNL     1     -22.162 -10.961  -2.265  1.00  0.00     0.147 C 
HETATM    6  C   UNL     1     -23.057 -11.537  -1.152  1.00  0.00     0.144 C 
HETATM    7  N   UNL     1     -22.221 -11.780   0.020  1.00  0.00    -0.363 N 
HETATM    8  C   UNL     1     -21.638 -10.555   0.579  1.00  0.00     0.144 C 
HETATM    9  C   UNL     1     -20.747  -9.918  -0.502  1.00  0.00     0.147 C 
HETATM   10  H   UNL     1     -22.185  -9.372  -4.132  1.00  0.00     0.170 HD
ENDROOT
BRANCH   1  11
HETATM   11  C   UNL     1     -21.312  -7.664  -4.833  1.00  0.00     0.036 A 
HETATM   12  C   UNL     1     -20.150  -7.576  -5.583  1.00  0.00     0.030 A 
HETATM   13  C   UNL     1     -19.971  -6.540  -6.500  1.00  0.00     0.010 A 
HETATM   14  C   UNL     1     -20.956  -5.567  -6.720  1.00  0.00    -0.051 A 
HETATM   15  C   UNL     1     -22.134  -5.672  -5.959  1.00  0.00     0.010 A 
HETATM   16  C   UNL     1     -22.316  -6.714  -5.037  1.00  0.00     0.030 A 
BRANCH  14  17
HETATM   17  C   UNL     1     -20.719  -4.419  -7.714  1.00  0.00    -0.024 C 
HETATM   18  C   UNL     1     -19.212  -4.144  -7.930  1.00  0.00     0.019 C 
HETATM   19  C   UNL     1     -21.374  -3.141  -7.156  1.00  0.00     0.019 C 
HETATM   20  C   UNL     1     -21.313  -4.710  -9.109  1.00  0.00     0.019 C 
ENDBRANCH  14  17
ENDBRANCH   1  11
BRANCH   7  21
HETATM   21  C   UNL     1     -22.241 -12.933   0.764  1.00  0.00     0.125 A 
HETATM   22  N   UNL     1     -23.357 -13.144   1.509  1.00  0.00    -0.351 N 
HETATM   23  C   UNL     1     -23.428 -14.231   2.307  1.00  0.00     0.090 A 
ATOM     24  HN  UNL     1     -24.135 -12.486   1.466  1.00  0.00     0.166 HD
HETATM   25  C   UNL     1     -22.426 -15.172   2.413  1.00  0.00     0.019 A 
HETATM   26  C   UNL     1     -21.273 -14.968   1.669  1.00  0.00     0.029 A 
HETATM   27  C   UNL     1     -21.164 -13.841   0.852  1.00  0.00     0.077 A 
HETATM   28 CL   UNL     1     -19.614 -13.592   0.116  1.00  0.00    -0.080 Cl
ENDBRANCH   7  21
TORSDOF 3
ENDMDL
MODEL 3
REMARK VINA RESULT:      -7.8     17.796     20.109
REMARK  3 active torsions:
REMARK  status: ('A' for Active; 'I' for Inactive)
REMARK    1  A    between atoms: C_2  and  C_5 
REMARK    2  A    between atoms: C_8  and  N_9 
REMARK       I    between atoms: N_9  and  C_10 
REMARK       I    between atoms: C_10  and  N_12 
REMARK    3  A    between atoms: N_15  and  C_16 
ROOT
HETATM    1  N   UNL     1     -21.769   9.075   2.447  1.00  0.00    -0.309 N 
HETATM    2  C   UNL     1     -20.763   9.983   2.203  1.00  0.00     0.323 C 
HETATM    3  O   UNL     1     -20.847  10.905   1.393  1.00  0.00    -0.247 OA
HETATM    4  N   UNL     1     -19.611   9.819   2.955  1.00  0.00    -0.331 N 
HETATM    5  C   UNL     1     -19.313   8.715   3.891  1.00  0.00     0.147 C 
HETATM    6  C   UNL     1     -18.443   9.194   5.067  1.00  0.00     0.144 C 
HETATM    7  N   UNL     1     -17.249   9.829   4.518  1.00  0.00    -0.363 N 
HETATM    8  C   UNL     1     -17.544  11.033   3.732  1.00  0.00     0.144 C 
HETATM    9  C   UNL     1     -18.435  10.618   2.547  1.00  0.00     0.147 C 
HETATM   10  H   UNL     1     -21.651   8.434   3.207  1.00  0.00     0.170 HD
ENDROOT
BRANCH   1  11
HETATM   11  C   UNL     1     -23.028   9.027   1.821  1.00  0.00     0.036 A 
HETATM   12  C   UNL     1     -23.241   8.471   0.569  1.00  0.00     0.030 A 
HETATM   13  C   UNL     1     -24.509   8.494  -0.014  1.00  0.00     0.010 A 
HETATM   14  C   UNL     1     -25.616   9.052   0.642  1.00  0.00    -0.051 A 
HETATM   15  C   UNL     1     -25.388   9.604   1.914  1.00  0.00     0.010 A 
HETATM   16  C   UNL     1     -24.115   9.581   2.503  1.00  0.00     0.030 A 
BRANCH  14  17
HETATM   17  C   UNL     1     -26.993   9.091  -0.038  1.00  0.00    -0.024 C 
HETATM   18  C   UNL     1     -27.403  10.530  -0.433  1.00  0.00     0.019 C 
HETATM   19  C   UNL     1     -28.043   8.537   0.945  1.00  0.00     0.019 C 
HETATM   20  C   UNL     1     -27.040   8.252  -1.334  1.00  0.00     0.019 C 
ENDBRANCH  14  17
ENDBRANCH   1  11
BRANCH   7  21
HETATM   21  C   UNL     1     -15.970   9.591   4.953  1.00  0.00     0.125 A 
HETATM   22  N   UNL     1     -15.662  10.060   6.190  1.00  0.00    -0.351 N 
HETATM   23  C   UNL     1     -14.407   9.907   6.666  1.00  0.00     0.090 A 
ATOM     24  HN  UNL     1     -16.373  10.525   6.755  1.00  0.00     0.166 HD
HETATM   25  C   UNL     1     -13.394   9.283   5.971  1.00  0.00     0.019 A 
HETATM   26  C   UNL     1     -13.685   8.806   4.701  1.00  0.00     0.029 A 
HETATM   27  C   UNL     1     -14.969   8.970   4.176  1.00  0.00     0.077 A 
HETATM   28 CL   UNL     1     -15.168   8.505   2.517  1.00  0.00    -0.080 Cl
ENDBRANCH   7  21
TORSDOF 3
ENDMDL
MODEL 4
REMARK VINA RESULT:      -7.8      2.727      4.818
REMARK  3 active torsions:
REMARK  status: ('A' for Active; 'I' for Inactive)
REMARK    1  A    between atoms: C_2  and  C_5 
REMARK    2  A    between atoms: C_8  and  N_9 
REMARK       I    between atoms: N_9  and  C_10 
REMARK       I    between atoms: C_10  and  N_12 
REMARK    3  A    between atoms: N_15  and  C_16 
ROOT
HETATM    1  N   UNL     1     -21.928 -10.619  -1.376  1.00  0.00    -0.309 N 
HETATM    2  C   UNL     1     -22.011  -9.258  -1.189  1.00  0.00     0.323 C 
HETATM    3  O   UNL     1     -22.280  -8.724  -0.114  1.00  0.00    -0.247 OA
HETATM    4  N   UNL     1     -21.749  -8.482  -2.306  1.00  0.00    -0.331 N 
HETATM    5  C   UNL     1     -21.510  -8.962  -3.684  1.00  0.00     0.147 C 
HETATM    6  C   UNL     1     -20.527  -8.047  -4.435  1.00  0.00     0.144 C 
HETATM    7  N   UNL     1     -21.042  -6.683  -4.377  1.00  0.00    -0.363 N 
HETATM    8  C   UNL     1     -21.111  -6.148  -3.011  1.00  0.00     0.144 C 
HETATM    9  C   UNL     1     -22.067  -7.041  -2.201  1.00  0.00     0.147 C 
HETATM   10  H   UNL     1     -21.588 -10.954  -2.256  1.00  0.00     0.170 HD
ENDROOT
BRANCH   1  11
HETATM   11  C   UNL     1     -22.145 -11.616  -0.407  1.00  0.00     0.036 A 
HETATM   12  C   UNL     1     -21.123 -12.285   0.249  1.00  0.00     0.030 A 
HETATM   13  C   UNL     1     -21.407 -13.295   1.169  1.00  0.00     0.010 A 
HETATM   14  C   UNL     1     -22.724 -13.658   1.486  1.00  0.00    -0.051 A 
HETATM   15  C   UNL     1     -23.752 -12.967   0.821  1.00  0.00     0.010 A 
HETATM   16  C   UNL     1     -23.468 -11.951  -0.104  1.00  0.00     0.030 A 
BRANCH  14  17
HETATM   17  C   UNL     1     -23.006 -14.796   2.480  1.00  0.00    -0.024 C 
HETATM   18  C   UNL     1     -21.885 -14.931   3.538  1.00  0.00     0.019 C 
HETATM   19  C   UNL     1     -23.102 -16.120   1.698  1.00  0.00     0.019 C 
HETATM   20  C   UNL     1     -24.321 -14.588   3.262  1.00  0.00     0.019 C 
ENDBRANCH  14  17
ENDBRANCH   1  11
BRANCH   7  21
HETATM   21  C   UNL     1     -21.120  -5.832  -5.450  1.00  0.00     0.125 A 
HETATM   22  N   UNL     1     -19.948  -5.280  -5.860  1.00  0.00    -0.351 N 
HETATM   23  C   UNL     1     -19.952  -4.394  -6.880  1.00  0.00     0.090 A 
ATOM     24  HN  UNL     1     -19.073  -5.532  -5.401  1.00  0.00     0.166 HD
HETATM   25  C   UNL     1     -21.088  -4.009  -7.558  1.00  0.00     0.019 A 
HETATM   26  C   UNL     1     -22.296  -4.553  -7.147  1.00  0.00     0.029 A 
HETATM   27  C   UNL     1     -22.324  -5.456  -6.082  1.00  0.00     0.077 A 
HETATM   28 CL   UNL     1     -23.902  -5.927  -5.536  1.00  0.00    -0.080 Cl
ENDBRANCH   7  21
TORSDOF 3
ENDMDL
MODEL 5
REMARK VINA RESULT:      -7.6      1.819      2.176
REMARK  3 active torsions:
REMARK  status: ('A' for Active; 'I' for Inactive)
REMARK    1  A    between atoms: C_2  and  C_5 
REMARK    2  A    between atoms: C_8  and  N_9 
REMARK       I    between atoms: N_9  and  C_10 
REMARK       I    between atoms: C_10  and  N_12 
REMARK    3  A    between atoms: N_15  and  C_16 
ROOT
HETATM    1  N   UNL     1     -21.991  -6.220  -4.995  1.00  0.00    -0.309 N 
HETATM    2  C   UNL     1     -23.114  -5.789  -5.666  1.00  0.00     0.323 C 
HETATM    3  O   UNL     1     -24.260  -5.889  -5.231  1.00  0.00    -0.247 OA
HETATM    4  N   UNL     1     -22.885  -5.196  -6.898  1.00  0.00    -0.331 N 
HETATM    5  C   UNL     1     -21.592  -5.087  -7.603  1.00  0.00     0.147 C 
HETATM    6  C   UNL     1     -21.510  -3.793  -8.433  1.00  0.00     0.144 C 
HETATM    7  N   UNL     1     -22.665  -3.754  -9.325  1.00  0.00    -0.363 N 
HETATM    8  C   UNL     1     -23.946  -3.684  -8.612  1.00  0.00     0.144 C 
HETATM    9  C   UNL     1     -24.073  -4.948  -7.743  1.00  0.00     0.147 C 
HETATM   10  H   UNL     1     -21.095  -5.988  -5.377  1.00  0.00     0.170 HD
ENDROOT
BRANCH   1  11
HETATM   11  C   UNL     1     -21.954  -6.849  -3.736  1.00  0.00     0.036 A 
HETATM   12  C   UNL     1     -22.131  -6.176  -2.538  1.00  0.00     0.030 A 
HETATM   13  C   UNL     1     -22.039  -6.853  -1.321  1.00  0.00     0.010 A 
HETATM   14  C   UNL     1     -21.789  -8.231  -1.257  1.00  0.00    -0.051 A 
HETATM   15  C   UNL     1     -21.619  -8.903  -2.480  1.00  0.00     0.010 A 
HETATM   16  C   UNL     1     -21.713  -8.224  -3.704  1.00  0.00     0.030 A 
BRANCH  14  17
HETATM   17  C   UNL     1     -21.661  -8.943   0.098  1.00  0.00    -0.024 C 
HETATM   18  C   UNL     1     -21.209  -7.978   1.219  1.00  0.00     0.019 C 
HETATM   19  C   UNL     1     -20.613 -10.065  -0.032  1.00  0.00     0.019 C 
HETATM   20  C   UNL     1     -22.994  -9.565   0.570  1.00  0.00     0.019 C 
ENDBRANCH  14  17
ENDBRANCH   1  11
BRANCH   7  21
HETATM   21  C   UNL     1     -22.606  -3.448 -10.662  1.00  0.00     0.125 A 
HETATM   22  N   UNL     1     -23.738  -2.928 -11.205  1.00  0.00    -0.351 N 
HETATM   23  C   UNL     1     -23.772  -2.648 -12.526  1.00  0.00     0.090 A 
ATOM     24  HN  UNL     1     -24.554  -2.751 -10.620  1.00  0.00     0.166 HD
HETATM   25  C   UNL     1     -22.711  -2.848 -13.381  1.00  0.00     0.019 A 
HETATM   26  C   UNL     1     -21.550  -3.389 -12.848  1.00  0.00     0.029 A 
HETATM   27  C   UNL     1     -21.493  -3.707 -11.489  1.00  0.00     0.077 A 
HETATM   28 CL   UNL     1     -20.066  -4.546 -10.972  1.00  0.00    -0.080 Cl
ENDBRANCH   7  21
TORSDOF 3
ENDMDL
MODEL 6
REMARK VINA RESULT:      -7.5      3.394     10.375
REMARK  3 active torsions:
REMARK  status: ('A' for Active; 'I' for Inactive)
REMARK    1  A    between atoms: C_2  and  C_5 
REMARK    2  A    between atoms: C_8  and  N_9 
REMARK       I    between atoms: N_9  and  C_10 
REMARK       I    between atoms: C_10  and  N_12 
REMARK    3  A    between atoms: N_15  and  C_16 
ROOT
HETATM    1  N   UNL     1     -21.182  -7.884  -4.567  1.00  0.00    -0.309 N 
HETATM    2  C   UNL     1     -21.210  -9.254  -4.697  1.00  0.00     0.323 C 
HETATM    3  O   UNL     1     -21.145  -9.848  -5.772  1.00  0.00    -0.247 OA
HETATM    4  N   UNL     1     -21.298  -9.967  -3.511  1.00  0.00    -0.331 N 
HETATM    5  C   UNL     1     -21.482  -9.412  -2.154  1.00  0.00     0.147 C 
HETATM    6  C   UNL     1     -20.772 -10.273  -1.093  1.00  0.00     0.144 C 
HETATM    7  N   UNL     1     -21.250 -11.645  -1.230  1.00  0.00    -0.363 N 
HETATM    8  C   UNL     1     -20.907 -12.252  -2.522  1.00  0.00     0.144 C 
HETATM    9  C   UNL     1     -21.574 -11.415  -3.629  1.00  0.00     0.147 C 
HETATM   10  H   UNL     1     -21.121  -7.498  -3.645  1.00  0.00     0.170 HD
ENDROOT
BRANCH   1  11
HETATM   11  C   UNL     1     -21.096  -6.942  -5.609  1.00  0.00     0.036 A 
HETATM   12  C   UNL     1     -22.157  -6.148  -6.015  1.00  0.00     0.030 A 
HETATM   13  C   UNL     1     -22.016  -5.263  -7.085  1.00  0.00     0.010 A 
HETATM   14  C   UNL     1     -20.804  -5.123  -7.775  1.00  0.00    -0.051 A 
HETATM   15  C   UNL     1     -19.733  -5.928  -7.349  1.00  0.00     0.010 A 
HETATM   16  C   UNL     1     -19.872  -6.817  -6.272  1.00  0.00     0.030 A 
BRANCH  14  17
HETATM   17  C   UNL     1     -20.688  -4.164  -8.970  1.00  0.00    -0.024 C 
HETATM   18  C   UNL     1     -20.071  -4.855 -10.209  1.00  0.00     0.019 C 
HETATM   19  C   UNL     1     -19.782  -2.984  -8.568  1.00  0.00     0.019 C 
HETATM   20  C   UNL     1     -22.056  -3.605  -9.418  1.00  0.00     0.019 C 
ENDBRANCH  14  17
ENDBRANCH   1  11
BRANCH   7  21
HETATM   21  C   UNL     1     -21.649 -12.439  -0.184  1.00  0.00     0.125 A 
HETATM   22  N   UNL     1     -20.780 -13.413   0.191  1.00  0.00    -0.351 N 
HETATM   23  C   UNL     1     -21.124 -14.265   1.180  1.00  0.00     0.090 A 
ATOM     24  HN  UNL     1     -19.874 -13.499  -0.271  1.00  0.00     0.166 HD
HETATM   25  C   UNL     1     -22.321 -14.209   1.860  1.00  0.00     0.019 A 
HETATM   26  C   UNL     1     -23.228 -13.228   1.484  1.00  0.00     0.029 A 
HETATM   27  C   UNL     1     -22.906 -12.346   0.450  1.00  0.00     0.077 A 
HETATM   28 CL   UNL     1     -24.181 -11.287  -0.059  1.00  0.00    -0.080 Cl
ENDBRANCH   7  21
TORSDOF 3
ENDMDL
MODEL 7
REMARK VINA RESULT:      -7.3      2.713     10.094
REMARK  3 active torsions:
REMARK  status: ('A' for Active; 'I' for Inactive)
REMARK    1  A    between atoms: C_2  and  C_5 
REMARK    2  A    between atoms: C_8  and  N_9 
REMARK       I    between atoms: N_9  and  C_10 
REMARK       I    between atoms: C_10  and  N_12 
REMARK    3  A    between atoms: N_15  and  C_16 
ROOT
HETATM    1  N   UNL     1     -21.338  -6.720  -6.402  1.00  0.00    -0.309 N 
HETATM    2  C   UNL     1     -21.236  -6.361  -5.076  1.00  0.00     0.323 C 
HETATM    3  O   UNL     1     -21.185  -5.199  -4.678  1.00  0.00    -0.247 OA
HETATM    4  N   UNL     1     -21.212  -7.410  -4.171  1.00  0.00    -0.331 N 
HETATM    5  C   UNL     1     -21.165  -8.853  -4.487  1.00  0.00     0.147 C 
HETATM    6  C   UNL     1     -21.918  -9.684  -3.432  1.00  0.00     0.144 C 
HETATM    7  N   UNL     1     -21.367  -9.357  -2.121  1.00  0.00    -0.363 N 
HETATM    8  C   UNL     1     -21.575  -7.955  -1.738  1.00  0.00     0.144 C 
HETATM    9  C   UNL     1     -20.860  -7.071  -2.775  1.00  0.00     0.147 C 
HETATM   10  H   UNL     1     -21.491  -7.685  -6.618  1.00  0.00     0.170 HD
ENDROOT
BRANCH   1  11
HETATM   11  C   UNL     1     -21.382  -5.850  -7.507  1.00  0.00     0.036 A 
HETATM   12  C   UNL     1     -22.544  -5.245  -7.960  1.00  0.00     0.030 A 
HETATM   13  C   UNL     1     -22.527  -4.427  -9.090  1.00  0.00     0.010 A 
HETATM   14  C   UNL     1     -21.344  -4.163  -9.796  1.00  0.00    -0.051 A 
HETATM   15  C   UNL     1     -20.171  -4.776  -9.322  1.00  0.00     0.010 A 
HETATM   16  C   UNL     1     -20.187  -5.598  -8.185  1.00  0.00     0.030 A 
BRANCH  14  17
HETATM   17  C   UNL     1     -21.362  -3.283 -11.055  1.00  0.00    -0.024 C 
HETATM   18  C   UNL     1     -21.132  -4.110 -12.342  1.00  0.00     0.019 C 
HETATM   19  C   UNL     1     -20.236  -2.236 -10.940  1.00  0.00     0.019 C 
HETATM   20  C   UNL     1     -22.704  -2.544 -11.245  1.00  0.00     0.019 C 
ENDBRANCH  14  17
ENDBRANCH   1  11
BRANCH   7  21
HETATM   21  C   UNL     1     -21.018 -10.283  -1.170  1.00  0.00     0.125 A 
HETATM   22  N   UNL     1     -19.730 -10.712  -1.198  1.00  0.00    -0.351 N 
HETATM   23  C   UNL     1     -19.326 -11.660  -0.325  1.00  0.00     0.090 A 
ATOM     24  HN  UNL     1     -19.073 -10.321  -1.874  1.00  0.00     0.166 HD
HETATM   25  C   UNL     1     -20.147 -12.229   0.624  1.00  0.00     0.019 A 
HETATM   26  C   UNL     1     -21.470 -11.813   0.662  1.00  0.00     0.029 A 
HETATM   27  C   UNL     1     -21.920 -10.849  -0.243  1.00  0.00     0.077 A 
HETATM   28 CL   UNL     1     -23.626 -10.542  -0.228  1.00  0.00    -0.080 Cl
ENDBRANCH   7  21
TORSDOF 3
ENDMDL
MODEL 8
REMARK VINA RESULT:      -6.8     18.456     20.736
REMARK  3 active torsions:
REMARK  status: ('A' for Active; 'I' for Inactive)
REMARK    1  A    between atoms: C_2  and  C_5 
REMARK    2  A    between atoms: C_8  and  N_9 
REMARK       I    between atoms: N_9  and  C_10 
REMARK       I    between atoms: C_10  and  N_12 
REMARK    3  A    between atoms: N_15  and  C_16 
ROOT
HETATM    1  N   UNL     1     -21.868   9.361   2.679  1.00  0.00    -0.309 N 
HETATM    2  C   UNL     1     -21.664   9.487   4.035  1.00  0.00     0.323 C 
HETATM    3  O   UNL     1     -22.564   9.485   4.872  1.00  0.00    -0.247 OA
HETATM    4  N   UNL     1     -20.342   9.603   4.434  1.00  0.00    -0.331 N 
HETATM    5  C   UNL     1     -19.158   9.723   3.557  1.00  0.00     0.147 C 
HETATM    6  C   UNL     1     -17.922   9.056   4.187  1.00  0.00     0.144 C 
HETATM    7  N   UNL     1     -17.724   9.632   5.514  1.00  0.00    -0.363 N 
HETATM    8  C   UNL     1     -18.832   9.357   6.436  1.00  0.00     0.144 C 
HETATM    9  C   UNL     1     -20.107   9.983   5.844  1.00  0.00     0.147 C 
HETATM   10  H   UNL     1     -21.066   9.256   2.089  1.00  0.00     0.170 HD
ENDROOT
BRANCH   1  11
HETATM   11  C   UNL     1     -23.107   9.228   2.024  1.00  0.00     0.036 A 
HETATM   12  C   UNL     1     -23.264   8.586   0.806  1.00  0.00     0.030 A 
HETATM   13  C   UNL     1     -24.515   8.527   0.188  1.00  0.00     0.010 A 
HETATM   14  C   UNL     1     -25.658   9.086   0.777  1.00  0.00    -0.051 A 
HETATM   15  C   UNL     1     -25.486   9.727   2.016  1.00  0.00     0.010 A 
HETATM   16  C   UNL     1     -24.230   9.786   2.639  1.00  0.00     0.030 A 
BRANCH  14  17
HETATM   17  C   UNL     1     -27.016   9.032   0.059  1.00  0.00    -0.024 C 
HETATM   18  C   UNL     1     -27.494  10.437  -0.380  1.00  0.00     0.019 C 
HETATM   19  C   UNL     1     -28.060   8.440   1.025  1.00  0.00     0.019 C 
HETATM   20  C   UNL     1     -26.978   8.166  -1.219  1.00  0.00     0.019 C 
ENDBRANCH  14  17
ENDBRANCH   1  11
BRANCH   7  21
HETATM   21  C   UNL     1     -16.517  10.066   6.002  1.00  0.00     0.125 A 
HETATM   22  N   UNL     1     -15.571   9.110   6.193  1.00  0.00    -0.351 N 
HETATM   23  C   UNL     1     -14.375   9.454   6.718  1.00  0.00     0.090 A 
ATOM     24  HN  UNL     1     -15.763   8.140   5.941  1.00  0.00     0.166 HD
HETATM   25  C   UNL     1     -14.035  10.741   7.073  1.00  0.00     0.019 A 
HETATM   26  C   UNL     1     -14.991  11.730   6.897  1.00  0.00     0.029 A 
HETATM   27  C   UNL     1     -16.244  11.399   6.375  1.00  0.00     0.077 A 
HETATM   28 CL   UNL     1     -17.418  12.675   6.373  1.00  0.00    -0.080 Cl
ENDBRANCH   7  21
TORSDOF 3
ENDMDL
MODEL 9
REMARK VINA RESULT:      -6.6      2.695     10.191
REMARK  3 active torsions:
REMARK  status: ('A' for Active; 'I' for Inactive)
REMARK    1  A    between atoms: C_2  and  C_5 
REMARK    2  A    between atoms: C_8  and  N_9 
REMARK       I    between atoms: N_9  and  C_10 
REMARK       I    between atoms: C_10  and  N_12 
REMARK    3  A    between atoms: N_15  and  C_16 
ROOT
HETATM    1  N   UNL     1     -21.755  -5.744  -6.502  1.00  0.00    -0.309 N 
HETATM    2  C   UNL     1     -20.753  -6.610  -6.127  1.00  0.00     0.323 C 
HETATM    3  O   UNL     1     -19.836  -6.967  -6.865  1.00  0.00    -0.247 OA
HETATM    4  N   UNL     1     -20.814  -7.067  -4.820  1.00  0.00    -0.331 N 
HETATM    5  C   UNL     1     -21.893  -6.817  -3.842  1.00  0.00     0.147 C 
HETATM    6  C   UNL     1     -21.344  -6.740  -2.406  1.00  0.00     0.144 C 
HETATM    7  N   UNL     1     -20.594  -7.964  -2.143  1.00  0.00    -0.363 N 
HETATM    8  C   UNL     1     -19.416  -8.118  -3.006  1.00  0.00     0.144 C 
HETATM    9  C   UNL     1     -19.903  -8.177  -4.464  1.00  0.00     0.147 C 
HETATM   10  H   UNL     1     -22.389  -5.422  -5.797  1.00  0.00     0.170 HD
ENDROOT
BRANCH   1  11
HETATM   11  C   UNL     1     -21.918  -5.142  -7.764  1.00  0.00     0.036 A 
HETATM   12  C   UNL     1     -20.878  -4.947  -8.660  1.00  0.00     0.030 A 
HETATM   13  C   UNL     1     -21.099  -4.304  -9.879  1.00  0.00     0.010 A 
HETATM   14  C   UNL     1     -22.371  -3.852 -10.257  1.00  0.00    -0.051 A 
HETATM   15  C   UNL     1     -23.419  -4.063  -9.343  1.00  0.00     0.010 A 
HETATM   16  C   UNL     1     -23.198  -4.710  -8.118  1.00  0.00     0.030 A 
BRANCH  14  17
HETATM   17  C   UNL     1     -22.579  -3.119 -11.592  1.00  0.00    -0.024 C 
HETATM   18  C   UNL     1     -21.850  -1.755 -11.622  1.00  0.00     0.019 C 
HETATM   19  C   UNL     1     -24.087  -2.871 -11.789  1.00  0.00     0.019 C 
HETATM   20  C   UNL     1     -22.049  -3.923 -12.799  1.00  0.00     0.019 C 
ENDBRANCH  14  17
ENDBRANCH   1  11
BRANCH   7  21
HETATM   21  C   UNL     1     -20.714  -8.722  -1.005  1.00  0.00     0.125 A 
HETATM   22  N   UNL     1     -21.038  -8.049   0.129  1.00  0.00    -0.351 N 
HETATM   23  C   UNL     1     -21.125  -8.720   1.298  1.00  0.00     0.090 A 
ATOM     24  HN  UNL     1     -21.215  -7.044   0.098  1.00  0.00     0.166 HD
HETATM   25  C   UNL     1     -20.913 -10.075   1.422  1.00  0.00     0.019 A 
HETATM   26  C   UNL     1     -20.568 -10.779   0.278  1.00  0.00     0.029 A 
HETATM   27  C   UNL     1     -20.451 -10.107  -0.941  1.00  0.00     0.077 A 
HETATM   28 CL   UNL     1     -19.837 -11.047  -2.263  1.00  0.00    -0.080 Cl
ENDBRANCH   7  21
TORSDOF 3
ENDMDL
