REMARK  3 active torsions:
REMARK  status: ('A' for Active; 'I' for Inactive)
REMARK    1  A    between atoms: C_2  and  C_3 
REMARK       I    between atoms: C_2  and  N_16 
REMARK    2  A    between atoms: C_4  and  C_5 
REMARK    3  A    between atoms: C_6  and  C_7 
ROOT
HETATM    1  C   UNL     1       3.002  -3.738  -0.445  1.00  0.00     0.001 C 
HETATM    2  C   UNL     1       2.410  -4.942  -0.496  1.00  0.00     0.011 C 
ENDROOT
BRANCH   1   3
HETATM    3  C   UNL     1       2.280  -2.492  -0.294  1.00  0.00     0.005 C 
HETATM    4  C   UNL     1       2.928  -1.322  -0.197  1.00  0.00     0.074 C 
BRANCH   4   5
HETATM    5  C   UNL     1       2.192  -0.085   0.156  1.00  0.00     0.243 C 
HETATM    6  O   UNL     1       1.411   0.416  -0.648  1.00  0.00    -0.268 OA
HETATM    7  N   UNL     1       2.488   0.430   1.412  1.00  0.00    -0.349 N 
HETATM    8  C   UNL     1       3.392  -0.194   2.381  1.00  0.00     0.126 C 
HETATM    9  C   UNL     1       2.030   1.774   1.755  1.00  0.00     0.126 C 
HETATM   10  C   UNL     1       2.778  -0.205   3.776  1.00  0.00     0.020 C 
HETATM   11  C   UNL     1       2.351   1.196   4.202  1.00  0.00     0.003 C 
HETATM   12  C   UNL     1       1.431   1.831   3.159  1.00  0.00     0.020 C 
ENDBRANCH   4   5
ENDBRANCH   1   3
BRANCH   2  13
HETATM   13  C   UNL     1       3.151  -6.214  -0.585  1.00  0.00    -0.033 A 
HETATM   14  C   UNL     1       4.412  -6.393   0.034  1.00  0.00     0.014 A 
HETATM   15  C   UNL     1       5.097  -7.610  -0.047  1.00  0.00     0.040 A 
HETATM   16  C   UNL     1       4.498  -8.635  -0.741  1.00  0.00     0.105 A 
HETATM   17  C   UNL     1       3.263  -8.485  -1.325  1.00  0.00     0.105 A 
HETATM   18  O   UNL     1       5.017  -9.877  -0.931  1.00  0.00    -0.323 OA
HETATM   19  C   UNL     1       2.562  -7.296  -1.257  1.00  0.00     0.051 A 
HETATM   20  O   UNL     1       2.848  -9.618  -1.953  1.00  0.00    -0.323 OA
HETATM   21  C   UNL     1       3.986 -10.479  -1.741  1.00  0.00     0.352 A 
ENDBRANCH   2  13
TORSDOF 3
