MODEL 1
REMARK VINA RESULT:      -8.9      0.000      0.000
REMARK  3 active torsions:
REMARK  status: ('A' for Active; 'I' for Inactive)
REMARK    1  A    between atoms: C_2  and  C_3 
REMARK       I    between atoms: C_2  and  N_16 
REMARK    2  A    between atoms: C_4  and  C_5 
REMARK    3  A    between atoms: C_6  and  C_7 
ROOT
HETATM    1  C   UNL     1     -20.562  -5.268  -4.842  1.00  0.00     0.001 C 
HETATM    2  C   UNL     1     -20.886  -6.546  -4.586  1.00  0.00     0.011 C 
ENDROOT
BRANCH   1   3
HETATM    3  C   UNL     1     -20.172  -4.784  -6.150  1.00  0.00     0.005 C 
HETATM    4  C   UNL     1     -21.091  -4.438  -7.064  1.00  0.00     0.074 C 
BRANCH   4   5
HETATM    5  C   UNL     1     -20.685  -4.136  -8.457  1.00  0.00     0.243 C 
HETATM    6  O   UNL     1     -19.502  -3.947  -8.725  1.00  0.00    -0.268 OA
HETATM    7  N   UNL     1     -21.734  -4.068  -9.366  1.00  0.00    -0.349 N 
HETATM    8  C   UNL     1     -23.138  -4.332  -9.046  1.00  0.00     0.126 C 
HETATM    9  C   UNL     1     -21.485  -3.520 -10.697  1.00  0.00     0.126 C 
HETATM   10  C   UNL     1     -23.780  -5.233 -10.096  1.00  0.00     0.020 C 
HETATM   11  C   UNL     1     -23.604  -4.658 -11.497  1.00  0.00     0.003 C 
HETATM   12  C   UNL     1     -22.132  -4.367 -11.792  1.00  0.00     0.020 C 
ENDBRANCH   4   5
ENDBRANCH   1   3
BRANCH   2  13
HETATM   13  C   UNL     1     -21.345  -7.024  -3.268  1.00  0.00    -0.033 A 
HETATM   14  C   UNL     1     -21.963  -6.162  -2.330  1.00  0.00     0.014 A 
HETATM   15  C   UNL     1     -22.406  -6.632  -1.090  1.00  0.00     0.040 A 
HETATM   16  C   UNL     1     -22.230  -7.968  -0.814  1.00  0.00     0.105 A 
HETATM   17  C   UNL     1     -21.655  -8.823  -1.724  1.00  0.00     0.105 A 
HETATM   18  O   UNL     1     -22.587  -8.596   0.338  1.00  0.00    -0.323 OA
HETATM   19  C   UNL     1     -21.213  -8.386  -2.958  1.00  0.00     0.051 A 
HETATM   20  O   UNL     1     -21.583 -10.099  -1.259  1.00  0.00    -0.323 OA
HETATM   21  C   UNL     1     -22.130  -9.937   0.066  1.00  0.00     0.352 A 
ENDBRANCH   2  13
TORSDOF 3
ENDMDL
MODEL 2
REMARK VINA RESULT:      -8.8      2.618      9.077
REMARK  3 active torsions:
REMARK  status: ('A' for Active; 'I' for Inactive)
REMARK    1  A    between atoms: C_2  and  C_3 
REMARK       I    between atoms: C_2  and  N_16 
REMARK    2  A    between atoms: C_4  and  C_5 
REMARK    3  A    between atoms: C_6  and  C_7 
ROOT
HETATM    1  C   UNL     1     -21.357  -5.763  -5.983  1.00  0.00     0.001 C 
HETATM    2  C   UNL     1     -21.026  -4.664  -6.680  1.00  0.00     0.011 C 
ENDROOT
BRANCH   1   3
HETATM    3  C   UNL     1     -21.193  -5.887  -4.550  1.00  0.00     0.005 C 
HETATM    4  C   UNL     1     -21.963  -6.717  -3.832  1.00  0.00     0.074 C 
BRANCH   4   5
HETATM    5  C   UNL     1     -21.921  -6.686  -2.351  1.00  0.00     0.243 C 
HETATM    6  O   UNL     1     -22.070  -5.624  -1.754  1.00  0.00    -0.268 OA
HETATM    7  N   UNL     1     -21.679  -7.916  -1.750  1.00  0.00    -0.349 N 
HETATM    8  C   UNL     1     -21.540  -9.185  -2.467  1.00  0.00     0.126 C 
HETATM    9  C   UNL     1     -21.354  -7.959  -0.326  1.00  0.00     0.126 C 
HETATM   10  C   UNL     1     -22.349 -10.287  -1.792  1.00  0.00     0.020 C 
HETATM   11  C   UNL     1     -21.985 -10.414  -0.316  1.00  0.00     0.003 C 
HETATM   12  C   UNL     1     -22.113  -9.068   0.398  1.00  0.00     0.020 C 
ENDBRANCH   4   5
ENDBRANCH   1   3
BRANCH   2  13
HETATM   13  C   UNL     1     -21.255  -4.517  -8.129  1.00  0.00    -0.033 A 
HETATM   14  C   UNL     1     -20.238  -4.069  -9.008  1.00  0.00     0.014 A 
HETATM   15  C   UNL     1     -20.464  -3.947 -10.383  1.00  0.00     0.040 A 
HETATM   16  C   UNL     1     -21.709  -4.288 -10.857  1.00  0.00     0.105 A 
HETATM   17  C   UNL     1     -22.698  -4.748 -10.021  1.00  0.00     0.105 A 
HETATM   18  O   UNL     1     -22.111  -4.224 -12.154  1.00  0.00    -0.323 OA
HETATM   19  C   UNL     1     -22.501  -4.883  -8.660  1.00  0.00     0.051 A 
HETATM   20  O   UNL     1     -23.847  -5.036 -10.691  1.00  0.00    -0.323 OA
HETATM   21  C   UNL     1     -23.482  -4.655 -12.034  1.00  0.00     0.352 A 
ENDBRANCH   2  13
TORSDOF 3
ENDMDL
MODEL 3
REMARK VINA RESULT:      -8.4      2.628      8.956
REMARK  3 active torsions:
REMARK  status: ('A' for Active; 'I' for Inactive)
REMARK    1  A    between atoms: C_2  and  C_3 
REMARK       I    between atoms: C_2  and  N_16 
REMARK    2  A    between atoms: C_4  and  C_5 
REMARK    3  A    between atoms: C_6  and  C_7 
ROOT
HETATM    1  C   UNL     1     -21.054  -5.852  -4.511  1.00  0.00     0.001 C 
HETATM    2  C   UNL     1     -21.864  -5.445  -5.501  1.00  0.00     0.011 C 
ENDROOT
BRANCH   1   3
HETATM    3  C   UNL     1     -21.521  -6.240  -3.197  1.00  0.00     0.005 C 
HETATM    4  C   UNL     1     -21.204  -7.433  -2.672  1.00  0.00     0.074 C 
BRANCH   4   5
HETATM    5  C   UNL     1     -21.849  -7.896  -1.421  1.00  0.00     0.243 C 
HETATM    6  O   UNL     1     -22.074  -7.100  -0.514  1.00  0.00    -0.268 OA
HETATM    7  N   UNL     1     -22.127  -9.257  -1.379  1.00  0.00    -0.349 N 
HETATM    8  C   UNL     1     -21.889 -10.194  -2.479  1.00  0.00     0.126 C 
HETATM    9  C   UNL     1     -22.512  -9.865  -0.108  1.00  0.00     0.126 C 
HETATM   10  C   UNL     1     -23.093 -11.105  -2.693  1.00  0.00     0.020 C 
HETATM   11  C   UNL     1     -23.483 -11.816  -1.402  1.00  0.00     0.003 C 
HETATM   12  C   UNL     1     -23.697 -10.815  -0.266  1.00  0.00     0.020 C 
ENDBRANCH   4   5
ENDBRANCH   1   3
BRANCH   2  13
HETATM   13  C   UNL     1     -21.393  -5.112  -6.858  1.00  0.00    -0.033 A 
HETATM   14  C   UNL     1     -20.096  -5.460  -7.309  1.00  0.00     0.014 A 
HETATM   15  C   UNL     1     -19.668  -5.149  -8.604  1.00  0.00     0.040 A 
HETATM   16  C   UNL     1     -20.555  -4.502  -9.432  1.00  0.00     0.105 A 
HETATM   17  C   UNL     1     -21.825  -4.181  -9.018  1.00  0.00     0.105 A 
HETATM   18  O   UNL     1     -20.310  -4.115 -10.712  1.00  0.00    -0.323 OA
HETATM   19  C   UNL     1     -22.276  -4.479  -7.747  1.00  0.00     0.051 A 
HETATM   20  O   UNL     1     -22.542  -3.554  -9.989  1.00  0.00    -0.323 OA
HETATM   21  C   UNL     1     -21.559  -3.472 -11.043  1.00  0.00     0.352 A 
ENDBRANCH   2  13
TORSDOF 3
ENDMDL
MODEL 4
REMARK VINA RESULT:      -8.4      2.804      8.879
REMARK  3 active torsions:
REMARK  status: ('A' for Active; 'I' for Inactive)
REMARK    1  A    between atoms: C_2  and  C_3 
REMARK       I    between atoms: C_2  and  N_16 
REMARK    2  A    between atoms: C_4  and  C_5 
REMARK    3  A    between atoms: C_6  and  C_7 
ROOT
HETATM    1  C   UNL     1     -20.624  -6.955  -5.951  1.00  0.00     0.001 C 
HETATM    2  C   UNL     1     -20.106  -5.866  -6.541  1.00  0.00     0.011 C 
ENDROOT
BRANCH   1   3
HETATM    3  C   UNL     1     -20.039  -7.599  -4.794  1.00  0.00     0.005 C 
HETATM    4  C   UNL     1     -20.683  -8.580  -4.146  1.00  0.00     0.074 C 
BRANCH   4   5
HETATM    5  C   UNL     1     -20.166  -9.090  -2.854  1.00  0.00     0.243 C 
HETATM    6  O   UNL     1     -19.074  -9.647  -2.806  1.00  0.00    -0.268 OA
HETATM    7  N   UNL     1     -21.018  -8.903  -1.772  1.00  0.00    -0.349 N 
HETATM    8  C   UNL     1     -22.304  -8.203  -1.830  1.00  0.00     0.126 C 
HETATM    9  C   UNL     1     -20.735  -9.595  -0.517  1.00  0.00     0.126 C 
HETATM   10  C   UNL     1     -22.450  -7.229  -0.667  1.00  0.00     0.020 C 
HETATM   11  C   UNL     1     -22.232  -7.930   0.671  1.00  0.00     0.003 C 
HETATM   12  C   UNL     1     -20.897  -8.673   0.690  1.00  0.00     0.020 C 
ENDBRANCH   4   5
ENDBRANCH   1   3
BRANCH   2  13
HETATM   13  C   UNL     1     -20.739  -5.174  -7.679  1.00  0.00    -0.033 A 
HETATM   14  C   UNL     1     -20.013  -4.828  -8.845  1.00  0.00     0.014 A 
HETATM   15  C   UNL     1     -20.629  -4.184  -9.923  1.00  0.00     0.040 A 
HETATM   16  C   UNL     1     -21.972  -3.907  -9.818  1.00  0.00     0.105 A 
HETATM   17  C   UNL     1     -22.696  -4.259  -8.704  1.00  0.00     0.105 A 
HETATM   18  O   UNL     1     -22.731  -3.281 -10.756  1.00  0.00    -0.323 OA
HETATM   19  C   UNL     1     -22.114  -4.900  -7.627  1.00  0.00     0.051 A 
HETATM   20  O   UNL     1     -24.005  -3.903  -8.805  1.00  0.00    -0.323 OA
HETATM   21  C   UNL     1     -24.008  -3.240 -10.086  1.00  0.00     0.352 A 
ENDBRANCH   2  13
TORSDOF 3
ENDMDL
MODEL 5
REMARK VINA RESULT:      -8.2      2.657      9.063
REMARK  3 active torsions:
REMARK  status: ('A' for Active; 'I' for Inactive)
REMARK    1  A    between atoms: C_2  and  C_3 
REMARK       I    between atoms: C_2  and  N_16 
REMARK    2  A    between atoms: C_4  and  C_5 
REMARK    3  A    between atoms: C_6  and  C_7 
ROOT
HETATM    1  C   UNL     1     -21.775  -6.332  -5.296  1.00  0.00     0.001 C 
HETATM    2  C   UNL     1     -21.222  -5.312  -5.971  1.00  0.00     0.011 C 
ENDROOT
BRANCH   1   3
HETATM    3  C   UNL     1     -21.365  -6.734  -3.966  1.00  0.00     0.005 C 
HETATM    4  C   UNL     1     -21.255  -8.028  -3.635  1.00  0.00     0.074 C 
BRANCH   4   5
HETATM    5  C   UNL     1     -21.032  -8.424  -2.225  1.00  0.00     0.243 C 
HETATM    6  O   UNL     1     -20.449  -7.663  -1.457  1.00  0.00    -0.268 OA
HETATM    7  N   UNL     1     -21.501  -9.690  -1.894  1.00  0.00    -0.349 N 
HETATM    8  C   UNL     1     -22.229 -10.577  -2.804  1.00  0.00     0.126 C 
HETATM    9  C   UNL     1     -21.103 -10.285  -0.621  1.00  0.00     0.126 C 
HETATM   10  C   UNL     1     -23.450 -11.182  -2.121  1.00  0.00     0.020 C 
HETATM   11  C   UNL     1     -23.065 -11.878  -0.819  1.00  0.00     0.003 C 
HETATM   12  C   UNL     1     -22.284 -10.936   0.097  1.00  0.00     0.020 C 
ENDBRANCH   4   5
ENDBRANCH   1   3
BRANCH   2  13
HETATM   13  C   UNL     1     -21.683  -4.865  -7.298  1.00  0.00    -0.033 A 
HETATM   14  C   UNL     1     -23.013  -4.433  -7.524  1.00  0.00     0.014 A 
HETATM   15  C   UNL     1     -23.433  -3.998  -8.786  1.00  0.00     0.040 A 
HETATM   16  C   UNL     1     -22.505  -3.992  -9.801  1.00  0.00     0.105 A 
HETATM   17  C   UNL     1     -21.204  -4.383  -9.591  1.00  0.00     0.105 A 
HETATM   18  O   UNL     1     -22.734  -3.613 -11.086  1.00  0.00    -0.323 OA
HETATM   19  C   UNL     1     -20.761  -4.813  -8.355  1.00  0.00     0.051 A 
HETATM   20  O   UNL     1     -20.450  -4.294 -10.720  1.00  0.00    -0.323 OA
HETATM   21  C   UNL     1     -21.439  -3.853 -11.673  1.00  0.00     0.352 A 
ENDBRANCH   2  13
TORSDOF 3
ENDMDL
MODEL 6
REMARK VINA RESULT:      -7.6      3.236      9.172
REMARK  3 active torsions:
REMARK  status: ('A' for Active; 'I' for Inactive)
REMARK    1  A    between atoms: C_2  and  C_3 
REMARK       I    between atoms: C_2  and  N_16 
REMARK    2  A    between atoms: C_4  and  C_5 
REMARK    3  A    between atoms: C_6  and  C_7 
ROOT
HETATM    1  C   UNL     1     -21.065  -7.131  -2.418  1.00  0.00     0.001 C 
HETATM    2  C   UNL     1     -21.484  -7.558  -3.620  1.00  0.00     0.011 C 
ENDROOT
BRANCH   1   3
HETATM    3  C   UNL     1     -21.207  -7.898  -1.198  1.00  0.00     0.005 C 
HETATM    4  C   UNL     1     -20.799  -9.173  -1.128  1.00  0.00     0.074 C 
BRANCH   4   5
HETATM    5  C   UNL     1     -21.130 -10.002   0.054  1.00  0.00     0.243 C 
HETATM    6  O   UNL     1     -20.827  -9.616   1.180  1.00  0.00    -0.268 OA
HETATM    7  N   UNL     1     -21.757 -11.207  -0.237  1.00  0.00    -0.349 N 
HETATM    8  C   UNL     1     -22.149 -11.645  -1.579  1.00  0.00     0.126 C 
HETATM    9  C   UNL     1     -21.887 -12.213   0.815  1.00  0.00     0.126 C 
HETATM   10  C   UNL     1     -23.567 -12.204  -1.581  1.00  0.00     0.020 C 
HETATM   11  C   UNL     1     -23.725 -13.311  -0.543  1.00  0.00     0.003 C 
HETATM   12  C   UNL     1     -23.283 -12.833   0.841  1.00  0.00     0.020 C 
ENDBRANCH   4   5
ENDBRANCH   1   3
BRANCH   2  13
HETATM   13  C   UNL     1     -21.281  -6.804  -4.871  1.00  0.00    -0.033 A 
HETATM   14  C   UNL     1     -20.084  -6.904  -5.622  1.00  0.00     0.014 A 
HETATM   15  C   UNL     1     -19.911  -6.193  -6.815  1.00  0.00     0.040 A 
HETATM   16  C   UNL     1     -20.950  -5.400  -7.242  1.00  0.00     0.105 A 
HETATM   17  C   UNL     1     -22.127  -5.312  -6.538  1.00  0.00     0.105 A 
HETATM   18  O   UNL     1     -20.957  -4.634  -8.365  1.00  0.00    -0.323 OA
HETATM   19  C   UNL     1     -22.327  -6.006  -5.360  1.00  0.00     0.051 A 
HETATM   20  O   UNL     1     -23.025  -4.483  -7.135  1.00  0.00    -0.323 OA
HETATM   21  C   UNL     1     -22.258  -4.020  -8.265  1.00  0.00     0.352 A 
ENDBRANCH   2  13
TORSDOF 3
ENDMDL
MODEL 7
REMARK VINA RESULT:      -7.4     16.154     18.109
REMARK  3 active torsions:
REMARK  status: ('A' for Active; 'I' for Inactive)
REMARK    1  A    between atoms: C_2  and  C_3 
REMARK       I    between atoms: C_2  and  N_16 
REMARK    2  A    between atoms: C_4  and  C_5 
REMARK    3  A    between atoms: C_6  and  C_7 
ROOT
HETATM    1  C   UNL     1     -21.306   8.723   2.149  1.00  0.00     0.001 C 
HETATM    2  C   UNL     1     -22.595   9.098   2.155  1.00  0.00     0.011 C 
ENDROOT
BRANCH   1   3
HETATM    3  C   UNL     1     -20.365   9.059   3.197  1.00  0.00     0.005 C 
HETATM    4  C   UNL     1     -19.042   8.989   2.991  1.00  0.00     0.074 C 
BRANCH   4   5
HETATM    5  C   UNL     1     -18.098   9.140   4.123  1.00  0.00     0.243 C 
HETATM    6  O   UNL     1     -18.517   9.139   5.277  1.00  0.00    -0.268 OA
HETATM    7  N   UNL     1     -16.768   9.303   3.755  1.00  0.00    -0.349 N 
HETATM    8  C   UNL     1     -16.271   9.265   2.378  1.00  0.00     0.126 C 
HETATM    9  C   UNL     1     -15.798   9.724   4.762  1.00  0.00     0.126 C 
HETATM   10  C   UNL     1     -15.018   8.403   2.271  1.00  0.00     0.020 C 
HETATM   11  C   UNL     1     -13.950   8.857   3.260  1.00  0.00     0.003 C 
HETATM   12  C   UNL     1     -14.506   8.913   4.683  1.00  0.00     0.020 C 
ENDBRANCH   4   5
ENDBRANCH   1   3
BRANCH   2  13
HETATM   13  C   UNL     1     -23.567   8.701   1.119  1.00  0.00    -0.033 A 
HETATM   14  C   UNL     1     -24.949   8.985   1.238  1.00  0.00     0.014 A 
HETATM   15  C   UNL     1     -25.857   8.614   0.241  1.00  0.00     0.040 A 
HETATM   16  C   UNL     1     -25.360   7.972  -0.869  1.00  0.00     0.105 A 
HETATM   17  C   UNL     1     -24.018   7.712  -1.011  1.00  0.00     0.105 A 
HETATM   18  O   UNL     1     -26.091   7.532  -1.928  1.00  0.00    -0.323 OA
HETATM   19  C   UNL     1     -23.098   8.071  -0.044  1.00  0.00     0.051 A 
HETATM   20  O   UNL     1     -23.736   7.079  -2.181  1.00  0.00    -0.323 OA
HETATM   21  C   UNL     1     -25.059   6.925  -2.733  1.00  0.00     0.352 A 
ENDBRANCH   2  13
TORSDOF 3
ENDMDL
MODEL 8
REMARK VINA RESULT:      -7.4      3.784      9.160
REMARK  3 active torsions:
REMARK  status: ('A' for Active; 'I' for Inactive)
REMARK    1  A    between atoms: C_2  and  C_3 
REMARK       I    between atoms: C_2  and  N_16 
REMARK    2  A    between atoms: C_4  and  C_5 
REMARK    3  A    between atoms: C_6  and  C_7 
ROOT
HETATM    1  C   UNL     1     -20.511  -7.088  -6.094  1.00  0.00     0.001 C 
HETATM    2  C   UNL     1     -20.651  -5.757  -6.205  1.00  0.00     0.011 C 
ENDROOT
BRANCH   1   3
HETATM    3  C   UNL     1     -20.026  -7.750  -4.901  1.00  0.00     0.005 C 
HETATM    4  C   UNL     1     -19.431  -8.950  -4.967  1.00  0.00     0.074 C 
BRANCH   4   5
HETATM    5  C   UNL     1     -19.122  -9.702  -3.728  1.00  0.00     0.243 C 
HETATM    6  O   UNL     1     -20.017  -9.963  -2.928  1.00  0.00    -0.268 OA
HETATM    7  N   UNL     1     -17.783 -10.034  -3.567  1.00  0.00    -0.349 N 
HETATM    8  C   UNL     1     -16.727  -9.753  -4.543  1.00  0.00     0.126 C 
HETATM    9  C   UNL     1     -17.325 -10.533  -2.273  1.00  0.00     0.126 C 
HETATM   10  C   UNL     1     -15.836 -10.971  -4.753  1.00  0.00     0.020 C 
HETATM   11  C   UNL     1     -15.278 -11.481  -3.429  1.00  0.00     0.003 C 
HETATM   12  C   UNL     1     -16.399 -11.740  -2.423  1.00  0.00     0.020 C 
ENDBRANCH   4   5
ENDBRANCH   1   3
BRANCH   2  13
HETATM   13  C   UNL     1     -21.205  -5.090  -7.397  1.00  0.00    -0.033 A 
HETATM   14  C   UNL     1     -22.506  -4.531  -7.408  1.00  0.00     0.014 A 
HETATM   15  C   UNL     1     -23.013  -3.888  -8.542  1.00  0.00     0.040 A 
HETATM   16  C   UNL     1     -22.199  -3.806  -9.647  1.00  0.00     0.105 A 
HETATM   17  C   UNL     1     -20.925  -4.321  -9.644  1.00  0.00     0.105 A 
HETATM   18  O   UNL     1     -22.525  -3.230 -10.835  1.00  0.00    -0.323 OA
HETATM   19  C   UNL     1     -20.397  -4.957  -8.537  1.00  0.00     0.051 A 
HETATM   20  O   UNL     1     -20.287  -4.128 -10.830  1.00  0.00    -0.323 OA
HETATM   21  C   UNL     1     -21.325  -3.480 -11.595  1.00  0.00     0.352 A 
ENDBRANCH   2  13
TORSDOF 3
ENDMDL
MODEL 9
REMARK VINA RESULT:      -7.2      3.894      5.153
REMARK  3 active torsions:
REMARK  status: ('A' for Active; 'I' for Inactive)
REMARK    1  A    between atoms: C_2  and  C_3 
REMARK       I    between atoms: C_2  and  N_16 
REMARK    2  A    between atoms: C_4  and  C_5 
REMARK    3  A    between atoms: C_6  and  C_7 
ROOT
HETATM    1  C   UNL     1     -20.158  -8.951  -3.124  1.00  0.00     0.001 C 
HETATM    2  C   UNL     1     -18.873  -9.130  -3.471  1.00  0.00     0.011 C 
ENDROOT
BRANCH   1   3
HETATM    3  C   UNL     1     -21.094  -8.152  -3.888  1.00  0.00     0.005 C 
HETATM    4  C   UNL     1     -20.667  -7.210  -4.741  1.00  0.00     0.074 C 
BRANCH   4   5
HETATM    5  C   UNL     1     -21.630  -6.270  -5.362  1.00  0.00     0.243 C 
HETATM    6  O   UNL     1     -22.731  -6.091  -4.850  1.00  0.00    -0.268 OA
HETATM    7  N   UNL     1     -21.186  -5.672  -6.535  1.00  0.00    -0.349 N 
HETATM    8  C   UNL     1     -19.856  -5.861  -7.120  1.00  0.00     0.126 C 
HETATM    9  C   UNL     1     -22.140  -4.943  -7.367  1.00  0.00     0.126 C 
HETATM   10  C   UNL     1     -19.249  -4.529  -7.545  1.00  0.00     0.020 C 
HETATM   11  C   UNL     1     -20.187  -3.767  -8.475  1.00  0.00     0.003 C 
HETATM   12  C   UNL     1     -21.573  -3.609  -7.849  1.00  0.00     0.020 C 
ENDBRANCH   4   5
ENDBRANCH   1   3
BRANCH   2  13
HETATM   13  C   UNL     1     -17.939  -9.995  -2.727  1.00  0.00    -0.033 A 
HETATM   14  C   UNL     1     -16.535  -9.821  -2.800  1.00  0.00     0.014 A 
HETATM   15  C   UNL     1     -15.661 -10.640  -2.077  1.00  0.00     0.040 A 
HETATM   16  C   UNL     1     -16.213 -11.617  -1.282  1.00  0.00     0.105 A 
HETATM   17  C   UNL     1     -17.573 -11.782  -1.181  1.00  0.00     0.105 A 
HETATM   18  O   UNL     1     -15.522 -12.507  -0.521  1.00  0.00    -0.323 OA
HETATM   19  C   UNL     1     -18.460 -10.984  -1.879  1.00  0.00     0.051 A 
HETATM   20  O   UNL     1     -17.910 -12.795  -0.338  1.00  0.00    -0.323 OA
HETATM   21  C   UNL     1     -16.604 -13.281   0.037  1.00  0.00     0.352 A 
ENDBRANCH   2  13
TORSDOF 3
ENDMDL
