MODEL 1
REMARK VINA RESULT:      -8.2      0.000      0.000
REMARK  4 active torsions:
REMARK  status: ('A' for Active; 'I' for Inactive)
REMARK    1  A    between atoms: C_5  and  N_6 
REMARK       I    between atoms: N_6  and  C_7 
REMARK       I    between atoms: C_7  and  N_9 
REMARK    2  A    between atoms: N_9  and  C_10 
REMARK    3  A    between atoms: C_12  and  C_13 
REMARK    4  A    between atoms: C_12  and  C_15 
ROOT
HETATM    1  N   UNL     1     -19.540 -10.170  -1.398  1.00  0.00    -0.308 N 
HETATM    2  C   UNL     1     -19.692 -11.250  -2.218  1.00  0.00     0.321 C 
HETATM    3  O   UNL     1     -20.719 -11.617  -2.771  1.00  0.00    -0.247 OA
HETATM    4  N   UNL     1     -18.569 -12.012  -2.344  1.00  0.00    -0.334 N 
HETATM    5  H   UNL     1     -18.954 -10.421  -0.617  1.00  0.00     0.170 HD
HETATM    6  H   UNL     1     -18.811 -12.966  -2.580  1.00  0.00     0.165 HD
ENDROOT
BRANCH   4   7
HETATM    7  C   UNL     1     -17.186 -11.728  -1.977  1.00  0.00     0.125 C 
HETATM    8  C   UNL     1     -16.473 -10.713  -2.946  1.00  0.00     0.073 C 
HETATM    9  C   UNL     1     -16.565 -11.229  -4.415  1.00  0.00     0.121 C 
HETATM   10  O   UNL     1     -16.584 -12.687  -4.426  1.00  0.00    -0.335 OA
HETATM   11  C   UNL     1     -15.843 -13.200  -3.382  1.00  0.00     0.080 C 
HETATM   12  C   UNL     1     -14.583 -13.750  -3.564  1.00  0.00     0.061 C 
HETATM   13  C   UNL     1     -16.315 -12.957  -2.086  1.00  0.00    -0.002 C 
HETATM   14  C   UNL     1     -13.869 -14.168  -2.440  1.00  0.00     0.036 C 
HETATM   15 CL   UNL     1     -12.202 -14.572  -2.588  1.00  0.00    -0.084 Cl
HETATM   16  C   UNL     1     -14.458 -14.169  -1.170  1.00  0.00     0.024 C 
HETATM   17  C   UNL     1     -15.698 -13.555  -0.986  1.00  0.00     0.013 C 
BRANCH   9  18
HETATM   18  C   UNL     1     -15.441 -10.870  -5.399  1.00  0.00     0.263 C 
HETATM   19  F   UNL     1     -15.201  -9.520  -5.279  1.00  0.00    -0.252 F 
ENDBRANCH   9  18
BRANCH   9  20
HETATM   20  C   UNL     1     -17.830 -10.582  -5.023  1.00  0.00     0.263 C 
HETATM   21  F   UNL     1     -17.999  -9.354  -4.442  1.00  0.00    -0.252 F 
ENDBRANCH   9  20
ENDBRANCH   4   7
BRANCH   1  22
HETATM   22  C   UNL     1     -20.590  -9.280  -1.066  1.00  0.00     0.047 A 
HETATM   23  C   UNL     1     -21.045  -8.223  -1.908  1.00  0.00     0.004 A 
HETATM   24  C   UNL     1     -20.626  -7.990  -3.239  1.00  0.00     0.039 A 
HETATM   25  C   UNL     1     -21.958  -7.304  -1.353  1.00  0.00    -0.008 A 
HETATM   26  C   UNL     1     -21.116  -6.894  -3.953  1.00  0.00     0.005 A 
HETATM   27  C   UNL     1     -20.741  -6.667  -5.384  1.00  0.00     0.068 C 
HETATM   28  N   UNL     1     -21.957  -5.990  -3.408  1.00  0.00    -0.369 N 
HETATM   29  C   UNL     1     -22.357  -6.214  -2.140  1.00  0.00     0.100 A 
ATOM     30  HN  UNL     1     -22.275  -5.175  -3.931  1.00  0.00     0.165 HD
HETATM   31  C   UNL     1     -22.439  -7.463  -0.042  1.00  0.00     0.014 A 
HETATM   32  C   UNL     1     -22.025  -8.537   0.741  1.00  0.00     0.003 A 
HETATM   33  C   UNL     1     -21.087  -9.425   0.239  1.00  0.00     0.030 A 
ENDBRANCH   1  22
TORSDOF 4
ENDMDL
MODEL 2
REMARK VINA RESULT:      -8.2      2.832      3.864
REMARK  4 active torsions:
REMARK  status: ('A' for Active; 'I' for Inactive)
REMARK    1  A    between atoms: C_5  and  N_6 
REMARK       I    between atoms: N_6  and  C_7 
REMARK       I    between atoms: C_7  and  N_9 
REMARK    2  A    between atoms: N_9  and  C_10 
REMARK    3  A    between atoms: C_12  and  C_13 
REMARK    4  A    between atoms: C_12  and  C_15 
ROOT
HETATM    1  N   UNL     1     -19.566 -10.441  -2.725  1.00  0.00    -0.308 N 
HETATM    2  C   UNL     1     -18.293 -10.063  -3.039  1.00  0.00     0.321 C 
HETATM    3  O   UNL     1     -17.702  -9.068  -2.646  1.00  0.00    -0.247 OA
HETATM    4  N   UNL     1     -17.685 -10.873  -3.951  1.00  0.00    -0.334 N 
HETATM    5  H   UNL     1     -20.029 -10.784  -3.552  1.00  0.00     0.170 HD
HETATM    6  H   UNL     1     -16.970 -10.365  -4.456  1.00  0.00     0.165 HD
ENDROOT
BRANCH   4   7
HETATM    7  C   UNL     1     -18.053 -12.199  -4.433  1.00  0.00     0.125 C 
HETATM    8  C   UNL     1     -16.913 -13.271  -4.264  1.00  0.00     0.073 C 
HETATM    9  C   UNL     1     -15.608 -12.769  -4.955  1.00  0.00     0.121 C 
HETATM   10  O   UNL     1     -15.946 -11.925  -6.095  1.00  0.00    -0.335 OA
HETATM   11  C   UNL     1     -17.124 -12.335  -6.684  1.00  0.00     0.080 C 
HETATM   12  C   UNL     1     -17.153 -13.037  -7.879  1.00  0.00     0.061 C 
HETATM   13  C   UNL     1     -18.293 -12.204  -5.924  1.00  0.00    -0.002 C 
HETATM   14  C   UNL     1     -18.385 -13.486  -8.359  1.00  0.00     0.036 C 
HETATM   15 CL   UNL     1     -18.436 -14.608  -9.664  1.00  0.00    -0.084 Cl
HETATM   16  C   UNL     1     -19.581 -13.118  -7.731  1.00  0.00     0.024 C 
HETATM   17  C   UNL     1     -19.539 -12.470  -6.496  1.00  0.00     0.013 C 
BRANCH   9  18
HETATM   18  C   UNL     1     -14.634 -13.803  -5.541  1.00  0.00     0.263 C 
HETATM   19  F   UNL     1     -13.902 -13.174  -6.522  1.00  0.00    -0.252 F 
ENDBRANCH   9  18
BRANCH   9  20
HETATM   20  C   UNL     1     -14.789 -12.046  -3.862  1.00  0.00     0.263 C 
HETATM   21  F   UNL     1     -13.636 -12.754  -3.658  1.00  0.00    -0.252 F 
ENDBRANCH   9  20
ENDBRANCH   4   7
BRANCH   1  22
HETATM   22  C   UNL     1     -20.413  -9.710  -1.855  1.00  0.00     0.047 A 
HETATM   23  C   UNL     1     -21.067  -8.492  -2.206  1.00  0.00     0.004 A 
HETATM   24  C   UNL     1     -21.089  -7.909  -3.494  1.00  0.00     0.039 A 
HETATM   25  C   UNL     1     -21.710  -7.785  -1.170  1.00  0.00    -0.008 A 
HETATM   26  C   UNL     1     -21.732  -6.687  -3.706  1.00  0.00     0.005 A 
HETATM   27  C   UNL     1     -21.828  -6.085  -5.073  1.00  0.00     0.068 C 
HETATM   28  N   UNL     1     -22.311  -5.989  -2.707  1.00  0.00    -0.369 N 
HETATM   29  C   UNL     1     -22.291  -6.547  -1.480  1.00  0.00     0.100 A 
ATOM     30  HN  UNL     1     -22.743  -5.081  -2.873  1.00  0.00     0.165 HD
HETATM   31  C   UNL     1     -21.749  -8.295   0.139  1.00  0.00     0.014 A 
HETATM   32  C   UNL     1     -21.154  -9.516   0.444  1.00  0.00     0.003 A 
HETATM   33  C   UNL     1     -20.468 -10.205  -0.543  1.00  0.00     0.030 A 
ENDBRANCH   1  22
TORSDOF 4
ENDMDL
MODEL 3
REMARK VINA RESULT:      -8.0      2.786      4.130
REMARK  4 active torsions:
REMARK  status: ('A' for Active; 'I' for Inactive)
REMARK    1  A    between atoms: C_5  and  N_6 
REMARK       I    between atoms: N_6  and  C_7 
REMARK       I    between atoms: C_7  and  N_9 
REMARK    2  A    between atoms: N_9  and  C_10 
REMARK    3  A    between atoms: C_12  and  C_13 
REMARK    4  A    between atoms: C_12  and  C_15 
ROOT
HETATM    1  N   UNL     1     -20.210  -9.246  -4.265  1.00  0.00    -0.308 N 
HETATM    2  C   UNL     1     -20.868 -10.376  -4.656  1.00  0.00     0.321 C 
HETATM    3  O   UNL     1     -21.986 -10.733  -4.313  1.00  0.00    -0.247 OA
HETATM    4  N   UNL     1     -20.131 -11.198  -5.454  1.00  0.00    -0.334 N 
HETATM    5  H   UNL     1     -19.243  -9.466  -4.085  1.00  0.00     0.170 HD
HETATM    6  H   UNL     1     -20.453 -12.153  -5.374  1.00  0.00     0.165 HD
ENDROOT
BRANCH   4   7
HETATM    7  C   UNL     1     -18.883 -10.953  -6.168  1.00  0.00     0.125 C 
HETATM    8  C   UNL     1     -18.661 -11.910  -7.398  1.00  0.00     0.073 C 
HETATM    9  C   UNL     1     -18.758 -13.397  -6.935  1.00  0.00     0.121 C 
HETATM   10  O   UNL     1     -18.302 -13.515  -5.556  1.00  0.00    -0.335 OA
HETATM   11  C   UNL     1     -17.313 -12.594  -5.279  1.00  0.00     0.080 C 
HETATM   12  C   UNL     1     -15.975 -12.944  -5.187  1.00  0.00     0.061 C 
HETATM   13  C   UNL     1     -17.679 -11.242  -5.303  1.00  0.00    -0.002 C 
HETATM   14  C   UNL     1     -15.033 -11.933  -4.988  1.00  0.00     0.036 C 
HETATM   15 CL   UNL     1     -13.356 -12.280  -5.167  1.00  0.00    -0.084 Cl
HETATM   16  C   UNL     1     -15.432 -10.614  -4.743  1.00  0.00     0.024 C 
HETATM   17  C   UNL     1     -16.772 -10.259  -4.903  1.00  0.00     0.013 C 
BRANCH   9  18
HETATM   18  C   UNL     1     -17.940 -14.461  -7.684  1.00  0.00     0.263 C 
HETATM   19  F   UNL     1     -17.921 -14.108  -9.014  1.00  0.00    -0.252 F 
ENDBRANCH   9  18
BRANCH   9  20
HETATM   20  C   UNL     1     -20.227 -13.822  -7.148  1.00  0.00     0.263 C 
HETATM   21  F   UNL     1     -20.725 -13.116  -8.209  1.00  0.00    -0.252 F 
ENDBRANCH   9  20
ENDBRANCH   4   7
BRANCH   1  22
HETATM   22  C   UNL     1     -20.755  -8.284  -3.379  1.00  0.00     0.047 A 
HETATM   23  C   UNL     1     -20.997  -8.514  -1.993  1.00  0.00     0.004 A 
HETATM   24  C   UNL     1     -20.608  -9.665  -1.267  1.00  0.00     0.039 A 
HETATM   25  C   UNL     1     -21.726  -7.531  -1.293  1.00  0.00    -0.008 A 
HETATM   26  C   UNL     1     -20.938  -9.793   0.084  1.00  0.00     0.005 A 
HETATM   27  C   UNL     1     -20.479 -10.968   0.889  1.00  0.00     0.068 C 
HETATM   28  N   UNL     1     -21.673  -8.872   0.743  1.00  0.00    -0.369 N 
HETATM   29  C   UNL     1     -22.041  -7.776   0.051  1.00  0.00     0.100 A 
ATOM     30  HN  UNL     1     -21.937  -9.000   1.719  1.00  0.00     0.165 HD
HETATM   31  C   UNL     1     -22.142  -6.349  -1.931  1.00  0.00     0.014 A 
HETATM   32  C   UNL     1     -21.842  -6.121  -3.271  1.00  0.00     0.003 A 
HETATM   33  C   UNL     1     -21.175  -7.095  -3.995  1.00  0.00     0.030 A 
ENDBRANCH   1  22
TORSDOF 4
ENDMDL
MODEL 4
REMARK VINA RESULT:      -7.9      2.865      4.578
REMARK  4 active torsions:
REMARK  status: ('A' for Active; 'I' for Inactive)
REMARK    1  A    between atoms: C_5  and  N_6 
REMARK       I    between atoms: N_6  and  C_7 
REMARK       I    between atoms: C_7  and  N_9 
REMARK    2  A    between atoms: N_9  and  C_10 
REMARK    3  A    between atoms: C_12  and  C_13 
REMARK    4  A    between atoms: C_12  and  C_15 
ROOT
HETATM    1  N   UNL     1     -19.341  -9.522  -4.174  1.00  0.00    -0.308 N 
HETATM    2  C   UNL     1     -18.131  -9.759  -3.591  1.00  0.00     0.321 C 
HETATM    3  O   UNL     1     -17.467  -8.977  -2.927  1.00  0.00    -0.247 OA
HETATM    4  N   UNL     1     -17.613 -10.989  -3.871  1.00  0.00    -0.334 N 
HETATM    5  H   UNL     1     -19.356  -9.929  -5.097  1.00  0.00     0.170 HD
HETATM    6  H   UNL     1     -16.604 -10.974  -3.799  1.00  0.00     0.165 HD
ENDROOT
BRANCH   4   7
HETATM    7  C   UNL     1     -18.241 -12.170  -4.451  1.00  0.00     0.125 C 
HETATM    8  C   UNL     1     -17.525 -13.518  -4.069  1.00  0.00     0.073 C 
HETATM    9  C   UNL     1     -16.015 -13.443  -4.454  1.00  0.00     0.121 C 
HETATM   10  O   UNL     1     -15.846 -12.584  -5.620  1.00  0.00    -0.335 OA
HETATM   11  C   UNL     1     -16.941 -12.659  -6.455  1.00  0.00     0.080 C 
HETATM   12  C   UNL     1     -16.921 -13.371  -7.645  1.00  0.00     0.061 C 
HETATM   13  C   UNL     1     -18.154 -12.166  -5.959  1.00  0.00    -0.002 C 
HETATM   14  C   UNL     1     -18.100 -13.463  -8.387  1.00  0.00     0.036 C 
HETATM   15 CL   UNL     1     -18.200 -14.573  -9.699  1.00  0.00    -0.084 Cl
HETATM   16  C   UNL     1     -19.242 -12.740  -8.019  1.00  0.00     0.024 C 
HETATM   17  C   UNL     1     -19.274 -12.082  -6.789  1.00  0.00     0.013 C 
BRANCH   9  18
HETATM   18  C   UNL     1     -15.284 -14.737  -4.843  1.00  0.00     0.263 C 
HETATM   19  F   UNL     1     -14.170 -14.382  -5.568  1.00  0.00    -0.252 F 
ENDBRANCH   9  18
BRANCH   9  20
HETATM   20  C   UNL     1     -15.271 -12.945  -3.196  1.00  0.00     0.263 C 
HETATM   21  F   UNL     1     -14.476 -11.893  -3.561  1.00  0.00    -0.252 F 
ENDBRANCH   9  20
ENDBRANCH   4   7
BRANCH   1  22
HETATM   22  C   UNL     1     -20.032  -8.289  -4.080  1.00  0.00     0.047 A 
HETATM   23  C   UNL     1     -20.752  -7.857  -2.926  1.00  0.00     0.004 A 
HETATM   24  C   UNL     1     -20.770  -8.512  -1.672  1.00  0.00     0.039 A 
HETATM   25  C   UNL     1     -21.549  -6.703  -3.059  1.00  0.00    -0.008 A 
HETATM   26  C   UNL     1     -21.548  -8.012  -0.625  1.00  0.00     0.005 A 
HETATM   27  C   UNL     1     -21.529  -8.647   0.730  1.00  0.00     0.068 C 
HETATM   28  N   UNL     1     -22.345  -6.932  -0.765  1.00  0.00    -0.369 N 
HETATM   29  C   UNL     1     -22.325  -6.308  -1.960  1.00  0.00     0.100 A 
ATOM     30  HN  UNL     1     -22.935  -6.603  -0.002  1.00  0.00     0.165 HD
HETATM   31  C   UNL     1     -21.583  -5.981  -4.265  1.00  0.00     0.014 A 
HETATM   32  C   UNL     1     -20.825  -6.389  -5.359  1.00  0.00     0.003 A 
HETATM   33  C   UNL     1     -20.075  -7.551  -5.273  1.00  0.00     0.030 A 
ENDBRANCH   1  22
TORSDOF 4
ENDMDL
MODEL 5
REMARK VINA RESULT:      -7.8      5.835      9.616
REMARK  4 active torsions:
REMARK  status: ('A' for Active; 'I' for Inactive)
REMARK    1  A    between atoms: C_5  and  N_6 
REMARK       I    between atoms: N_6  and  C_7 
REMARK       I    between atoms: C_7  and  N_9 
REMARK    2  A    between atoms: N_9  and  C_10 
REMARK    3  A    between atoms: C_12  and  C_13 
REMARK    4  A    between atoms: C_12  and  C_15 
ROOT
HETATM    1  N   UNL     1     -21.545  -6.076  -5.031  1.00  0.00    -0.308 N 
HETATM    2  C   UNL     1     -20.979  -4.885  -5.382  1.00  0.00     0.321 C 
HETATM    3  O   UNL     1     -20.183  -4.227  -4.728  1.00  0.00    -0.247 OA
HETATM    4  N   UNL     1     -21.438  -4.379  -6.561  1.00  0.00    -0.334 N 
HETATM    5  H   UNL     1     -22.521  -6.073  -5.287  1.00  0.00     0.170 HD
HETATM    6  H   UNL     1     -21.341  -3.372  -6.578  1.00  0.00     0.165 HD
ENDROOT
BRANCH   4   7
HETATM    7  C   UNL     1     -22.213  -5.010  -7.623  1.00  0.00     0.125 C 
HETATM    8  C   UNL     1     -21.335  -5.805  -8.659  1.00  0.00     0.073 C 
HETATM    9  C   UNL     1     -20.237  -4.867  -9.251  1.00  0.00     0.121 C 
HETATM   10  O   UNL     1     -20.729  -3.495  -9.289  1.00  0.00    -0.335 OA
HETATM   11  C   UNL     1     -22.091  -3.461  -9.502  1.00  0.00     0.080 C 
HETATM   12  C   UNL     1     -22.644  -3.125 -10.729  1.00  0.00     0.061 C 
HETATM   13  C   UNL     1     -22.906  -3.988  -8.492  1.00  0.00    -0.002 C 
HETATM   14  C   UNL     1     -24.030  -3.200 -10.879  1.00  0.00     0.036 C 
HETATM   15 CL   UNL     1     -24.727  -3.086 -12.449  1.00  0.00    -0.084 Cl
HETATM   16  C   UNL     1     -24.860  -3.468  -9.784  1.00  0.00     0.024 C 
HETATM   17  C   UNL     1     -24.295  -3.869  -8.573  1.00  0.00     0.013 C 
BRANCH   9  18
HETATM   18  C   UNL     1     -19.741  -5.118 -10.684  1.00  0.00     0.263 C 
HETATM   19  F   UNL     1     -19.707  -3.903 -11.329  1.00  0.00    -0.252 F 
ENDBRANCH   9  18
BRANCH   9  20
HETATM   20  C   UNL     1     -18.983  -5.058  -8.371  1.00  0.00     0.263 C 
HETATM   21  F   UNL     1     -18.642  -3.841  -7.847  1.00  0.00    -0.252 F 
ENDBRANCH   9  20
ENDBRANCH   4   7
BRANCH   1  22
HETATM   22  C   UNL     1     -21.272  -6.750  -3.816  1.00  0.00     0.047 A 
HETATM   23  C   UNL     1     -20.420  -7.888  -3.702  1.00  0.00     0.004 A 
HETATM   24  C   UNL     1     -19.618  -8.425  -4.735  1.00  0.00     0.039 A 
HETATM   25  C   UNL     1     -20.409  -8.564  -2.465  1.00  0.00    -0.008 A 
HETATM   26  C   UNL     1     -18.852  -9.572  -4.513  1.00  0.00     0.005 A 
HETATM   27  C   UNL     1     -17.944 -10.119  -5.569  1.00  0.00     0.068 C 
HETATM   28  N   UNL     1     -18.875 -10.244  -3.342  1.00  0.00    -0.369 N 
HETATM   29  C   UNL     1     -19.638  -9.730  -2.358  1.00  0.00     0.100 A 
ATOM     30  HN  UNL     1     -18.339 -11.101  -3.210  1.00  0.00     0.165 HD
HETATM   31  C   UNL     1     -21.166  -8.094  -1.377  1.00  0.00     0.014 A 
HETATM   32  C   UNL     1     -21.944  -6.946  -1.495  1.00  0.00     0.003 A 
HETATM   33  C   UNL     1     -22.015  -6.294  -2.716  1.00  0.00     0.030 A 
ENDBRANCH   1  22
TORSDOF 4
ENDMDL
MODEL 6
REMARK VINA RESULT:      -7.8      1.749      3.091
REMARK  4 active torsions:
REMARK  status: ('A' for Active; 'I' for Inactive)
REMARK    1  A    between atoms: C_5  and  N_6 
REMARK       I    between atoms: N_6  and  C_7 
REMARK       I    between atoms: C_7  and  N_9 
REMARK    2  A    between atoms: N_9  and  C_10 
REMARK    3  A    between atoms: C_12  and  C_13 
REMARK    4  A    between atoms: C_12  and  C_15 
ROOT
HETATM    1  N   UNL     1     -18.650  -9.527  -3.201  1.00  0.00    -0.308 N 
HETATM    2  C   UNL     1     -18.717 -10.802  -3.682  1.00  0.00     0.321 C 
HETATM    3  O   UNL     1     -19.590 -11.277  -4.393  1.00  0.00    -0.247 OA
HETATM    4  N   UNL     1     -17.720 -11.616  -3.232  1.00  0.00    -0.334 N 
HETATM    5  H   UNL     1     -18.346  -9.546  -2.240  1.00  0.00     0.170 HD
HETATM    6  H   UNL     1     -18.018 -12.583  -3.247  1.00  0.00     0.165 HD
ENDROOT
BRANCH   4   7
HETATM    7  C   UNL     1     -16.469 -11.295  -2.555  1.00  0.00     0.125 C 
HETATM    8  C   UNL     1     -15.204 -11.404  -3.485  1.00  0.00     0.073 C 
HETATM    9  C   UNL     1     -15.141 -12.824  -4.129  1.00  0.00     0.121 C 
HETATM   10  O   UNL     1     -15.733 -13.802  -3.226  1.00  0.00    -0.335 OA
HETATM   11  C   UNL     1     -15.528 -13.450  -1.908  1.00  0.00     0.080 C 
HETATM   12  C   UNL     1     -14.586 -14.078  -1.108  1.00  0.00     0.061 C 
HETATM   13  C   UNL     1     -16.158 -12.283  -1.456  1.00  0.00    -0.002 C 
HETATM   14  C   UNL     1     -14.386 -13.600   0.188  1.00  0.00     0.036 C 
HETATM   15 CL   UNL     1     -13.032 -14.146   1.101  1.00  0.00    -0.084 Cl
HETATM   16  C   UNL     1     -15.211 -12.604   0.725  1.00  0.00     0.024 C 
HETATM   17  C   UNL     1     -16.110 -11.933  -0.105  1.00  0.00     0.013 C 
BRANCH   9  18
HETATM   18  C   UNL     1     -13.768 -13.423  -4.470  1.00  0.00     0.263 C 
HETATM   19  F   UNL     1     -12.813 -12.647  -3.854  1.00  0.00    -0.252 F 
ENDBRANCH   9  18
BRANCH   9  20
HETATM   20  C   UNL     1     -15.861 -12.713  -5.492  1.00  0.00     0.263 C 
HETATM   21  F   UNL     1     -15.756 -11.418  -5.923  1.00  0.00    -0.252 F 
ENDBRANCH   9  20
ENDBRANCH   4   7
BRANCH   1  22
HETATM   22  C   UNL     1     -19.617  -8.530  -3.478  1.00  0.00     0.047 A 
HETATM   23  C   UNL     1     -20.555  -8.033  -2.525  1.00  0.00     0.004 A 
HETATM   24  C   UNL     1     -20.576  -8.347  -1.146  1.00  0.00     0.039 A 
HETATM   25  C   UNL     1     -21.579  -7.192  -3.006  1.00  0.00    -0.008 A 
HETATM   26  C   UNL     1     -21.573  -7.828  -0.317  1.00  0.00     0.005 A 
HETATM   27  C   UNL     1     -21.575  -8.090   1.156  1.00  0.00     0.068 C 
HETATM   28  N   UNL     1     -22.577  -7.057  -0.786  1.00  0.00    -0.369 N 
HETATM   29  C   UNL     1     -22.556  -6.758  -2.099  1.00  0.00     0.100 A 
ATOM     30  HN  UNL     1     -23.318  -6.718  -0.173  1.00  0.00     0.165 HD
HETATM   31  C   UNL     1     -21.630  -6.817  -4.360  1.00  0.00     0.014 A 
HETATM   32  C   UNL     1     -20.668  -7.267  -5.260  1.00  0.00     0.003 A 
HETATM   33  C   UNL     1     -19.683  -8.138  -4.824  1.00  0.00     0.030 A 
ENDBRANCH   1  22
TORSDOF 4
ENDMDL
MODEL 7
REMARK VINA RESULT:      -7.7      2.011      3.231
REMARK  4 active torsions:
REMARK  status: ('A' for Active; 'I' for Inactive)
REMARK    1  A    between atoms: C_5  and  N_6 
REMARK       I    between atoms: N_6  and  C_7 
REMARK       I    between atoms: C_7  and  N_9 
REMARK    2  A    between atoms: N_9  and  C_10 
REMARK    3  A    between atoms: C_12  and  C_13 
REMARK    4  A    between atoms: C_12  and  C_15 
ROOT
HETATM    1  N   UNL     1     -19.524  -9.697  -1.763  1.00  0.00    -0.308 N 
HETATM    2  C   UNL     1     -19.442  -9.844  -3.117  1.00  0.00     0.321 C 
HETATM    3  O   UNL     1     -20.353  -9.746  -3.926  1.00  0.00    -0.247 OA
HETATM    4  N   UNL     1     -18.206 -10.214  -3.560  1.00  0.00    -0.334 N 
HETATM    5  H   UNL     1     -18.967 -10.407  -1.313  1.00  0.00     0.170 HD
HETATM    6  H   UNL     1     -18.277 -10.705  -4.441  1.00  0.00     0.165 HD
ENDROOT
BRANCH   4   7
HETATM    7  C   UNL     1     -16.918 -10.214  -2.877  1.00  0.00     0.125 C 
HETATM    8  C   UNL     1     -15.688 -10.092  -3.851  1.00  0.00     0.073 C 
HETATM    9  C   UNL     1     -15.750 -11.220  -4.926  1.00  0.00     0.121 C 
HETATM   10  O   UNL     1     -16.393 -12.402  -4.364  1.00  0.00    -0.335 OA
HETATM   11  C   UNL     1     -16.129 -12.517  -3.015  1.00  0.00     0.080 C 
HETATM   12  C   UNL     1     -15.217 -13.432  -2.511  1.00  0.00     0.061 C 
HETATM   13  C   UNL     1     -16.657 -11.527  -2.177  1.00  0.00    -0.002 C 
HETATM   14  C   UNL     1     -14.950 -13.422  -1.141  1.00  0.00     0.036 C 
HETATM   15 CL   UNL     1     -13.620 -14.324  -0.523  1.00  0.00    -0.084 Cl
HETATM   16  C   UNL     1     -15.683 -12.607  -0.269  1.00  0.00     0.024 C 
HETATM   17  C   UNL     1     -16.548 -11.645  -0.790  1.00  0.00     0.013 C 
BRANCH   9  18
HETATM   18  C   UNL     1     -14.435 -11.761  -5.510  1.00  0.00     0.263 C 
HETATM   19  F   UNL     1     -14.595 -11.855  -6.873  1.00  0.00    -0.252 F 
ENDBRANCH   9  18
BRANCH   9  20
HETATM   20  C   UNL     1     -16.492 -10.621  -6.141  1.00  0.00     0.263 C 
HETATM   21  F   UNL     1     -16.118  -9.311  -6.263  1.00  0.00    -0.252 F 
ENDBRANCH   9  20
ENDBRANCH   4   7
BRANCH   1  22
HETATM   22  C   UNL     1     -20.724  -9.387  -1.076  1.00  0.00     0.047 A 
HETATM   23  C   UNL     1     -21.717 -10.346  -0.722  1.00  0.00     0.004 A 
HETATM   24  C   UNL     1     -21.601 -11.748  -0.868  1.00  0.00     0.039 A 
HETATM   25  C   UNL     1     -22.940  -9.853  -0.223  1.00  0.00    -0.008 A 
HETATM   26  C   UNL     1     -22.663 -12.586  -0.520  1.00  0.00     0.005 A 
HETATM   27  C   UNL     1     -22.538 -14.075  -0.602  1.00  0.00     0.068 C 
HETATM   28  N   UNL     1     -23.848 -12.112  -0.083  1.00  0.00    -0.369 N 
HETATM   29  C   UNL     1     -23.957 -10.776   0.058  1.00  0.00     0.100 A 
ATOM     30  HN  UNL     1     -24.625 -12.736   0.130  1.00  0.00     0.165 HD
HETATM   31  C   UNL     1     -23.141  -8.474  -0.032  1.00  0.00     0.014 A 
HETATM   32  C   UNL     1     -22.133  -7.562  -0.330  1.00  0.00     0.003 A 
HETATM   33  C   UNL     1     -20.942  -8.015  -0.873  1.00  0.00     0.030 A 
ENDBRANCH   1  22
TORSDOF 4
ENDMDL
MODEL 8
REMARK VINA RESULT:      -7.5     19.266     21.276
REMARK  4 active torsions:
REMARK  status: ('A' for Active; 'I' for Inactive)
REMARK    1  A    between atoms: C_5  and  N_6 
REMARK       I    between atoms: N_6  and  C_7 
REMARK       I    between atoms: C_7  and  N_9 
REMARK    2  A    between atoms: N_9  and  C_10 
REMARK    3  A    between atoms: C_12  and  C_13 
REMARK    4  A    between atoms: C_12  and  C_15 
ROOT
HETATM    1  N   UNL     1     -21.769   9.412   2.346  1.00  0.00    -0.308 N 
HETATM    2  C   UNL     1     -21.093  10.561   2.054  1.00  0.00     0.321 C 
HETATM    3  O   UNL     1     -21.565  11.607   1.634  1.00  0.00    -0.247 OA
HETATM    4  N   UNL     1     -19.740  10.457   2.191  1.00  0.00    -0.334 N 
HETATM    5  H   UNL     1     -21.241   8.618   2.017  1.00  0.00     0.170 HD
HETATM    6  H   UNL     1     -19.271  11.127   1.595  1.00  0.00     0.165 HD
ENDROOT
BRANCH   4   7
HETATM    7  C   UNL     1     -18.931   9.434   2.842  1.00  0.00     0.125 C 
HETATM    8  C   UNL     1     -19.131   9.369   4.402  1.00  0.00     0.073 C 
HETATM    9  C   UNL     1     -18.866  10.773   5.028  1.00  0.00     0.121 C 
HETATM   10  O   UNL     1     -17.873  11.488   4.235  1.00  0.00    -0.335 OA
HETATM   11  C   UNL     1     -16.966  10.615   3.672  1.00  0.00     0.080 C 
HETATM   12  C   UNL     1     -15.678  10.462   4.163  1.00  0.00     0.061 C 
HETATM   13  C   UNL     1     -17.454   9.722   2.710  1.00  0.00    -0.002 C 
HETATM   14  C   UNL     1     -14.854   9.495   3.585  1.00  0.00     0.036 C 
HETATM   15 CL   UNL     1     -13.372   9.067   4.350  1.00  0.00    -0.084 Cl
HETATM   16  C   UNL     1     -15.259   8.790   2.445  1.00  0.00     0.024 C 
HETATM   17  C   UNL     1     -16.577   8.902   1.999  1.00  0.00     0.013 C 
BRANCH   9  18
HETATM   18  C   UNL     1     -18.317  10.854   6.461  1.00  0.00     0.263 C 
HETATM   19  F   UNL     1     -17.775   9.627   6.767  1.00  0.00    -0.252 F 
ENDBRANCH   9  18
BRANCH   9  20
HETATM   20  C   UNL     1     -20.237  11.481   5.102  1.00  0.00     0.263 C 
HETATM   21  F   UNL     1     -21.180  10.547   5.433  1.00  0.00    -0.252 F 
ENDBRANCH   9  20
ENDBRANCH   4   7
BRANCH   1  22
HETATM   22  C   UNL     1     -23.171   9.267   2.207  1.00  0.00     0.047 A 
HETATM   23  C   UNL     1     -23.811   8.692   1.069  1.00  0.00     0.004 A 
HETATM   24  C   UNL     1     -23.156   8.061  -0.014  1.00  0.00     0.039 A 
HETATM   25  C   UNL     1     -25.214   8.802   0.995  1.00  0.00    -0.008 A 
HETATM   26  C   UNL     1     -23.892   7.570  -1.095  1.00  0.00     0.005 A 
HETATM   27  C   UNL     1     -23.228   6.837  -2.219  1.00  0.00     0.068 C 
HETATM   28  N   UNL     1     -25.230   7.713  -1.187  1.00  0.00    -0.369 N 
HETATM   29  C   UNL     1     -25.853   8.313  -0.154  1.00  0.00     0.100 A 
ATOM     30  HN  UNL     1     -25.747   7.382  -2.001  1.00  0.00     0.165 HD
HETATM   31  C   UNL     1     -25.949   9.403   2.031  1.00  0.00     0.014 A 
HETATM   32  C   UNL     1     -25.307   9.904   3.160  1.00  0.00     0.003 A 
HETATM   33  C   UNL     1     -23.924   9.858   3.234  1.00  0.00     0.030 A 
ENDBRANCH   1  22
TORSDOF 4
ENDMDL
MODEL 9
REMARK VINA RESULT:      -7.5      3.283      4.187
REMARK  4 active torsions:
REMARK  status: ('A' for Active; 'I' for Inactive)
REMARK    1  A    between atoms: C_5  and  N_6 
REMARK       I    between atoms: N_6  and  C_7 
REMARK       I    between atoms: C_7  and  N_9 
REMARK    2  A    between atoms: N_9  and  C_10 
REMARK    3  A    between atoms: C_12  and  C_13 
REMARK    4  A    between atoms: C_12  and  C_15 
ROOT
HETATM    1  N   UNL     1     -19.926 -10.583  -2.307  1.00  0.00    -0.308 N 
HETATM    2  C   UNL     1     -18.697 -10.278  -2.816  1.00  0.00     0.321 C 
HETATM    3  O   UNL     1     -18.066  -9.245  -2.648  1.00  0.00    -0.247 OA
HETATM    4  N   UNL     1     -18.194 -11.227  -3.655  1.00  0.00    -0.334 N 
HETATM    5  H   UNL     1     -20.479 -11.041  -3.016  1.00  0.00     0.170 HD
HETATM    6  H   UNL     1     -17.541 -10.814  -4.308  1.00  0.00     0.165 HD
ENDROOT
BRANCH   4   7
HETATM    7  C   UNL     1     -18.613 -12.605  -3.884  1.00  0.00     0.125 C 
HETATM    8  C   UNL     1     -17.706 -13.377  -4.913  1.00  0.00     0.073 C 
HETATM    9  C   UNL     1     -17.635 -12.585  -6.255  1.00  0.00     0.121 C 
HETATM   10  O   UNL     1     -18.878 -11.851  -6.460  1.00  0.00    -0.335 OA
HETATM   11  C   UNL     1     -19.951 -12.530  -5.921  1.00  0.00     0.080 C 
HETATM   12  C   UNL     1     -20.860 -13.225  -6.704  1.00  0.00     0.061 C 
HETATM   13  C   UNL     1     -19.977 -12.675  -4.528  1.00  0.00    -0.002 C 
HETATM   14  C   UNL     1     -21.866 -13.955  -6.068  1.00  0.00     0.036 C 
HETATM   15 CL   UNL     1     -22.821 -15.063  -6.975  1.00  0.00    -0.084 Cl
HETATM   16  C   UNL     1     -22.048 -13.876  -4.682  1.00  0.00     0.024 C 
HETATM   17  C   UNL     1     -21.092 -13.230  -3.898  1.00  0.00     0.013 C 
BRANCH   9  18
HETATM   18  C   UNL     1     -17.449 -13.363  -7.566  1.00  0.00     0.263 C 
HETATM   19  F   UNL     1     -17.992 -12.606  -8.578  1.00  0.00    -0.252 F 
ENDBRANCH   9  18
BRANCH   9  20
HETATM   20  C   UNL     1     -16.384 -11.684  -6.161  1.00  0.00     0.263 C 
HETATM   21  F   UNL     1     -16.784 -10.384  -6.310  1.00  0.00    -0.252 F 
ENDBRANCH   9  20
ENDBRANCH   4   7
BRANCH   1  22
HETATM   22  C   UNL     1     -20.670  -9.715  -1.471  1.00  0.00     0.047 A 
HETATM   23  C   UNL     1     -21.259  -8.490  -1.905  1.00  0.00     0.004 A 
HETATM   24  C   UNL     1     -21.314  -8.029  -3.241  1.00  0.00     0.039 A 
HETATM   25  C   UNL     1     -21.793  -7.645  -0.912  1.00  0.00    -0.008 A 
HETATM   26  C   UNL     1     -21.884  -6.789  -3.537  1.00  0.00     0.005 A 
HETATM   27  C   UNL     1     -22.016  -6.311  -4.950  1.00  0.00     0.068 C 
HETATM   28  N   UNL     1     -22.356  -5.960  -2.583  1.00  0.00    -0.369 N 
HETATM   29  C   UNL     1     -22.305  -6.402  -1.311  1.00  0.00     0.100 A 
ATOM     30  HN  UNL     1     -22.734  -5.042  -2.814  1.00  0.00     0.165 HD
HETATM   31  C   UNL     1     -21.792  -8.027   0.441  1.00  0.00     0.014 A 
HETATM   32  C   UNL     1     -21.266  -9.254   0.833  1.00  0.00     0.003 A 
HETATM   33  C   UNL     1     -20.685 -10.080  -0.116  1.00  0.00     0.030 A 
ENDBRANCH   1  22
TORSDOF 4
ENDMDL
