MODEL 1
REMARK VINA RESULT:     -10.5      0.000      0.000
REMARK  11 active torsions:
REMARK  status: ('A' for Active; 'I' for Inactive)
REMARK    1  A    between atoms: C_2  and  C_4 
REMARK    2  A    between atoms: C_10  and  C_11 
REMARK    3  A    between atoms: C_11  and  C_12 
REMARK    4  A    between atoms: C_22  and  C_23 
REMARK    5  A    between atoms: C_23  and  O_24 
REMARK    6  A    between atoms: O_24  and  C_25 
REMARK    7  A    between atoms: C_25  and  C_27 
REMARK    8  A    between atoms: C_27  and  C_28 
REMARK    9  A    between atoms: C_31  and  O_32 
REMARK   10  A    between atoms: C_33  and  O_34 
REMARK   11  A    between atoms: C_38  and  O_39 
ROOT
HETATM    1  C   UNL     1     -21.380 -12.755  -5.956  1.00  0.00     0.116 C 
HETATM    2  C   UNL     1     -22.599 -12.744  -5.039  1.00  0.00     0.053 C 
HETATM    3  C   UNL     1     -22.160 -12.283  -3.665  1.00  0.00     0.020 C 
HETATM    4  C   UNL     1     -21.519 -13.423  -2.836  1.00  0.00     0.013 C 
HETATM    5  C   UNL     1     -21.261 -10.970  -3.752  1.00  0.00     0.083 C 
HETATM    6  O   UNL     1     -19.847 -11.324  -3.780  1.00  0.00    -0.320 OA
HETATM    7  C   UNL     1     -19.423 -11.977  -5.051  1.00  0.00     0.288 C 
HETATM    8  O   UNL     1     -19.656 -11.209  -6.235  1.00  0.00    -0.323 OA
HETATM    9  C   UNL     1     -21.078 -11.217  -6.266  1.00  0.00     0.173 C 
HETATM   10  C   UNL     1     -21.420 -10.171  -5.083  1.00  0.00     0.054 C 
HETATM   11  C   UNL     1     -20.412  -8.920  -5.105  1.00  0.00     0.017 C 
HETATM   12  C   UNL     1     -20.436  -7.900  -4.217  1.00  0.00     0.014 C 
HETATM   13  C   UNL     1     -20.225  -8.122  -2.731  1.00  0.00     0.053 C 
HETATM   14  C   UNL     1     -21.508  -8.696  -2.178  1.00  0.00     0.125 C 
HETATM   15  C   UNL     1     -21.615  -8.699  -0.660  1.00  0.00     0.165 C 
HETATM   16  O   UNL     1     -21.472  -7.718   0.057  1.00  0.00    -0.294 OA
HETATM   17  C   UNL     1     -22.150 -10.006  -0.150  1.00  0.00     0.055 C 
HETATM   18  C   UNL     1     -23.642  -9.870   0.100  1.00  0.00     0.018 C 
HETATM   19  C   UNL     1     -21.690 -10.821  -1.124  1.00  0.00     0.023 C 
HETATM   20  C   UNL     1     -21.798 -10.159  -2.503  1.00  0.00     0.064 C 
HETATM   21  O   UNL     1     -20.192 -13.138  -5.191  1.00  0.00    -0.314 OA
ENDROOT
BRANCH  12  22
HETATM   22  C   UNL     1     -21.057  -6.576  -4.581  1.00  0.00     0.183 C 
BRANCH  22  23
HETATM   23  O   UNL     1     -21.431  -6.582  -5.961  1.00  0.00    -0.321 OA
BRANCH  23  24
HETATM   24  C   UNL     1     -20.564  -5.944  -6.803  1.00  0.00     0.263 C 
HETATM   25  O   UNL     1     -19.515  -6.403  -7.217  1.00  0.00    -0.265 OA
BRANCH  24  26
HETATM   26  C   UNL     1     -21.105  -4.577  -7.146  1.00  0.00     0.149 C 
BRANCH  26  27
HETATM   27  C   UNL     1     -21.274  -4.329  -8.623  1.00  0.00    -0.046 A 
HETATM   28  C   UNL     1     -20.186  -4.432  -9.499  1.00  0.00     0.010 A 
HETATM   29  C   UNL     1     -20.368  -4.242 -10.871  1.00  0.00     0.040 A 
HETATM   30  C   UNL     1     -21.650  -3.978 -11.382  1.00  0.00     0.099 A 
HETATM   31  C   UNL     1     -22.740  -3.864 -10.524  1.00  0.00     0.101 A 
HETATM   32  C   UNL     1     -22.543  -4.026  -9.146  1.00  0.00     0.047 A 
BRANCH  30  33
HETATM   33  O   UNL     1     -21.773  -3.810 -12.736  1.00  0.00    -0.358 OA
HETATM   34  H   UNL     1     -21.086  -4.333 -13.183  1.00  0.00     0.217 HD
ENDBRANCH  30  33
BRANCH  31  35
HETATM   35  O   UNL     1     -24.034  -3.574 -10.871  1.00  0.00    -0.353 OA
HETATM   36  C   UNL     1     -24.933  -3.321  -9.796  1.00  0.00     0.210 C 
ENDBRANCH  31  35
ENDBRANCH  26  27
ENDBRANCH  24  26
ENDBRANCH  23  24
ENDBRANCH  22  23
ENDBRANCH  12  22
BRANCH  14  37
HETATM   37  O   UNL     1     -22.649  -7.886  -2.569  1.00  0.00    -0.382 OA
HETATM   38  H   UNL     1     -22.838  -8.116  -3.500  1.00  0.00     0.211 HD
ENDBRANCH  14  37
BRANCH   1  39
HETATM   39  C   UNL     1     -21.547 -14.001  -6.861  1.00  0.00    -0.056 C 
HETATM   40  C   UNL     1     -20.527 -14.369  -7.678  1.00  0.00     0.017 C 
HETATM   41  C   UNL     1     -22.674 -14.980  -6.742  1.00  0.00     0.046 C 
ENDBRANCH   1  39
BRANCH   7  42
HETATM   42  C   UNL     1     -17.922 -12.252  -4.937  1.00  0.00     0.140 C 
BRANCH  42  43
HETATM   43  C   UNL     1     -17.006 -11.559  -3.937  1.00  0.00    -0.051 A 
HETATM   44  C   UNL     1     -16.626 -10.215  -3.923  1.00  0.00     0.007 A 
HETATM   45  C   UNL     1     -15.858  -9.703  -2.862  1.00  0.00     0.001 A 
HETATM   46  C   UNL     1     -15.457 -10.524  -1.801  1.00  0.00     0.000 A 
HETATM   47  C   UNL     1     -15.800 -11.875  -1.832  1.00  0.00     0.001 A 
HETATM   48  C   UNL     1     -16.551 -12.380  -2.887  1.00  0.00     0.007 A 
ENDBRANCH  42  43
ENDBRANCH   7  42
TORSDOF 11
ENDMDL
MODEL 2
REMARK VINA RESULT:     -10.4      1.572      2.026
REMARK  11 active torsions:
REMARK  status: ('A' for Active; 'I' for Inactive)
REMARK    1  A    between atoms: C_2  and  C_4 
REMARK    2  A    between atoms: C_10  and  C_11 
REMARK    3  A    between atoms: C_11  and  C_12 
REMARK    4  A    between atoms: C_22  and  C_23 
REMARK    5  A    between atoms: C_23  and  O_24 
REMARK    6  A    between atoms: O_24  and  C_25 
REMARK    7  A    between atoms: C_25  and  C_27 
REMARK    8  A    between atoms: C_27  and  C_28 
REMARK    9  A    between atoms: C_31  and  O_32 
REMARK   10  A    between atoms: C_33  and  O_34 
REMARK   11  A    between atoms: C_38  and  O_39 
ROOT
HETATM    1  C   UNL     1     -19.269 -12.361  -5.534  1.00  0.00     0.116 C 
HETATM    2  C   UNL     1     -20.537 -12.793  -4.806  1.00  0.00     0.053 C 
HETATM    3  C   UNL     1     -20.489 -12.243  -3.395  1.00  0.00     0.020 C 
HETATM    4  C   UNL     1     -19.624 -13.113  -2.451  1.00  0.00     0.013 C 
HETATM    5  C   UNL     1     -20.094 -10.699  -3.385  1.00  0.00     0.083 C 
HETATM    6  O   UNL     1     -18.657 -10.544  -3.197  1.00  0.00    -0.320 OA
HETATM    7  C   UNL     1     -17.854 -10.980  -4.375  1.00  0.00     0.288 C 
HETATM    8  O   UNL     1     -18.161 -10.309  -5.600  1.00  0.00    -0.323 OA
HETATM    9  C   UNL     1     -19.472 -10.806  -5.838  1.00  0.00     0.173 C 
HETATM   10  C   UNL     1     -20.322  -9.971  -4.746  1.00  0.00     0.054 C 
HETATM   11  C   UNL     1     -19.815  -8.449  -4.655  1.00  0.00     0.017 C 
HETATM   12  C   UNL     1     -20.317  -7.522  -3.808  1.00  0.00     0.014 C 
HETATM   13  C   UNL     1     -20.262  -7.696  -2.302  1.00  0.00     0.053 C 
HETATM   14  C   UNL     1     -21.336  -8.689  -1.926  1.00  0.00     0.125 C 
HETATM   15  C   UNL     1     -21.655  -8.767  -0.440  1.00  0.00     0.165 C 
HETATM   16  O   UNL     1     -21.965  -7.815   0.263  1.00  0.00    -0.294 OA
HETATM   17  C   UNL     1     -21.776 -10.190   0.021  1.00  0.00     0.055 C 
HETATM   18  C   UNL     1     -23.243 -10.583   0.048  1.00  0.00     0.018 C 
HETATM   19  C   UNL     1     -20.928 -10.773  -0.853  1.00  0.00     0.023 C 
HETATM   20  C   UNL     1     -21.054 -10.154  -2.251  1.00  0.00     0.064 C 
HETATM   21  O   UNL     1     -18.147 -12.330  -4.594  1.00  0.00    -0.314 OA
ENDROOT
BRANCH  12  22
HETATM   22  C   UNL     1     -21.295  -6.484  -4.294  1.00  0.00     0.183 C 
BRANCH  22  23
HETATM   23  O   UNL     1     -20.615  -5.525  -5.109  1.00  0.00    -0.321 OA
BRANCH  23  24
HETATM   24  C   UNL     1     -20.939  -5.554  -6.436  1.00  0.00     0.263 C 
HETATM   25  O   UNL     1     -21.144  -6.559  -7.092  1.00  0.00    -0.265 OA
BRANCH  24  26
HETATM   26  C   UNL     1     -21.006  -4.144  -6.972  1.00  0.00     0.149 C 
BRANCH  26  27
HETATM   27  C   UNL     1     -21.195  -4.055  -8.464  1.00  0.00    -0.046 A 
HETATM   28  C   UNL     1     -20.150  -4.370  -9.341  1.00  0.00     0.010 A 
HETATM   29  C   UNL     1     -20.354  -4.324 -10.722  1.00  0.00     0.040 A 
HETATM   30  C   UNL     1     -21.618  -3.993 -11.238  1.00  0.00     0.099 A 
HETATM   31  C   UNL     1     -22.665  -3.670 -10.380  1.00  0.00     0.101 A 
HETATM   32  C   UNL     1     -22.443  -3.688  -8.996  1.00  0.00     0.047 A 
BRANCH  30  33
HETATM   33  O   UNL     1     -21.766  -3.974 -12.599  1.00  0.00    -0.358 OA
HETATM   34  H   UNL     1     -21.442  -3.123 -12.941  1.00  0.00     0.217 HD
ENDBRANCH  30  33
BRANCH  31  35
HETATM   35  O   UNL     1     -23.934  -3.293 -10.734  1.00  0.00    -0.353 OA
HETATM   36  C   UNL     1     -24.923  -3.365  -9.712  1.00  0.00     0.210 C 
ENDBRANCH  31  35
ENDBRANCH  26  27
ENDBRANCH  24  26
ENDBRANCH  23  24
ENDBRANCH  22  23
ENDBRANCH  12  22
BRANCH  14  37
HETATM   37  O   UNL     1     -22.615  -8.312  -2.501  1.00  0.00    -0.382 OA
HETATM   38  H   UNL     1     -22.412  -7.880  -3.354  1.00  0.00     0.211 HD
ENDBRANCH  14  37
BRANCH   1  39
HETATM   39  C   UNL     1     -18.863 -13.564  -6.419  1.00  0.00    -0.056 C 
HETATM   40  C   UNL     1     -19.500 -13.764  -7.602  1.00  0.00     0.017 C 
HETATM   41  C   UNL     1     -17.652 -14.412  -6.180  1.00  0.00     0.046 C 
ENDBRANCH   1  39
BRANCH   7  42
HETATM   42  C   UNL     1     -16.383 -10.724  -4.036  1.00  0.00     0.140 C 
BRANCH  42  43
HETATM   43  C   UNL     1     -15.231 -11.557  -4.582  1.00  0.00    -0.051 A 
HETATM   44  C   UNL     1     -14.338 -12.350  -3.857  1.00  0.00     0.007 A 
HETATM   45  C   UNL     1     -13.392 -13.150  -4.524  1.00  0.00     0.001 A 
HETATM   46  C   UNL     1     -13.321 -13.168  -5.922  1.00  0.00     0.000 A 
HETATM   47  C   UNL     1     -14.184 -12.347  -6.648  1.00  0.00     0.001 A 
HETATM   48  C   UNL     1     -15.112 -11.551  -5.986  1.00  0.00     0.007 A 
ENDBRANCH  42  43
ENDBRANCH   7  42
TORSDOF 11
ENDMDL
MODEL 3
REMARK VINA RESULT:     -10.2      1.702      5.229
REMARK  11 active torsions:
REMARK  status: ('A' for Active; 'I' for Inactive)
REMARK    1  A    between atoms: C_2  and  C_4 
REMARK    2  A    between atoms: C_10  and  C_11 
REMARK    3  A    between atoms: C_11  and  C_12 
REMARK    4  A    between atoms: C_22  and  C_23 
REMARK    5  A    between atoms: C_23  and  O_24 
REMARK    6  A    between atoms: O_24  and  C_25 
REMARK    7  A    between atoms: C_25  and  C_27 
REMARK    8  A    between atoms: C_27  and  C_28 
REMARK    9  A    between atoms: C_31  and  O_32 
REMARK   10  A    between atoms: C_33  and  O_34 
REMARK   11  A    between atoms: C_38  and  O_39 
ROOT
HETATM    1  C   UNL     1     -16.894 -12.249  -1.385  1.00  0.00     0.116 C 
HETATM    2  C   UNL     1     -16.666 -13.046  -2.665  1.00  0.00     0.053 C 
HETATM    3  C   UNL     1     -18.015 -13.382  -3.267  1.00  0.00     0.020 C 
HETATM    4  C   UNL     1     -18.673 -14.611  -2.593  1.00  0.00     0.013 C 
HETATM    5  C   UNL     1     -18.961 -12.101  -3.325  1.00  0.00     0.083 C 
HETATM    6  O   UNL     1     -19.813 -12.044  -2.145  1.00  0.00    -0.320 OA
HETATM    7  C   UNL     1     -19.071 -11.724  -0.892  1.00  0.00     0.288 C 
HETATM    8  O   UNL     1     -18.350 -10.489  -0.913  1.00  0.00    -0.323 OA
HETATM    9  C   UNL     1     -17.347 -10.797  -1.873  1.00  0.00     0.173 C 
HETATM   10  C   UNL     1     -18.203 -10.740  -3.243  1.00  0.00     0.054 C 
HETATM   11  C   UNL     1     -19.249  -9.520  -3.224  1.00  0.00     0.017 C 
HETATM   12  C   UNL     1     -20.119  -9.241  -4.220  1.00  0.00     0.014 C 
HETATM   13  C   UNL     1     -21.185 -10.229  -4.657  1.00  0.00     0.053 C 
HETATM   14  C   UNL     1     -20.500 -11.287  -5.489  1.00  0.00     0.125 C 
HETATM   15  C   UNL     1     -21.432 -12.193  -6.280  1.00  0.00     0.165 C 
HETATM   16  O   UNL     1     -22.293 -11.808  -7.059  1.00  0.00    -0.294 OA
HETATM   17  C   UNL     1     -21.019 -13.632  -6.174  1.00  0.00     0.055 C 
HETATM   18  C   UNL     1     -20.197 -14.007  -7.395  1.00  0.00     0.018 C 
HETATM   19  C   UNL     1     -20.451 -13.604  -4.948  1.00  0.00     0.023 C 
HETATM   20  C   UNL     1     -19.656 -12.310  -4.732  1.00  0.00     0.064 C 
HETATM   21  O   UNL     1     -18.108 -12.725  -0.719  1.00  0.00    -0.314 OA
ENDROOT
BRANCH  12  22
HETATM   22  C   UNL     1     -19.838  -8.132  -5.201  1.00  0.00     0.183 C 
BRANCH  22  23
HETATM   23  O   UNL     1     -21.049  -7.754  -5.862  1.00  0.00    -0.321 OA
BRANCH  23  24
HETATM   24  C   UNL     1     -21.620  -6.597  -5.414  1.00  0.00     0.263 C 
HETATM   25  O   UNL     1     -22.684  -6.516  -4.826  1.00  0.00    -0.265 OA
BRANCH  24  26
HETATM   26  C   UNL     1     -20.731  -5.426  -5.758  1.00  0.00     0.149 C 
BRANCH  26  27
HETATM   27  C   UNL     1     -20.886  -4.923  -7.170  1.00  0.00    -0.046 A 
HETATM   28  C   UNL     1     -19.840  -5.039  -8.093  1.00  0.00     0.010 A 
HETATM   29  C   UNL     1     -20.013  -4.607  -9.411  1.00  0.00     0.040 A 
HETATM   30  C   UNL     1     -21.251  -4.084  -9.824  1.00  0.00     0.099 A 
HETATM   31  C   UNL     1     -22.298  -3.955  -8.916  1.00  0.00     0.101 A 
HETATM   32  C   UNL     1     -22.105  -4.362  -7.589  1.00  0.00     0.047 A 
BRANCH  30  33
HETATM   33  O   UNL     1     -21.370  -3.686 -11.128  1.00  0.00    -0.358 OA
HETATM   34  H   UNL     1     -20.989  -4.370 -11.704  1.00  0.00     0.217 HD
ENDBRANCH  30  33
BRANCH  31  35
HETATM   35  O   UNL     1     -23.541  -3.432  -9.162  1.00  0.00    -0.353 OA
HETATM   36  C   UNL     1     -24.487  -4.309  -9.765  1.00  0.00     0.210 C 
ENDBRANCH  31  35
ENDBRANCH  26  27
ENDBRANCH  24  26
ENDBRANCH  23  24
ENDBRANCH  22  23
ENDBRANCH  12  22
BRANCH  14  37
HETATM   37  O   UNL     1     -19.692 -10.683  -6.534  1.00  0.00    -0.382 OA
HETATM   38  H   UNL     1     -18.793 -10.587  -6.160  1.00  0.00     0.211 HD
ENDBRANCH  14  37
BRANCH   1  39
HETATM   39  C   UNL     1     -15.815 -12.738  -0.389  1.00  0.00    -0.056 C 
HETATM   40  C   UNL     1     -15.607 -12.044   0.760  1.00  0.00     0.017 C 
HETATM   41  C   UNL     1     -15.124 -14.064  -0.482  1.00  0.00     0.046 C 
ENDBRANCH   1  39
BRANCH   7  42
HETATM   42  C   UNL     1     -20.100 -11.668   0.240  1.00  0.00     0.140 C 
BRANCH  42  43
HETATM   43  C   UNL     1     -21.072 -10.514   0.445  1.00  0.00    -0.051 A 
HETATM   44  C   UNL     1     -20.842  -9.322   1.135  1.00  0.00     0.007 A 
HETATM   45  C   UNL     1     -21.811  -8.303   1.140  1.00  0.00     0.001 A 
HETATM   46  C   UNL     1     -23.025  -8.459   0.459  1.00  0.00     0.000 A 
HETATM   47  C   UNL     1     -23.275  -9.664  -0.197  1.00  0.00     0.001 A 
HETATM   48  C   UNL     1     -22.318 -10.673  -0.192  1.00  0.00     0.007 A 
ENDBRANCH  42  43
ENDBRANCH   7  42
TORSDOF 11
ENDMDL
MODEL 4
REMARK VINA RESULT:      -9.8      2.836      8.627
REMARK  11 active torsions:
REMARK  status: ('A' for Active; 'I' for Inactive)
REMARK    1  A    between atoms: C_2  and  C_4 
REMARK    2  A    between atoms: C_10  and  C_11 
REMARK    3  A    between atoms: C_11  and  C_12 
REMARK    4  A    between atoms: C_22  and  C_23 
REMARK    5  A    between atoms: C_23  and  O_24 
REMARK    6  A    between atoms: O_24  and  C_25 
REMARK    7  A    between atoms: C_25  and  C_27 
REMARK    8  A    between atoms: C_27  and  C_28 
REMARK    9  A    between atoms: C_31  and  O_32 
REMARK   10  A    between atoms: C_33  and  O_34 
REMARK   11  A    between atoms: C_38  and  O_39 
ROOT
HETATM    1  C   UNL     1     -21.425  -9.939  -1.590  1.00  0.00     0.116 C 
HETATM    2  C   UNL     1     -21.554 -11.410  -1.968  1.00  0.00     0.053 C 
HETATM    3  C   UNL     1     -21.581 -11.516  -3.480  1.00  0.00     0.020 C 
HETATM    4  C   UNL     1     -22.984 -11.220  -4.066  1.00  0.00     0.013 C 
HETATM    5  C   UNL     1     -20.415 -10.658  -4.144  1.00  0.00     0.083 C 
HETATM    6  O   UNL     1     -20.902  -9.333  -4.505  1.00  0.00    -0.320 OA
HETATM    7  C   UNL     1     -21.184  -8.463  -3.328  1.00  0.00     0.288 C 
HETATM    8  O   UNL     1     -20.073  -8.245  -2.453  1.00  0.00    -0.323 OA
HETATM    9  C   UNL     1     -19.911  -9.553  -1.921  1.00  0.00     0.173 C 
HETATM   10  C   UNL     1     -19.238 -10.317  -3.176  1.00  0.00     0.054 C 
HETATM   11  C   UNL     1     -18.162  -9.382  -3.917  1.00  0.00     0.017 C 
HETATM   12  C   UNL     1     -17.462  -9.741  -5.016  1.00  0.00     0.014 C 
HETATM   13  C   UNL     1     -18.145 -10.094  -6.325  1.00  0.00     0.053 C 
HETATM   14  C   UNL     1     -18.709 -11.487  -6.172  1.00  0.00     0.125 C 
HETATM   15  C   UNL     1     -19.158 -12.149  -7.466  1.00  0.00     0.165 C 
HETATM   16  O   UNL     1     -18.463 -12.290  -8.463  1.00  0.00    -0.294 OA
HETATM   17  C   UNL     1     -20.488 -12.826  -7.304  1.00  0.00     0.055 C 
HETATM   18  C   UNL     1     -20.266 -14.306  -7.040  1.00  0.00     0.018 C 
HETATM   19  C   UNL     1     -21.018 -12.033  -6.348  1.00  0.00     0.023 C 
HETATM   20  C   UNL     1     -19.963 -11.626  -5.312  1.00  0.00     0.064 C 
HETATM   21  O   UNL     1     -22.153  -9.117  -2.559  1.00  0.00    -0.314 OA
ENDROOT
BRANCH  12  22
HETATM   22  C   UNL     1     -16.028 -10.191  -4.905  1.00  0.00     0.183 C 
BRANCH  22  23
HETATM   23  O   UNL     1     -15.817 -10.816  -3.636  1.00  0.00    -0.321 OA
BRANCH  23  24
HETATM   24  C   UNL     1     -15.206 -12.037  -3.682  1.00  0.00     0.263 C 
HETATM   25  O   UNL     1     -14.848 -12.611  -4.695  1.00  0.00    -0.265 OA
BRANCH  24  26
HETATM   26  C   UNL     1     -15.040 -12.574  -2.280  1.00  0.00     0.149 C 
BRANCH  26  27
HETATM   27  C   UNL     1     -16.330 -12.729  -1.518  1.00  0.00    -0.046 A 
HETATM   28  C   UNL     1     -16.569 -11.992  -0.352  1.00  0.00     0.010 A 
HETATM   29  C   UNL     1     -17.788 -12.116   0.321  1.00  0.00     0.040 A 
HETATM   30  C   UNL     1     -18.792 -12.956  -0.189  1.00  0.00     0.099 A 
HETATM   31  C   UNL     1     -18.567 -13.701  -1.343  1.00  0.00     0.101 A 
HETATM   32  C   UNL     1     -17.330 -13.595  -1.994  1.00  0.00     0.047 A 
BRANCH  30  33
HETATM   33  O   UNL     1     -19.971 -13.031   0.503  1.00  0.00    -0.358 OA
HETATM   34  H   UNL     1     -20.699 -13.172  -0.126  1.00  0.00     0.217 HD
ENDBRANCH  30  33
BRANCH  31  35
HETATM   35  O   UNL     1     -19.432 -14.585  -1.934  1.00  0.00    -0.353 OA
HETATM   36  C   UNL     1     -19.425 -14.619  -3.358  1.00  0.00     0.210 C 
ENDBRANCH  31  35
ENDBRANCH  26  27
ENDBRANCH  24  26
ENDBRANCH  23  24
ENDBRANCH  22  23
ENDBRANCH  12  22
BRANCH  14  37
HETATM   37  O   UNL     1     -17.695 -12.407  -5.687  1.00  0.00    -0.382 OA
HETATM   38  H   UNL     1     -18.042 -12.777  -4.851  1.00  0.00     0.211 HD
ENDBRANCH  14  37
BRANCH   1  39
HETATM   39  C   UNL     1     -22.312  -9.749  -0.335  1.00  0.00    -0.056 C 
HETATM   40  C   UNL     1     -22.057  -8.717   0.509  1.00  0.00     0.017 C 
HETATM   41  C   UNL     1     -23.590 -10.491  -0.091  1.00  0.00     0.046 C 
ENDBRANCH   1  39
BRANCH   7  42
HETATM   42  C   UNL     1     -21.650  -7.109  -3.869  1.00  0.00     0.140 C 
BRANCH  42  43
HETATM   43  C   UNL     1     -21.150  -6.500  -5.173  1.00  0.00    -0.051 A 
HETATM   44  C   UNL     1     -19.928  -6.736  -5.807  1.00  0.00     0.007 A 
HETATM   45  C   UNL     1     -19.662  -6.177  -7.070  1.00  0.00     0.001 A 
HETATM   46  C   UNL     1     -20.608  -5.374  -7.717  1.00  0.00     0.000 A 
HETATM   47  C   UNL     1     -21.813  -5.103  -7.069  1.00  0.00     0.001 A 
HETATM   48  C   UNL     1     -22.070  -5.649  -5.816  1.00  0.00     0.007 A 
ENDBRANCH  42  43
ENDBRANCH   7  42
TORSDOF 11
ENDMDL
MODEL 5
REMARK VINA RESULT:      -9.8      1.761      4.240
REMARK  11 active torsions:
REMARK  status: ('A' for Active; 'I' for Inactive)
REMARK    1  A    between atoms: C_2  and  C_4 
REMARK    2  A    between atoms: C_10  and  C_11 
REMARK    3  A    between atoms: C_11  and  C_12 
REMARK    4  A    between atoms: C_22  and  C_23 
REMARK    5  A    between atoms: C_23  and  O_24 
REMARK    6  A    between atoms: O_24  and  C_25 
REMARK    7  A    between atoms: C_25  and  C_27 
REMARK    8  A    between atoms: C_27  and  C_28 
REMARK    9  A    between atoms: C_31  and  O_32 
REMARK   10  A    between atoms: C_33  and  O_34 
REMARK   11  A    between atoms: C_38  and  O_39 
ROOT
HETATM    1  C   UNL     1     -22.472 -13.211  -2.867  1.00  0.00     0.116 C 
HETATM    2  C   UNL     1     -21.436 -13.030  -1.763  1.00  0.00     0.053 C 
HETATM    3  C   UNL     1     -20.061 -12.985  -2.398  1.00  0.00     0.020 C 
HETATM    4  C   UNL     1     -19.510 -14.397  -2.714  1.00  0.00     0.013 C 
HETATM    5  C   UNL     1     -20.029 -11.990  -3.643  1.00  0.00     0.083 C 
HETATM    6  O   UNL     1     -20.272 -12.719  -4.881  1.00  0.00    -0.320 OA
HETATM    7  C   UNL     1     -21.673 -13.210  -5.016  1.00  0.00     0.288 C 
HETATM    8  O   UNL     1     -22.680 -12.195  -4.956  1.00  0.00    -0.323 OA
HETATM    9  C   UNL     1     -22.554 -11.793  -3.598  1.00  0.00     0.173 C 
HETATM   10  C   UNL     1     -21.183 -10.940  -3.654  1.00  0.00     0.054 C 
HETATM   11  C   UNL     1     -21.109 -10.046  -4.988  1.00  0.00     0.017 C 
HETATM   12  C   UNL     1     -20.067  -9.251  -5.322  1.00  0.00     0.014 C 
HETATM   13  C   UNL     1     -18.672  -9.805  -5.542  1.00  0.00     0.053 C 
HETATM   14  C   UNL     1     -18.082 -10.085  -4.179  1.00  0.00     0.125 C 
HETATM   15  C   UNL     1     -16.583 -10.348  -4.164  1.00  0.00     0.165 C 
HETATM   16  O   UNL     1     -15.734  -9.605  -4.635  1.00  0.00    -0.294 OA
HETATM   17  C   UNL     1     -16.241 -11.521  -3.292  1.00  0.00     0.055 C 
HETATM   18  C   UNL     1     -15.807 -11.018  -1.927  1.00  0.00     0.018 C 
HETATM   19  C   UNL     1     -17.382 -12.232  -3.429  1.00  0.00     0.023 C 
HETATM   20  C   UNL     1     -18.611 -11.315  -3.446  1.00  0.00     0.064 C 
HETATM   21  O   UNL     1     -21.918 -14.055  -3.927  1.00  0.00    -0.314 OA
ENDROOT
BRANCH  12  22
HETATM   22  C   UNL     1     -20.135  -7.761  -5.107  1.00  0.00     0.183 C 
BRANCH  22  23
HETATM   23  O   UNL     1     -20.661  -7.129  -6.276  1.00  0.00    -0.321 OA
BRANCH  23  24
HETATM   24  C   UNL     1     -21.366  -5.981  -6.051  1.00  0.00     0.263 C 
HETATM   25  O   UNL     1     -22.396  -5.899  -5.405  1.00  0.00    -0.265 OA
BRANCH  24  26
HETATM   26  C   UNL     1     -20.676  -4.820  -6.726  1.00  0.00     0.149 C 
BRANCH  26  27
HETATM   27  C   UNL     1     -21.036  -4.644  -8.178  1.00  0.00    -0.046 A 
HETATM   28  C   UNL     1     -20.042  -4.535  -9.158  1.00  0.00     0.010 A 
HETATM   29  C   UNL     1     -20.393  -4.414 -10.505  1.00  0.00     0.040 A 
HETATM   30  C   UNL     1     -21.745  -4.434 -10.886  1.00  0.00     0.099 A 
HETATM   31  C   UNL     1     -22.746  -4.534  -9.924  1.00  0.00     0.101 A 
HETATM   32  C   UNL     1     -22.386  -4.623  -8.572  1.00  0.00     0.047 A 
BRANCH  30  33
HETATM   33  O   UNL     1     -22.032  -4.323 -12.221  1.00  0.00    -0.358 OA
HETATM   34  H   UNL     1     -21.278  -3.909 -12.673  1.00  0.00     0.217 HD
ENDBRANCH  30  33
BRANCH  31  35
HETATM   35  O   UNL     1     -24.099  -4.528 -10.139  1.00  0.00    -0.353 OA
HETATM   36  C   UNL     1     -24.753  -3.269 -10.018  1.00  0.00     0.210 C 
ENDBRANCH  31  35
ENDBRANCH  26  27
ENDBRANCH  24  26
ENDBRANCH  23  24
ENDBRANCH  22  23
ENDBRANCH  12  22
BRANCH  14  37
HETATM   37  O   UNL     1     -18.203  -8.925  -3.314  1.00  0.00    -0.382 OA
HETATM   38  H   UNL     1     -19.155  -8.700  -3.293  1.00  0.00     0.211 HD
ENDBRANCH  14  37
BRANCH   1  39
HETATM   39  C   UNL     1     -23.546 -14.161  -2.283  1.00  0.00    -0.056 C 
HETATM   40  C   UNL     1     -23.750 -15.371  -2.864  1.00  0.00     0.017 C 
HETATM   41  C   UNL     1     -24.235 -13.943  -0.971  1.00  0.00     0.046 C 
ENDBRANCH   1  39
BRANCH   7  42
HETATM   42  C   UNL     1     -21.775 -13.917  -6.369  1.00  0.00     0.140 C 
BRANCH  42  43
HETATM   43  C   UNL     1     -20.614 -14.051  -7.345  1.00  0.00    -0.051 A 
HETATM   44  C   UNL     1     -20.131 -13.083  -8.229  1.00  0.00     0.007 A 
HETATM   45  C   UNL     1     -18.973 -13.327  -8.990  1.00  0.00     0.001 A 
HETATM   46  C   UNL     1     -18.283 -14.540  -8.882  1.00  0.00     0.000 A 
HETATM   47  C   UNL     1     -18.785 -15.525  -8.032  1.00  0.00     0.001 A 
HETATM   48  C   UNL     1     -19.935 -15.284  -7.287  1.00  0.00     0.007 A 
ENDBRANCH  42  43
ENDBRANCH   7  42
TORSDOF 11
ENDMDL
MODEL 6
REMARK VINA RESULT:      -9.7      4.378      8.174
REMARK  11 active torsions:
REMARK  status: ('A' for Active; 'I' for Inactive)
REMARK    1  A    between atoms: C_2  and  C_4 
REMARK    2  A    between atoms: C_10  and  C_11 
REMARK    3  A    between atoms: C_11  and  C_12 
REMARK    4  A    between atoms: C_22  and  C_23 
REMARK    5  A    between atoms: C_23  and  O_24 
REMARK    6  A    between atoms: O_24  and  C_25 
REMARK    7  A    between atoms: C_25  and  C_27 
REMARK    8  A    between atoms: C_27  and  C_28 
REMARK    9  A    between atoms: C_31  and  O_32 
REMARK   10  A    between atoms: C_33  and  O_34 
REMARK   11  A    between atoms: C_38  and  O_39 
ROOT
HETATM    1  C   UNL     1     -21.424  -9.146  -1.354  1.00  0.00     0.116 C 
HETATM    2  C   UNL     1     -21.700  -9.448   0.114  1.00  0.00     0.053 C 
HETATM    3  C   UNL     1     -22.333 -10.822   0.210  1.00  0.00     0.020 C 
HETATM    4  C   UNL     1     -23.851 -10.794  -0.092  1.00  0.00     0.013 C 
HETATM    5  C   UNL     1     -21.528 -11.894  -0.650  1.00  0.00     0.083 C 
HETATM    6  O   UNL     1     -22.112 -12.023  -1.978  1.00  0.00    -0.320 OA
HETATM    7  C   UNL     1     -21.894 -10.827  -2.841  1.00  0.00     0.288 C 
HETATM    8  O   UNL     1     -20.525 -10.471  -3.051  1.00  0.00    -0.323 OA
HETATM    9  C   UNL     1     -20.168 -10.055  -1.739  1.00  0.00     0.173 C 
HETATM   10  C   UNL     1     -20.060 -11.479  -0.982  1.00  0.00     0.054 C 
HETATM   11  C   UNL     1     -19.367 -12.585  -1.919  1.00  0.00     0.017 C 
HETATM   12  C   UNL     1     -19.169 -13.875  -1.566  1.00  0.00     0.014 C 
HETATM   13  C   UNL     1     -20.322 -14.800  -1.223  1.00  0.00     0.053 C 
HETATM   14  C   UNL     1     -20.784 -14.441   0.170  1.00  0.00     0.125 C 
HETATM   15  C   UNL     1     -21.718 -15.449   0.823  1.00  0.00     0.165 C 
HETATM   16  O   UNL     1     -21.482 -16.642   0.958  1.00  0.00    -0.294 OA
HETATM   17  C   UNL     1     -22.874 -14.769   1.498  1.00  0.00     0.055 C 
HETATM   18  C   UNL     1     -22.572 -14.625   2.980  1.00  0.00     0.018 C 
HETATM   19  C   UNL     1     -22.972 -13.677   0.710  1.00  0.00     0.023 C 
HETATM   20  C   UNL     1     -21.587 -13.151   0.312  1.00  0.00     0.064 C 
HETATM   21  O   UNL     1     -22.476  -9.736  -2.184  1.00  0.00    -0.314 OA
ENDROOT
BRANCH  12  22
HETATM   22  C   UNL     1     -17.814 -14.351  -1.112  1.00  0.00     0.183 C 
BRANCH  22  23
HETATM   23  O   UNL     1     -17.256 -13.410  -0.191  1.00  0.00    -0.321 OA
BRANCH  23  24
HETATM   24  C   UNL     1     -15.921 -13.167  -0.343  1.00  0.00     0.263 C 
HETATM   25  O   UNL     1     -15.038 -14.003  -0.276  1.00  0.00    -0.265 OA
BRANCH  24  26
HETATM   26  C   UNL     1     -15.700 -11.697  -0.608  1.00  0.00     0.149 C 
BRANCH  26  27
HETATM   27  C   UNL     1     -15.857 -11.296  -2.052  1.00  0.00    -0.046 A 
HETATM   28  C   UNL     1     -16.484 -10.093  -2.399  1.00  0.00     0.010 A 
HETATM   29  C   UNL     1     -16.585  -9.715  -3.741  1.00  0.00     0.040 A 
HETATM   30  C   UNL     1     -16.028 -10.524  -4.745  1.00  0.00     0.099 A 
HETATM   31  C   UNL     1     -15.409 -11.727  -4.417  1.00  0.00     0.101 A 
HETATM   32  C   UNL     1     -15.340 -12.114  -3.071  1.00  0.00     0.047 A 
BRANCH  30  33
HETATM   33  O   UNL     1     -16.146 -10.101  -6.042  1.00  0.00    -0.358 OA
HETATM   34  H   UNL     1     -17.010 -10.379  -6.389  1.00  0.00     0.217 HD
ENDBRANCH  30  33
BRANCH  31  35
HETATM   35  O   UNL     1     -14.857 -12.633  -5.284  1.00  0.00    -0.353 OA
HETATM   36  C   UNL     1     -13.507 -12.395  -5.671  1.00  0.00     0.210 C 
ENDBRANCH  31  35
ENDBRANCH  26  27
ENDBRANCH  24  26
ENDBRANCH  23  24
ENDBRANCH  22  23
ENDBRANCH  12  22
BRANCH  14  37
HETATM   37  O   UNL     1     -19.665 -14.409   1.095  1.00  0.00    -0.382 OA
HETATM   38  H   UNL     1     -19.600 -13.485   1.411  1.00  0.00     0.211 HD
ENDBRANCH  14  37
BRANCH   1  39
HETATM   39  C   UNL     1     -21.731  -7.640  -1.538  1.00  0.00    -0.056 C 
HETATM   40  C   UNL     1     -22.361  -6.964  -0.543  1.00  0.00     0.017 C 
HETATM   41  C   UNL     1     -21.182  -6.800  -2.649  1.00  0.00     0.046 C 
ENDBRANCH   1  39
BRANCH   7  42
HETATM   42  C   UNL     1     -22.532 -11.129  -4.200  1.00  0.00     0.140 C 
BRANCH  42  43
HETATM   43  C   UNL     1     -22.029 -12.206  -5.151  1.00  0.00    -0.051 A 
HETATM   44  C   UNL     1     -22.230 -13.585  -5.056  1.00  0.00     0.007 A 
HETATM   45  C   UNL     1     -21.791 -14.441  -6.082  1.00  0.00     0.001 A 
HETATM   46  C   UNL     1     -21.142 -13.935  -7.214  1.00  0.00     0.000 A 
HETATM   47  C   UNL     1     -20.902 -12.564  -7.294  1.00  0.00     0.001 A 
HETATM   48  C   UNL     1     -21.330 -11.721  -6.274  1.00  0.00     0.007 A 
ENDBRANCH  42  43
ENDBRANCH   7  42
TORSDOF 11
ENDMDL
MODEL 7
REMARK VINA RESULT:      -9.4      2.127      3.204
REMARK  11 active torsions:
REMARK  status: ('A' for Active; 'I' for Inactive)
REMARK    1  A    between atoms: C_2  and  C_4 
REMARK    2  A    between atoms: C_10  and  C_11 
REMARK    3  A    between atoms: C_11  and  C_12 
REMARK    4  A    between atoms: C_22  and  C_23 
REMARK    5  A    between atoms: C_23  and  O_24 
REMARK    6  A    between atoms: O_24  and  C_25 
REMARK    7  A    between atoms: C_25  and  C_27 
REMARK    8  A    between atoms: C_27  and  C_28 
REMARK    9  A    between atoms: C_31  and  O_32 
REMARK   10  A    between atoms: C_33  and  O_34 
REMARK   11  A    between atoms: C_38  and  O_39 
ROOT
HETATM    1  C   UNL     1     -17.795 -12.451  -4.031  1.00  0.00     0.116 C 
HETATM    2  C   UNL     1     -19.193 -13.046  -4.157  1.00  0.00     0.053 C 
HETATM    3  C   UNL     1     -19.920 -12.845  -2.843  1.00  0.00     0.020 C 
HETATM    4  C   UNL     1     -19.537 -13.911  -1.787  1.00  0.00     0.013 C 
HETATM    5  C   UNL     1     -19.774 -11.346  -2.322  1.00  0.00     0.083 C 
HETATM    6  O   UNL     1     -18.652 -11.236  -1.399  1.00  0.00    -0.320 OA
HETATM    7  C   UNL     1     -17.323 -11.379  -2.060  1.00  0.00     0.288 C 
HETATM    8  O   UNL     1     -17.062 -10.439  -3.106  1.00  0.00    -0.323 OA
HETATM    9  C   UNL     1     -18.009 -10.869  -4.075  1.00  0.00     0.173 C 
HETATM   10  C   UNL     1     -19.384 -10.317  -3.429  1.00  0.00     0.054 C 
HETATM   11  C   UNL     1     -19.181  -8.859  -2.787  1.00  0.00     0.017 C 
HETATM   12  C   UNL     1     -20.147  -8.159  -2.150  1.00  0.00     0.014 C 
HETATM   13  C   UNL     1     -20.825  -8.683  -0.897  1.00  0.00     0.053 C 
HETATM   14  C   UNL     1     -21.812  -9.740  -1.333  1.00  0.00     0.125 C 
HETATM   15  C   UNL     1     -22.814 -10.167  -0.270  1.00  0.00     0.165 C 
HETATM   16  O   UNL     1     -23.546  -9.409   0.351  1.00  0.00    -0.294 OA
HETATM   17  C   UNL     1     -22.972 -11.660  -0.233  1.00  0.00     0.055 C 
HETATM   18  C   UNL     1     -24.198 -12.052  -1.040  1.00  0.00     0.018 C 
HETATM   19  C   UNL     1     -21.738 -12.018  -0.647  1.00  0.00     0.023 C 
HETATM   20  C   UNL     1     -21.229 -11.087  -1.755  1.00  0.00     0.064 C 
HETATM   21  O   UNL     1     -17.301 -12.640  -2.666  1.00  0.00    -0.314 OA
ENDROOT
BRANCH  12  22
HETATM   22  C   UNL     1     -20.874  -7.038  -2.846  1.00  0.00     0.183 C 
BRANCH  22  23
HETATM   23  O   UNL     1     -21.401  -7.506  -4.091  1.00  0.00    -0.321 OA
BRANCH  23  24
HETATM   24  C   UNL     1     -20.748  -7.059  -5.205  1.00  0.00     0.263 C 
HETATM   25  O   UNL     1     -20.187  -7.764  -6.025  1.00  0.00    -0.265 OA
BRANCH  24  26
HETATM   26  C   UNL     1     -20.825  -5.553  -5.269  1.00  0.00     0.149 C 
BRANCH  26  27
HETATM   27  C   UNL     1     -20.905  -4.994  -6.665  1.00  0.00    -0.046 A 
HETATM   28  C   UNL     1     -19.766  -4.918  -7.476  1.00  0.00     0.010 A 
HETATM   29  C   UNL     1     -19.865  -4.437  -8.784  1.00  0.00     0.040 A 
HETATM   30  C   UNL     1     -21.114  -4.058  -9.304  1.00  0.00     0.099 A 
HETATM   31  C   UNL     1     -22.255  -4.121  -8.508  1.00  0.00     0.101 A 
HETATM   32  C   UNL     1     -22.142  -4.575  -7.187  1.00  0.00     0.047 A 
BRANCH  30  33
HETATM   33  O   UNL     1     -21.156  -3.604 -10.595  1.00  0.00    -0.358 OA
HETATM   34  H   UNL     1     -20.925  -2.660 -10.606  1.00  0.00     0.217 HD
ENDBRANCH  30  33
BRANCH  31  35
HETATM   35  O   UNL     1     -23.527  -3.752  -8.862  1.00  0.00    -0.353 OA
HETATM   36  C   UNL     1     -24.200  -4.609  -9.779  1.00  0.00     0.210 C 
ENDBRANCH  31  35
ENDBRANCH  26  27
ENDBRANCH  24  26
ENDBRANCH  23  24
ENDBRANCH  22  23
ENDBRANCH  12  22
BRANCH  14  37
HETATM   37  O   UNL     1     -22.673  -9.242  -2.391  1.00  0.00    -0.382 OA
HETATM   38  H   UNL     1     -23.033 -10.031  -2.842  1.00  0.00     0.211 HD
ENDBRANCH  14  37
BRANCH   1  39
HETATM   39  C   UNL     1     -16.859 -13.411  -4.805  1.00  0.00    -0.056 C 
HETATM   40  C   UNL     1     -15.926 -14.123  -4.123  1.00  0.00     0.017 C 
HETATM   41  C   UNL     1     -17.050 -13.794  -6.241  1.00  0.00     0.046 C 
ENDBRANCH   1  39
BRANCH   7  42
HETATM   42  C   UNL     1     -16.258 -11.206  -0.974  1.00  0.00     0.140 C 
BRANCH  42  43
HETATM   43  C   UNL     1     -15.750 -12.343  -0.099  1.00  0.00    -0.051 A 
HETATM   44  C   UNL     1     -14.861 -13.359  -0.457  1.00  0.00     0.007 A 
HETATM   45  C   UNL     1     -14.401 -14.277   0.505  1.00  0.00     0.001 A 
HETATM   46  C   UNL     1     -14.825 -14.196   1.837  1.00  0.00     0.000 A 
HETATM   47  C   UNL     1     -15.744 -13.208   2.191  1.00  0.00     0.001 A 
HETATM   48  C   UNL     1     -16.203 -12.308   1.235  1.00  0.00     0.007 A 
ENDBRANCH  42  43
ENDBRANCH   7  42
TORSDOF 11
ENDMDL
MODEL 8
REMARK VINA RESULT:      -9.1      2.799      9.280
REMARK  11 active torsions:
REMARK  status: ('A' for Active; 'I' for Inactive)
REMARK    1  A    between atoms: C_2  and  C_4 
REMARK    2  A    between atoms: C_10  and  C_11 
REMARK    3  A    between atoms: C_11  and  C_12 
REMARK    4  A    between atoms: C_22  and  C_23 
REMARK    5  A    between atoms: C_23  and  O_24 
REMARK    6  A    between atoms: O_24  and  C_25 
REMARK    7  A    between atoms: C_25  and  C_27 
REMARK    8  A    between atoms: C_27  and  C_28 
REMARK    9  A    between atoms: C_31  and  O_32 
REMARK   10  A    between atoms: C_33  and  O_34 
REMARK   11  A    between atoms: C_38  and  O_39 
ROOT
HETATM    1  C   UNL     1     -21.586  -9.845  -1.640  1.00  0.00     0.116 C 
HETATM    2  C   UNL     1     -21.663 -11.331  -1.971  1.00  0.00     0.053 C 
HETATM    3  C   UNL     1     -21.661 -11.487  -3.478  1.00  0.00     0.020 C 
HETATM    4  C   UNL     1     -23.061 -11.254  -4.097  1.00  0.00     0.013 C 
HETATM    5  C   UNL     1     -20.510 -10.616  -4.151  1.00  0.00     0.083 C 
HETATM    6  O   UNL     1     -21.030  -9.319  -4.564  1.00  0.00    -0.320 OA
HETATM    7  C   UNL     1     -21.359  -8.420  -3.422  1.00  0.00     0.288 C 
HETATM    8  O   UNL     1     -20.271  -8.140  -2.537  1.00  0.00    -0.323 OA
HETATM    9  C   UNL     1     -20.078  -9.424  -1.958  1.00  0.00     0.173 C 
HETATM   10  C   UNL     1     -19.361 -10.208  -3.176  1.00  0.00     0.054 C 
HETATM   11  C   UNL     1     -18.300  -9.265  -3.929  1.00  0.00     0.017 C 
HETATM   12  C   UNL     1     -17.570  -9.638  -5.005  1.00  0.00     0.014 C 
HETATM   13  C   UNL     1     -18.220 -10.055  -6.311  1.00  0.00     0.053 C 
HETATM   14  C   UNL     1     -18.744 -11.459  -6.122  1.00  0.00     0.125 C 
HETATM   15  C   UNL     1     -19.150 -12.177  -7.400  1.00  0.00     0.165 C 
HETATM   16  O   UNL     1     -18.433 -12.328  -8.380  1.00  0.00    -0.294 OA
HETATM   17  C   UNL     1     -20.462 -12.888  -7.237  1.00  0.00     0.055 C 
HETATM   18  C   UNL     1     -20.200 -14.351  -6.921  1.00  0.00     0.018 C 
HETATM   19  C   UNL     1     -21.033 -12.080  -6.317  1.00  0.00     0.023 C 
HETATM   20  C   UNL     1     -20.008 -11.607  -5.279  1.00  0.00     0.064 C 
HETATM   21  O   UNL     1     -22.322  -9.078  -2.647  1.00  0.00    -0.314 OA
ENDROOT
BRANCH  12  22
HETATM   22  C   UNL     1     -16.126 -10.040  -4.854  1.00  0.00     0.183 C 
BRANCH  22  23
HETATM   23  O   UNL     1     -15.718  -9.871  -3.495  1.00  0.00    -0.321 OA
BRANCH  23  24
HETATM   24  C   UNL     1     -15.463 -11.027  -2.813  1.00  0.00     0.263 C 
HETATM   25  O   UNL     1     -15.697 -11.219  -1.633  1.00  0.00    -0.265 OA
BRANCH  24  26
HETATM   26  C   UNL     1     -14.843 -12.040  -3.747  1.00  0.00     0.149 C 
BRANCH  26  27
HETATM   27  C   UNL     1     -14.333 -13.282  -3.065  1.00  0.00    -0.046 A 
HETATM   28  C   UNL     1     -12.959 -13.510  -2.920  1.00  0.00     0.010 A 
HETATM   29  C   UNL     1     -12.502 -14.646  -2.247  1.00  0.00     0.040 A 
HETATM   30  C   UNL     1     -13.420 -15.549  -1.684  1.00  0.00     0.099 A 
HETATM   31  C   UNL     1     -14.789 -15.341  -1.826  1.00  0.00     0.101 A 
HETATM   32  C   UNL     1     -15.238 -14.215  -2.529  1.00  0.00     0.047 A 
BRANCH  30  33
HETATM   33  O   UNL     1     -12.918 -16.640  -1.026  1.00  0.00    -0.358 OA
HETATM   34  H   UNL     1     -13.612 -17.317  -0.960  1.00  0.00     0.217 HD
ENDBRANCH  30  33
BRANCH  31  35
HETATM   35  O   UNL     1     -15.797 -16.148  -1.366  1.00  0.00    -0.353 OA
HETATM   36  C   UNL     1     -17.124 -15.749  -1.694  1.00  0.00     0.210 C 
ENDBRANCH  31  35
ENDBRANCH  26  27
ENDBRANCH  24  26
ENDBRANCH  23  24
ENDBRANCH  22  23
ENDBRANCH  12  22
BRANCH  14  37
HETATM   37  O   UNL     1     -17.712 -12.330  -5.589  1.00  0.00    -0.382 OA
HETATM   38  H   UNL     1     -17.358 -12.830  -6.352  1.00  0.00     0.211 HD
ENDBRANCH  14  37
BRANCH   1  39
HETATM   39  C   UNL     1     -22.500  -9.641  -0.407  1.00  0.00    -0.056 C 
HETATM   40  C   UNL     1     -22.363  -8.519   0.344  1.00  0.00     0.017 C 
HETATM   41  C   UNL     1     -23.696 -10.489  -0.099  1.00  0.00     0.046 C 
ENDBRANCH   1  39
BRANCH   7  42
HETATM   42  C   UNL     1     -21.856  -7.099  -4.015  1.00  0.00     0.140 C 
BRANCH  42  43
HETATM   43  C   UNL     1     -21.264  -6.455  -5.262  1.00  0.00    -0.051 A 
HETATM   44  C   UNL     1     -19.998  -6.673  -5.811  1.00  0.00     0.007 A 
HETATM   45  C   UNL     1     -19.641  -6.079  -7.035  1.00  0.00     0.001 A 
HETATM   46  C   UNL     1     -20.540  -5.259  -7.728  1.00  0.00     0.000 A 
HETATM   47  C   UNL     1     -21.789  -5.006  -7.163  1.00  0.00     0.001 A 
HETATM   48  C   UNL     1     -22.136  -5.587  -5.947  1.00  0.00     0.007 A 
ENDBRANCH  42  43
ENDBRANCH   7  42
TORSDOF 11
ENDMDL
MODEL 9
REMARK VINA RESULT:      -8.9      3.375      8.243
REMARK  11 active torsions:
REMARK  status: ('A' for Active; 'I' for Inactive)
REMARK    1  A    between atoms: C_2  and  C_4 
REMARK    2  A    between atoms: C_10  and  C_11 
REMARK    3  A    between atoms: C_11  and  C_12 
REMARK    4  A    between atoms: C_22  and  C_23 
REMARK    5  A    between atoms: C_23  and  O_24 
REMARK    6  A    between atoms: O_24  and  C_25 
REMARK    7  A    between atoms: C_25  and  C_27 
REMARK    8  A    between atoms: C_27  and  C_28 
REMARK    9  A    between atoms: C_31  and  O_32 
REMARK   10  A    between atoms: C_33  and  O_34 
REMARK   11  A    between atoms: C_38  and  O_39 
ROOT
HETATM    1  C   UNL     1     -21.439  -9.596  -0.951  1.00  0.00     0.116 C 
HETATM    2  C   UNL     1     -22.548 -10.617  -0.722  1.00  0.00     0.053 C 
HETATM    3  C   UNL     1     -22.701 -11.448  -1.979  1.00  0.00     0.020 C 
HETATM    4  C   UNL     1     -23.550 -10.735  -3.060  1.00  0.00     0.013 C 
HETATM    5  C   UNL     1     -21.289 -11.963  -2.511  1.00  0.00     0.083 C 
HETATM    6  O   UNL     1     -20.760 -11.048  -3.513  1.00  0.00    -0.320 OA
HETATM    7  C   UNL     1     -20.329  -9.736  -2.952  1.00  0.00     0.288 C 
HETATM    8  O   UNL     1     -19.332  -9.813  -1.928  1.00  0.00    -0.323 OA
HETATM    9  C   UNL     1     -20.081 -10.435  -0.892  1.00  0.00     0.173 C 
HETATM   10  C   UNL     1     -20.158 -11.955  -1.436  1.00  0.00     0.054 C 
HETATM   11  C   UNL     1     -18.763 -12.408  -2.093  1.00  0.00     0.017 C 
HETATM   12  C   UNL     1     -18.538 -13.616  -2.658  1.00  0.00     0.014 C 
HETATM   13  C   UNL     1     -19.331 -14.103  -3.856  1.00  0.00     0.053 C 
HETATM   14  C   UNL     1     -20.685 -14.541  -3.349  1.00  0.00     0.125 C 
HETATM   15  C   UNL     1     -21.516 -15.349  -4.334  1.00  0.00     0.165 C 
HETATM   16  O   UNL     1     -21.141 -16.367  -4.901  1.00  0.00    -0.294 OA
HETATM   17  C   UNL     1     -22.943 -14.886  -4.358  1.00  0.00     0.055 C 
HETATM   18  C   UNL     1     -23.776 -15.788  -3.464  1.00  0.00     0.018 C 
HETATM   19  C   UNL     1     -22.754 -13.588  -4.036  1.00  0.00     0.023 C 
HETATM   20  C   UNL     1     -21.663 -13.431  -2.970  1.00  0.00     0.064 C 
HETATM   21  O   UNL     1     -21.453  -9.160  -2.348  1.00  0.00    -0.314 OA
ENDROOT
BRANCH  12  22
HETATM   22  C   UNL     1     -17.790 -14.689  -1.910  1.00  0.00     0.183 C 
BRANCH  22  23
HETATM   23  O   UNL     1     -16.753 -14.096  -1.125  1.00  0.00    -0.321 OA
BRANCH  23  24
HETATM   24  C   UNL     1     -15.501 -14.158  -1.668  1.00  0.00     0.263 C 
HETATM   25  O   UNL     1     -14.974 -15.161  -2.115  1.00  0.00    -0.265 OA
BRANCH  24  26
HETATM   26  C   UNL     1     -14.864 -12.790  -1.632  1.00  0.00     0.149 C 
BRANCH  26  27
HETATM   27  C   UNL     1     -15.190 -11.922  -2.820  1.00  0.00    -0.046 A 
HETATM   28  C   UNL     1     -15.797 -10.672  -2.651  1.00  0.00     0.010 A 
HETATM   29  C   UNL     1     -16.054  -9.860  -3.759  1.00  0.00     0.040 A 
HETATM   30  C   UNL     1     -15.675 -10.281  -5.045  1.00  0.00     0.099 A 
HETATM   31  C   UNL     1     -15.077 -11.524  -5.230  1.00  0.00     0.101 A 
HETATM   32  C   UNL     1     -14.851 -12.345  -4.117  1.00  0.00     0.047 A 
BRANCH  30  33
HETATM   33  O   UNL     1     -15.940  -9.442  -6.094  1.00  0.00    -0.358 OA
HETATM   34  H   UNL     1     -15.578  -8.562  -5.895  1.00  0.00     0.217 HD
ENDBRANCH  30  33
BRANCH  31  35
HETATM   35  O   UNL     1     -14.689 -12.083  -6.420  1.00  0.00    -0.353 OA
HETATM   36  C   UNL     1     -13.415 -12.719  -6.433  1.00  0.00     0.210 C 
ENDBRANCH  31  35
ENDBRANCH  26  27
ENDBRANCH  24  26
ENDBRANCH  23  24
ENDBRANCH  22  23
ENDBRANCH  12  22
BRANCH  14  37
HETATM   37  O   UNL     1     -20.548 -15.457  -2.231  1.00  0.00    -0.382 OA
HETATM   38  H   UNL     1     -21.104 -15.095  -1.513  1.00  0.00     0.211 HD
ENDBRANCH  14  37
BRANCH   1  39
HETATM   39  C   UNL     1     -21.910  -8.300  -0.246  1.00  0.00    -0.056 C 
HETATM   40  C   UNL     1     -21.779  -8.191   1.101  1.00  0.00     0.017 C 
HETATM   41  C   UNL     1     -22.299  -7.046  -0.967  1.00  0.00     0.046 C 
ENDBRANCH   1  39
BRANCH   7  42
HETATM   42  C   UNL     1     -19.771  -8.910  -4.113  1.00  0.00     0.140 C 
BRANCH  42  43
HETATM   43  C   UNL     1     -20.552  -7.812  -4.824  1.00  0.00    -0.051 A 
HETATM   44  C   UNL     1     -21.877  -7.433  -4.601  1.00  0.00     0.007 A 
HETATM   45  C   UNL     1     -22.421  -6.320  -5.268  1.00  0.00     0.001 A 
HETATM   46  C   UNL     1     -21.652  -5.572  -6.168  1.00  0.00     0.000 A 
HETATM   47  C   UNL     1     -20.341  -5.973  -6.424  1.00  0.00     0.001 A 
HETATM   48  C   UNL     1     -19.809  -7.079  -5.769  1.00  0.00     0.007 A 
ENDBRANCH  42  43
ENDBRANCH   7  42
TORSDOF 11
ENDMDL
