REMARK  11 active torsions:
REMARK  status: ('A' for Active; 'I' for Inactive)
REMARK    1  A    between atoms: C_2  and  C_4 
REMARK    2  A    between atoms: C_10  and  C_11 
REMARK    3  A    between atoms: C_11  and  C_12 
REMARK    4  A    between atoms: C_22  and  C_23 
REMARK    5  A    between atoms: C_23  and  O_24 
REMARK    6  A    between atoms: O_24  and  C_25 
REMARK    7  A    between atoms: C_25  and  C_27 
REMARK    8  A    between atoms: C_27  and  C_28 
REMARK    9  A    between atoms: C_31  and  O_32 
REMARK   10  A    between atoms: C_33  and  O_34 
REMARK   11  A    between atoms: C_38  and  O_39 
ROOT
HETATM    1  C   UNL     1       5.347  -3.720  -5.649  1.00  0.00     0.116 C 
HETATM    2  C   UNL     1       4.925  -2.379  -6.239  1.00  0.00     0.053 C 
HETATM    3  C   UNL     1       6.165  -1.532  -6.440  1.00  0.00     0.020 C 
HETATM    4  C   UNL     1       6.624  -0.838  -5.134  1.00  0.00     0.013 C 
HETATM    5  C   UNL     1       7.319  -2.355  -7.168  1.00  0.00     0.083 C 
HETATM    6  O   UNL     1       8.219  -2.945  -6.186  1.00  0.00    -0.320 OA
HETATM    7  C   UNL     1       7.602  -4.056  -5.407  1.00  0.00     0.288 C 
HETATM    8  O   UNL     1       7.111  -5.147  -6.191  1.00  0.00    -0.323 OA
HETATM    9  C   UNL     1       6.028  -4.512  -6.858  1.00  0.00     0.173 C 
HETATM   10  C   UNL     1       6.818  -3.613  -7.944  1.00  0.00     0.054 C 
HETATM   11  C   UNL     1       8.063  -4.415  -8.567  1.00  0.00     0.017 C 
HETATM   12  C   UNL     1       8.924  -3.908  -9.478  1.00  0.00     0.014 C 
HETATM   13  C   UNL     1       9.778  -2.688  -9.185  1.00  0.00     0.053 C 
HETATM   14  C   UNL     1       8.880  -1.478  -9.291  1.00  0.00     0.125 C 
HETATM   15  C   UNL     1       9.601  -0.139  -9.342  1.00  0.00     0.165 C 
HETATM   16  O   UNL     1      10.481   0.156 -10.139  1.00  0.00    -0.294 OA
HETATM   17  C   UNL     1       8.945   0.872  -8.447  1.00  0.00     0.055 C 
HETATM   18  C   UNL     1       8.016   1.743  -9.275  1.00  0.00     0.018 C 
HETATM   19  C   UNL     1       8.446   0.038  -7.509  1.00  0.00     0.023 C 
HETATM   20  C   UNL     1       7.903  -1.250  -8.140  1.00  0.00     0.064 C 
HETATM   21  O   UNL     1       6.486  -3.525  -4.750  1.00  0.00    -0.314 OA
ENDROOT
BRANCH  12  22
HETATM   22  C   UNL     1       8.800  -4.263 -10.937  1.00  0.00     0.183 C 
BRANCH  22  23
HETATM   23  O   UNL     1       9.024  -5.664 -11.113  1.00  0.00    -0.321 OA
BRANCH  23  24
HETATM   24  C   UNL     1      10.333  -6.034 -11.240  1.00  0.00     0.263 C 
HETATM   25  O   UNL     1      11.285  -5.274 -11.244  1.00  0.00    -0.265 OA
BRANCH  24  26
HETATM   26  C   UNL     1      10.425  -7.535 -11.376  1.00  0.00     0.149 C 
BRANCH  26  27
HETATM   27  C   UNL     1      10.611  -8.266 -10.072  1.00  0.00    -0.046 A 
HETATM   28  C   UNL     1       9.630  -8.217  -9.074  1.00  0.00     0.010 A 
HETATM   29  C   UNL     1       9.798  -8.935  -7.887  1.00  0.00     0.040 A 
HETATM   30  C   UNL     1      10.938  -9.736  -7.703  1.00  0.00     0.099 A 
HETATM   31  C   UNL     1      11.926  -9.789  -8.682  1.00  0.00     0.101 A 
HETATM   32  C   UNL     1      11.764  -9.041  -9.856  1.00  0.00     0.047 A 
BRANCH  30  33
HETATM   33  O   UNL     1      11.047 -10.427  -6.526  1.00  0.00    -0.358 OA
HETATM   34  H   UNL     1      10.299 -10.193  -5.951  1.00  0.00     0.217 HD
ENDBRANCH  30  33
BRANCH  31  35
HETATM   35  O   UNL     1      13.102 -10.491  -8.628  1.00  0.00    -0.353 OA
HETATM   36  C   UNL     1      13.074 -11.714  -7.899  1.00  0.00     0.210 C 
ENDBRANCH  31  35
ENDBRANCH  26  27
ENDBRANCH  24  26
ENDBRANCH  23  24
ENDBRANCH  22  23
ENDBRANCH  12  22
BRANCH  14  37
HETATM   37  O   UNL     1       8.146  -1.485 -10.544  1.00  0.00    -0.382 OA
HETATM   38  H   UNL     1       8.804  -1.306 -11.245  1.00  0.00     0.211 HD
ENDBRANCH  14  37
BRANCH   1  39
HETATM   39  C   UNL     1       4.244  -4.096  -4.630  1.00  0.00    -0.056 C 
HETATM   40  C   UNL     1       4.297  -3.583  -3.374  1.00  0.00     0.017 C 
HETATM   41  C   UNL     1       2.979  -4.813  -4.988  1.00  0.00     0.046 C 
ENDBRANCH   1  39
BRANCH   7  42
HETATM   42  C   UNL     1       8.674  -4.587  -4.452  1.00  0.00     0.140 C 
BRANCH  42  43
HETATM   43  C   UNL     1       8.564  -5.910  -3.706  1.00  0.00    -0.051 A 
HETATM   44  C   UNL     1       7.457  -6.759  -3.641  1.00  0.00     0.007 A 
HETATM   45  C   UNL     1       7.552  -8.006  -2.997  1.00  0.00     0.001 A 
HETATM   46  C   UNL     1       8.751  -8.422  -2.406  1.00  0.00     0.000 A 
HETATM   47  C   UNL     1       9.847  -7.560  -2.433  1.00  0.00     0.001 A 
HETATM   48  C   UNL     1       9.747  -6.324  -3.063  1.00  0.00     0.007 A 
ENDBRANCH  42  43
ENDBRANCH   7  42
TORSDOF 11
