MODEL 1
REMARK VINA RESULT:      -9.7      0.000      0.000
REMARK  6 active torsions:
REMARK  status: ('A' for Active; 'I' for Inactive)
REMARK       I    between atoms: C_2  and  N_4 
REMARK    1  A    between atoms: N_4  and  C_5 
REMARK    2  A    between atoms: C_9  and  O_10 
REMARK    3  A    between atoms: O_10  and  C_11 
REMARK    4  A    between atoms: C_13  and  N_14 
REMARK    5  A    between atoms: N_17  and  C_18 
REMARK    6  A    between atoms: C_18  and  C_20 
ROOT
HETATM    1  C   UNL     1     -33.634  -4.127 -15.574  1.00  0.00     0.152 A 
HETATM    2  C   UNL     1     -32.365  -4.646 -15.718  1.00  0.00     0.104 A 
HETATM    3  C   UNL     1     -31.616  -4.191 -16.792  1.00  0.00     0.108 A 
HETATM    4  N   UNL     1     -32.136  -3.313 -17.664  1.00  0.00    -0.339 N 
ATOM      5  HN  UNL     1     -31.583  -2.947 -18.439  1.00  0.00     0.168 HD
HETATM    6  C   UNL     1     -33.407  -2.935 -17.476  1.00  0.00     0.183 A 
HETATM    7  N   UNL     1     -34.203  -3.308 -16.474  1.00  0.00    -0.333 N 
ATOM      8  HN  UNL     1     -35.171  -2.994 -16.397  1.00  0.00     0.168 HD
ENDROOT
BRANCH   1   9
HETATM    9  O   UNL     1     -34.337  -4.463 -14.421  1.00  0.00    -0.291 OA
BRANCH   9  10
HETATM   10  C   UNL     1     -34.091  -3.734 -13.263  1.00  0.00     0.105 A 
HETATM   11  C   UNL     1     -34.705  -2.465 -13.107  1.00  0.00     0.085 A 
HETATM   12  N   UNL     1     -35.531  -1.798 -14.020  1.00  0.00    -0.333 N 
HETATM   13  C   UNL     1     -34.467  -1.756 -11.925  1.00  0.00     0.038 A 
HETATM   14  C   UNL     1     -35.780  -0.587 -13.581  1.00  0.00     0.152 C 
ATOM     15  HN  UNL     1     -35.885  -2.193 -14.892  1.00  0.00     0.168 HD
HETATM   16  S   UNL     1     -35.272  -0.245 -11.996  1.00  0.00    -0.052 SA
HETATM   17  C   UNL     1     -33.669  -2.249 -10.883  1.00  0.00     0.021 A 
HETATM   18  C   UNL     1     -33.079  -3.497 -11.048  1.00  0.00     0.004 A 
HETATM   19  C   UNL     1     -33.299  -4.235 -12.208  1.00  0.00     0.040 A 
BRANCH  14  20
HETATM   20  N   UNL     1     -36.473   0.341 -14.323  1.00  0.00    -0.307 N 
HETATM   21  C   UNL     1     -37.543   0.048 -15.143  1.00  0.00     0.219 C 
HETATM   22  C   UNL     1     -38.074   1.259 -15.862  1.00  0.00     0.117 C 
HETATM   23  O   UNL     1     -38.071  -1.046 -15.316  1.00  0.00    -0.274 OA
HETATM   24  H   UNL     1     -36.299   1.297 -14.047  1.00  0.00     0.171 HD
ENDBRANCH  14  20
ENDBRANCH   9  10
ENDBRANCH   1   9
BRANCH   3  25
HETATM   25  N   UNL     1     -30.292  -4.582 -16.938  1.00  0.00    -0.364 N 
HETATM   26  C   UNL     1     -29.791  -4.930 -18.279  1.00  0.00     0.154 C 
HETATM   27  C   UNL     1     -29.353  -6.406 -18.384  1.00  0.00     0.293 C 
HETATM   28  N   UNL     1     -28.408  -6.851 -17.323  1.00  0.00     0.100 N 
HETATM   29  C   UNL     1     -29.137  -6.618 -16.042  1.00  0.00     0.293 C 
HETATM   30  C   UNL     1     -29.584  -5.156 -15.786  1.00  0.00     0.154 C 
BRANCH  28  31
HETATM   31  C   UNL     1     -27.091  -6.149 -17.369  1.00  0.00     0.252 C 
HETATM   32  C   UNL     1     -26.342  -6.293 -16.029  1.00  0.00     0.048 C 
BRANCH  31  33
HETATM   33  C   UNL     1     -26.169  -6.616 -18.512  1.00  0.00    -0.025 A 
HETATM   34  C   UNL     1     -26.672  -6.676 -19.828  1.00  0.00     0.012 A 
HETATM   35  C   UNL     1     -25.866  -7.124 -20.886  1.00  0.00     0.043 A 
HETATM   36  C   UNL     1     -24.553  -7.491 -20.637  1.00  0.00     0.116 A 
HETATM   37  F   UNL     1     -23.786  -7.928 -21.647  1.00  0.00    -0.206 F 
HETATM   38  C   UNL     1     -24.023  -7.408 -19.354  1.00  0.00     0.043 A 
HETATM   39  C   UNL     1     -24.830  -6.976 -18.295  1.00  0.00     0.012 A 
ENDBRANCH  31  33
ENDBRANCH  28  31
ENDBRANCH   3  25
TORSDOF 6
ENDMDL
MODEL 2
REMARK VINA RESULT:      -9.6     13.679     16.790
REMARK  6 active torsions:
REMARK  status: ('A' for Active; 'I' for Inactive)
REMARK       I    between atoms: C_2  and  N_4 
REMARK    1  A    between atoms: N_4  and  C_5 
REMARK    2  A    between atoms: C_9  and  O_10 
REMARK    3  A    between atoms: O_10  and  C_11 
REMARK    4  A    between atoms: C_13  and  N_14 
REMARK    5  A    between atoms: N_17  and  C_18 
REMARK    6  A    between atoms: C_18  and  C_20 
ROOT
HETATM    1  C   UNL     1     -21.501  -8.407  -1.920  1.00  0.00     0.152 A 
HETATM    2  C   UNL     1     -21.413  -7.830  -3.169  1.00  0.00     0.104 A 
HETATM    3  C   UNL     1     -21.758  -6.491  -3.270  1.00  0.00     0.108 A 
HETATM    4  N   UNL     1     -22.189  -5.814  -2.196  1.00  0.00    -0.339 N 
ATOM      5  HN  UNL     1     -22.414  -4.820  -2.252  1.00  0.00     0.168 HD
HETATM    6  C   UNL     1     -22.314  -6.491  -1.048  1.00  0.00     0.183 A 
HETATM    7  N   UNL     1     -22.003  -7.772  -0.847  1.00  0.00    -0.333 N 
ATOM      8  HN  UNL     1     -22.136  -8.234   0.053  1.00  0.00     0.168 HD
ENDROOT
BRANCH   1   9
HETATM    9  O   UNL     1     -21.018  -9.705  -1.777  1.00  0.00    -0.291 OA
BRANCH   9  10
HETATM   10  C   UNL     1     -21.937 -10.737  -1.635  1.00  0.00     0.105 A 
HETATM   11  C   UNL     1     -21.919 -11.805  -2.569  1.00  0.00     0.085 A 
HETATM   12  N   UNL     1     -21.092 -11.946  -3.689  1.00  0.00    -0.333 N 
HETATM   13  C   UNL     1     -22.834 -12.849  -2.396  1.00  0.00     0.038 A 
HETATM   14  C   UNL     1     -21.476 -12.987  -4.389  1.00  0.00     0.152 C 
ATOM     15  HN  UNL     1     -20.311 -11.333  -3.925  1.00  0.00     0.168 HD
HETATM   16  S   UNL     1     -22.650 -13.982  -3.669  1.00  0.00    -0.052 SA
HETATM   17  C   UNL     1     -23.749 -12.899  -1.335  1.00  0.00     0.021 A 
HETATM   18  C   UNL     1     -23.750 -11.849  -0.425  1.00  0.00     0.004 A 
HETATM   19  C   UNL     1     -22.849 -10.796  -0.560  1.00  0.00     0.040 A 
BRANCH  14  20
HETATM   20  N   UNL     1     -20.920 -13.307  -5.606  1.00  0.00    -0.307 N 
HETATM   21  C   UNL     1     -20.808 -12.436  -6.669  1.00  0.00     0.219 C 
HETATM   22  C   UNL     1     -20.196 -13.078  -7.886  1.00  0.00     0.117 C 
HETATM   23  O   UNL     1     -21.135 -11.254  -6.701  1.00  0.00    -0.274 OA
HETATM   24  H   UNL     1     -20.379 -14.160  -5.597  1.00  0.00     0.171 HD
ENDBRANCH  14  20
ENDBRANCH   9  10
ENDBRANCH   1   9
BRANCH   3  25
HETATM   25  N   UNL     1     -21.588  -5.814  -4.471  1.00  0.00    -0.364 N 
HETATM   26  C   UNL     1     -22.465  -6.142  -5.608  1.00  0.00     0.154 C 
HETATM   27  C   UNL     1     -21.688  -6.729  -6.806  1.00  0.00     0.293 C 
HETATM   28  N   UNL     1     -20.517  -5.920  -7.243  1.00  0.00     0.100 N 
HETATM   29  C   UNL     1     -19.636  -5.847  -6.042  1.00  0.00     0.293 C 
HETATM   30  C   UNL     1     -20.280  -5.220  -4.779  1.00  0.00     0.154 C 
BRANCH  28  31
HETATM   31  C   UNL     1     -20.888  -4.572  -7.766  1.00  0.00     0.252 C 
HETATM   32  C   UNL     1     -19.640  -3.683  -7.934  1.00  0.00     0.048 C 
BRANCH  31  33
HETATM   33  C   UNL     1     -21.665  -4.604  -9.096  1.00  0.00    -0.025 A 
HETATM   34  C   UNL     1     -23.065  -4.772  -9.076  1.00  0.00     0.012 A 
HETATM   35  C   UNL     1     -23.799  -4.835 -10.272  1.00  0.00     0.043 A 
HETATM   36  C   UNL     1     -23.139  -4.707 -11.485  1.00  0.00     0.116 A 
HETATM   37  F   UNL     1     -23.840  -4.775 -12.627  1.00  0.00    -0.206 F 
HETATM   38  C   UNL     1     -21.765  -4.506 -11.529  1.00  0.00     0.043 A 
HETATM   39  C   UNL     1     -21.030  -4.459 -10.338  1.00  0.00     0.012 A 
ENDBRANCH  31  33
ENDBRANCH  28  31
ENDBRANCH   3  25
TORSDOF 6
ENDMDL
MODEL 3
REMARK VINA RESULT:      -9.1     14.103     17.543
REMARK  6 active torsions:
REMARK  status: ('A' for Active; 'I' for Inactive)
REMARK       I    between atoms: C_2  and  N_4 
REMARK    1  A    between atoms: N_4  and  C_5 
REMARK    2  A    between atoms: C_9  and  O_10 
REMARK    3  A    between atoms: O_10  and  C_11 
REMARK    4  A    between atoms: C_13  and  N_14 
REMARK    5  A    between atoms: N_17  and  C_18 
REMARK    6  A    between atoms: C_18  and  C_20 
ROOT
HETATM    1  C   UNL     1     -21.173  -8.309  -1.877  1.00  0.00     0.152 A 
HETATM    2  C   UNL     1     -21.109  -7.740  -3.132  1.00  0.00     0.104 A 
HETATM    3  C   UNL     1     -21.655  -6.474  -3.278  1.00  0.00     0.108 A 
HETATM    4  N   UNL     1     -22.247  -5.862  -2.242  1.00  0.00    -0.339 N 
ATOM      5  HN  UNL     1     -22.623  -4.917  -2.329  1.00  0.00     0.168 HD
HETATM    6  C   UNL     1     -22.325  -6.537  -1.088  1.00  0.00     0.183 A 
HETATM    7  N   UNL     1     -21.827  -7.750  -0.845  1.00  0.00    -0.333 N 
ATOM      8  HN  UNL     1     -21.935  -8.217   0.055  1.00  0.00     0.168 HD
ENDROOT
BRANCH   1   9
HETATM    9  O   UNL     1     -20.500  -9.512  -1.683  1.00  0.00    -0.291 OA
BRANCH   9  10
HETATM   10  C   UNL     1     -21.037 -10.665  -2.242  1.00  0.00     0.105 A 
HETATM   11  C   UNL     1     -20.284 -11.372  -3.215  1.00  0.00     0.085 A 
HETATM   12  N   UNL     1     -19.035 -11.027  -3.743  1.00  0.00    -0.333 N 
HETATM   13  C   UNL     1     -20.829 -12.545  -3.748  1.00  0.00     0.038 A 
HETATM   14  C   UNL     1     -18.735 -11.844  -4.725  1.00  0.00     0.152 C 
ATOM     15  HN  UNL     1     -18.448 -10.259  -3.415  1.00  0.00     0.168 HD
HETATM   16  S   UNL     1     -19.762 -13.181  -4.928  1.00  0.00    -0.052 SA
HETATM   17  C   UNL     1     -22.070 -13.063  -3.351  1.00  0.00     0.021 A 
HETATM   18  C   UNL     1     -22.793 -12.363  -2.392  1.00  0.00     0.004 A 
HETATM   19  C   UNL     1     -22.279 -11.196  -1.834  1.00  0.00     0.040 A 
BRANCH  14  20
HETATM   20  N   UNL     1     -17.617 -11.679  -5.510  1.00  0.00    -0.307 N 
HETATM   21  C   UNL     1     -16.328 -11.584  -5.026  1.00  0.00     0.219 C 
HETATM   22  C   UNL     1     -15.313 -11.365  -6.116  1.00  0.00     0.117 C 
HETATM   23  O   UNL     1     -15.962 -11.669  -3.859  1.00  0.00    -0.274 OA
HETATM   24  H   UNL     1     -17.772 -11.869  -6.489  1.00  0.00     0.171 HD
ENDBRANCH  14  20
ENDBRANCH   9  10
ENDBRANCH   1   9
BRANCH   3  25
HETATM   25  N   UNL     1     -21.529  -5.793  -4.481  1.00  0.00    -0.364 N 
HETATM   26  C   UNL     1     -22.422  -6.142  -5.599  1.00  0.00     0.154 C 
HETATM   27  C   UNL     1     -21.657  -6.709  -6.815  1.00  0.00     0.293 C 
HETATM   28  N   UNL     1     -20.517  -5.871  -7.276  1.00  0.00     0.100 N 
HETATM   29  C   UNL     1     -19.612  -5.776  -6.095  1.00  0.00     0.293 C 
HETATM   30  C   UNL     1     -20.244  -5.166  -4.817  1.00  0.00     0.154 C 
BRANCH  28  31
HETATM   31  C   UNL     1     -20.934  -4.533  -7.790  1.00  0.00     0.252 C 
HETATM   32  C   UNL     1     -19.717  -3.599  -7.947  1.00  0.00     0.048 C 
BRANCH  31  33
HETATM   33  C   UNL     1     -21.705  -4.581  -9.123  1.00  0.00    -0.025 A 
HETATM   34  C   UNL     1     -23.103  -4.761  -9.108  1.00  0.00     0.012 A 
HETATM   35  C   UNL     1     -23.830  -4.839 -10.307  1.00  0.00     0.043 A 
HETATM   36  C   UNL     1     -23.167  -4.715 -11.518  1.00  0.00     0.116 A 
HETATM   37  F   UNL     1     -23.861  -4.798 -12.663  1.00  0.00    -0.206 F 
HETATM   38  C   UNL     1     -21.794  -4.503 -11.558  1.00  0.00     0.043 A 
HETATM   39  C   UNL     1     -21.064  -4.440 -10.364  1.00  0.00     0.012 A 
ENDBRANCH  31  33
ENDBRANCH  28  31
ENDBRANCH   3  25
TORSDOF 6
ENDMDL
MODEL 4
REMARK VINA RESULT:      -9.0     15.887     19.035
REMARK  6 active torsions:
REMARK  status: ('A' for Active; 'I' for Inactive)
REMARK       I    between atoms: C_2  and  N_4 
REMARK    1  A    between atoms: N_4  and  C_5 
REMARK    2  A    between atoms: C_9  and  O_10 
REMARK    3  A    between atoms: O_10  and  C_11 
REMARK    4  A    between atoms: C_13  and  N_14 
REMARK    5  A    between atoms: N_17  and  C_18 
REMARK    6  A    between atoms: C_18  and  C_20 
ROOT
HETATM    1  C   UNL     1     -21.210  -9.255   0.240  1.00  0.00     0.152 A 
HETATM    2  C   UNL     1     -20.851  -8.861  -1.031  1.00  0.00     0.104 A 
HETATM    3  C   UNL     1     -21.521  -7.772  -1.566  1.00  0.00     0.108 A 
HETATM    4  N   UNL     1     -22.498  -7.164  -0.875  1.00  0.00    -0.339 N 
ATOM      5  HN  UNL     1     -22.975  -6.342  -1.244  1.00  0.00     0.168 HD
HETATM    6  C   UNL     1     -22.821  -7.678   0.319  1.00  0.00     0.183 A 
HETATM    7  N   UNL     1     -22.234  -8.713   0.920  1.00  0.00    -0.333 N 
ATOM      8  HN  UNL     1     -22.540  -9.066   1.827  1.00  0.00     0.168 HD
ENDROOT
BRANCH   1   9
HETATM    9  O   UNL     1     -20.445 -10.250   0.843  1.00  0.00    -0.291 OA
BRANCH   9  10
HETATM   10  C   UNL     1     -20.620 -11.562   0.421  1.00  0.00     0.105 A 
HETATM   11  C   UNL     1     -19.701 -12.112  -0.510  1.00  0.00     0.085 A 
HETATM   12  N   UNL     1     -18.616 -11.471  -1.119  1.00  0.00    -0.333 N 
HETATM   13  C   UNL     1     -19.877 -13.443  -0.904  1.00  0.00     0.038 A 
HETATM   14  C   UNL     1     -18.097 -12.260  -2.029  1.00  0.00     0.152 C 
ATOM     15  HN  UNL     1     -18.282 -10.535  -0.891  1.00  0.00     0.168 HD
HETATM   16  S   UNL     1     -18.681 -13.855  -2.060  1.00  0.00    -0.052 SA
HETATM   17  C   UNL     1     -20.903 -14.260  -0.409  1.00  0.00     0.021 A 
HETATM   18  C   UNL     1     -21.792 -13.708   0.507  1.00  0.00     0.004 A 
HETATM   19  C   UNL     1     -21.644 -12.391   0.929  1.00  0.00     0.040 A 
BRANCH  14  20
HETATM   20  N   UNL     1     -17.087 -11.855  -2.871  1.00  0.00    -0.307 N 
HETATM   21  C   UNL     1     -16.796 -10.541  -3.169  1.00  0.00     0.219 C 
HETATM   22  C   UNL     1     -15.665 -10.403  -4.153  1.00  0.00     0.117 C 
HETATM   23  O   UNL     1     -17.340  -9.537  -2.720  1.00  0.00    -0.274 OA
HETATM   24  H   UNL     1     -16.412 -12.578  -3.078  1.00  0.00     0.171 HD
ENDBRANCH  14  20
ENDBRANCH   9  10
ENDBRANCH   1   9
BRANCH   3  25
HETATM   25  N   UNL     1     -21.139  -7.249  -2.793  1.00  0.00    -0.364 N 
HETATM   26  C   UNL     1     -21.914  -6.138  -3.373  1.00  0.00     0.154 C 
HETATM   27  C   UNL     1     -22.596  -6.521  -4.704  1.00  0.00     0.293 C 
HETATM   28  N   UNL     1     -21.687  -7.129  -5.714  1.00  0.00     0.100 N 
HETATM   29  C   UNL     1     -21.135  -8.344  -5.048  1.00  0.00     0.293 C 
HETATM   30  C   UNL     1     -20.371  -8.089  -3.722  1.00  0.00     0.154 C 
BRANCH  28  31
HETATM   31  C   UNL     1     -20.619  -6.198  -6.187  1.00  0.00     0.252 C 
HETATM   32  C   UNL     1     -19.328  -6.969  -6.529  1.00  0.00     0.048 C 
BRANCH  31  33
HETATM   33  C   UNL     1     -21.026  -5.337  -7.398  1.00  0.00    -0.025 A 
HETATM   34  C   UNL     1     -20.138  -5.210  -8.487  1.00  0.00     0.012 A 
HETATM   35  C   UNL     1     -20.467  -4.409  -9.592  1.00  0.00     0.043 A 
HETATM   36  C   UNL     1     -21.689  -3.754  -9.622  1.00  0.00     0.116 A 
HETATM   37  F   UNL     1     -21.999  -2.982 -10.676  1.00  0.00    -0.206 F 
HETATM   38  C   UNL     1     -22.595  -3.892  -8.577  1.00  0.00     0.043 A 
HETATM   39  C   UNL     1     -22.263  -4.678  -7.467  1.00  0.00     0.012 A 
ENDBRANCH  31  33
ENDBRANCH  28  31
ENDBRANCH   3  25
TORSDOF 6
ENDMDL
MODEL 5
REMARK VINA RESULT:      -8.9     13.605     17.032
REMARK  6 active torsions:
REMARK  status: ('A' for Active; 'I' for Inactive)
REMARK       I    between atoms: C_2  and  N_4 
REMARK    1  A    between atoms: N_4  and  C_5 
REMARK    2  A    between atoms: C_9  and  O_10 
REMARK    3  A    between atoms: O_10  and  C_11 
REMARK    4  A    between atoms: C_13  and  N_14 
REMARK    5  A    between atoms: N_17  and  C_18 
REMARK    6  A    between atoms: C_18  and  C_20 
ROOT
HETATM    1  C   UNL     1     -20.915  -8.250  -1.978  1.00  0.00     0.152 A 
HETATM    2  C   UNL     1     -20.863  -7.664  -3.226  1.00  0.00     0.104 A 
HETATM    3  C   UNL     1     -21.528  -6.458  -3.384  1.00  0.00     0.108 A 
HETATM    4  N   UNL     1     -22.216  -5.919  -2.366  1.00  0.00    -0.339 N 
ATOM      5  HN  UNL     1     -22.682  -5.017  -2.461  1.00  0.00     0.168 HD
HETATM    6  C   UNL     1     -22.268  -6.611  -1.220  1.00  0.00     0.183 A 
HETATM    7  N   UNL     1     -21.659  -7.770  -0.968  1.00  0.00    -0.333 N 
ATOM      8  HN  UNL     1     -21.752  -8.255  -0.075  1.00  0.00     0.168 HD
ENDROOT
BRANCH   1   9
HETATM    9  O   UNL     1     -20.131  -9.380  -1.768  1.00  0.00    -0.291 OA
BRANCH   9  10
HETATM   10  C   UNL     1     -19.245  -9.764  -2.767  1.00  0.00     0.105 A 
HETATM   11  C   UNL     1     -19.731 -10.531  -3.858  1.00  0.00     0.085 A 
HETATM   12  N   UNL     1     -21.032 -11.009  -4.052  1.00  0.00    -0.333 N 
HETATM   13  C   UNL     1     -18.831 -10.886  -4.868  1.00  0.00     0.038 A 
HETATM   14  C   UNL     1     -21.055 -11.801  -5.098  1.00  0.00     0.152 C 
ATOM     15  HN  UNL     1     -21.838 -10.779  -3.471  1.00  0.00     0.168 HD
HETATM   16  S   UNL     1     -19.640 -11.843  -6.038  1.00  0.00    -0.052 SA
HETATM   17  C   UNL     1     -17.482 -10.504  -4.863  1.00  0.00     0.021 A 
HETATM   18  C   UNL     1     -17.023  -9.748  -3.791  1.00  0.00     0.004 A 
HETATM   19  C   UNL     1     -17.891  -9.369  -2.771  1.00  0.00     0.040 A 
BRANCH  14  20
HETATM   20  N   UNL     1     -22.175 -12.510  -5.466  1.00  0.00    -0.307 N 
HETATM   21  C   UNL     1     -22.265 -13.887  -5.468  1.00  0.00     0.219 C 
HETATM   22  C   UNL     1     -23.599 -14.382  -5.959  1.00  0.00     0.117 C 
HETATM   23  O   UNL     1     -21.407 -14.690  -5.115  1.00  0.00    -0.274 OA
HETATM   24  H   UNL     1     -23.016 -11.952  -5.511  1.00  0.00     0.171 HD
ENDBRANCH  14  20
ENDBRANCH   9  10
ENDBRANCH   1   9
BRANCH   3  25
HETATM   25  N   UNL     1     -21.428  -5.755  -4.576  1.00  0.00    -0.364 N 
HETATM   26  C   UNL     1     -22.278  -6.147  -5.713  1.00  0.00     0.154 C 
HETATM   27  C   UNL     1     -21.459  -6.648  -6.922  1.00  0.00     0.293 C 
HETATM   28  N   UNL     1     -20.369  -5.732  -7.355  1.00  0.00     0.100 N 
HETATM   29  C   UNL     1     -19.490  -5.593  -6.158  1.00  0.00     0.293 C 
HETATM   30  C   UNL     1     -20.181  -5.041  -4.884  1.00  0.00     0.154 C 
BRANCH  28  31
HETATM   31  C   UNL     1     -20.864  -4.417  -7.860  1.00  0.00     0.252 C 
HETATM   32  C   UNL     1     -19.698  -3.426  -8.053  1.00  0.00     0.048 C 
BRANCH  31  33
HETATM   33  C   UNL     1     -21.668  -4.507  -9.171  1.00  0.00    -0.025 A 
HETATM   34  C   UNL     1     -23.069  -4.658  -9.115  1.00  0.00     0.012 A 
HETATM   35  C   UNL     1     -23.828  -4.773 -10.291  1.00  0.00     0.043 A 
HETATM   36  C   UNL     1     -23.192  -4.715 -11.521  1.00  0.00     0.116 A 
HETATM   37  F   UNL     1     -23.917  -4.833 -12.645  1.00  0.00    -0.206 F 
HETATM   38  C   UNL     1     -21.817  -4.533 -11.604  1.00  0.00     0.043 A 
HETATM   39  C   UNL     1     -21.057  -4.433 -10.432  1.00  0.00     0.012 A 
ENDBRANCH  31  33
ENDBRANCH  28  31
ENDBRANCH   3  25
TORSDOF 6
ENDMDL
MODEL 6
REMARK VINA RESULT:      -8.8     15.169     18.455
REMARK  6 active torsions:
REMARK  status: ('A' for Active; 'I' for Inactive)
REMARK       I    between atoms: C_2  and  N_4 
REMARK    1  A    between atoms: N_4  and  C_5 
REMARK    2  A    between atoms: C_9  and  O_10 
REMARK    3  A    between atoms: O_10  and  C_11 
REMARK    4  A    between atoms: C_13  and  N_14 
REMARK    5  A    between atoms: N_17  and  C_18 
REMARK    6  A    between atoms: C_18  and  C_20 
ROOT
HETATM    1  C   UNL     1     -20.982  -8.165  -1.872  1.00  0.00     0.152 A 
HETATM    2  C   UNL     1     -20.924  -7.607  -3.131  1.00  0.00     0.104 A 
HETATM    3  C   UNL     1     -21.592  -6.408  -3.320  1.00  0.00     0.108 A 
HETATM    4  N   UNL     1     -22.289  -5.849  -2.319  1.00  0.00    -0.339 N 
ATOM      5  HN  UNL     1     -22.757  -4.950  -2.437  1.00  0.00     0.168 HD
HETATM    6  C   UNL     1     -22.346  -6.515  -1.159  1.00  0.00     0.183 A 
HETATM    7  N   UNL     1     -21.735  -7.666  -0.877  1.00  0.00    -0.333 N 
ATOM      8  HN  UNL     1     -21.832  -8.132   0.026  1.00  0.00     0.168 HD
ENDROOT
BRANCH   1   9
HETATM    9  O   UNL     1     -20.196  -9.289  -1.631  1.00  0.00    -0.291 OA
BRANCH   9  10
HETATM   10  C   UNL     1     -20.759 -10.543  -1.834  1.00  0.00     0.105 A 
HETATM   11  C   UNL     1     -19.976 -11.697  -1.573  1.00  0.00     0.085 A 
HETATM   12  N   UNL     1     -18.640 -11.746  -1.159  1.00  0.00    -0.333 N 
HETATM   13  C   UNL     1     -20.567 -12.952  -1.758  1.00  0.00     0.038 A 
HETATM   14  C   UNL     1     -18.225 -12.991  -1.170  1.00  0.00     0.152 C 
ATOM     15  HN  UNL     1     -18.077 -10.940  -0.890  1.00  0.00     0.168 HD
HETATM   16  S   UNL     1     -19.415 -14.176  -1.428  1.00  0.00    -0.052 SA
HETATM   17  C   UNL     1     -21.898 -13.120  -2.167  1.00  0.00     0.021 A 
HETATM   18  C   UNL     1     -22.653 -11.979  -2.413  1.00  0.00     0.004 A 
HETATM   19  C   UNL     1     -22.102 -10.714  -2.232  1.00  0.00     0.040 A 
BRANCH  14  20
HETATM   20  N   UNL     1     -16.917 -13.337  -0.919  1.00  0.00    -0.307 N 
HETATM   21  C   UNL     1     -16.221 -12.993   0.221  1.00  0.00     0.219 C 
HETATM   22  C   UNL     1     -14.795 -13.475   0.199  1.00  0.00     0.117 C 
HETATM   23  O   UNL     1     -16.643 -12.376   1.194  1.00  0.00    -0.274 OA
HETATM   24  H   UNL     1     -16.565 -14.067  -1.521  1.00  0.00     0.171 HD
ENDBRANCH  14  20
ENDBRANCH   9  10
ENDBRANCH   1   9
BRANCH   3  25
HETATM   25  N   UNL     1     -21.486  -5.731  -4.528  1.00  0.00    -0.364 N 
HETATM   26  C   UNL     1     -22.373  -6.108  -5.641  1.00  0.00     0.154 C 
HETATM   27  C   UNL     1     -21.597  -6.663  -6.855  1.00  0.00     0.293 C 
HETATM   28  N   UNL     1     -20.479  -5.800  -7.325  1.00  0.00     0.100 N 
HETATM   29  C   UNL     1     -19.573  -5.675  -6.147  1.00  0.00     0.293 C 
HETATM   30  C   UNL     1     -20.218  -5.073  -4.871  1.00  0.00     0.154 C 
BRANCH  28  31
HETATM   31  C   UNL     1     -20.930  -4.475  -7.845  1.00  0.00     0.252 C 
HETATM   32  C   UNL     1     -19.736  -3.515  -8.019  1.00  0.00     0.048 C 
BRANCH  31  33
HETATM   33  C   UNL     1     -21.710  -4.552  -9.172  1.00  0.00    -0.025 A 
HETATM   34  C   UNL     1     -23.111  -4.712  -9.143  1.00  0.00     0.012 A 
HETATM   35  C   UNL     1     -23.847  -4.814 -10.335  1.00  0.00     0.043 A 
HETATM   36  C   UNL     1     -23.190  -4.734 -11.553  1.00  0.00     0.116 A 
HETATM   37  F   UNL     1     -23.893  -4.840 -12.691  1.00  0.00    -0.206 F 
HETATM   38  C   UNL     1     -21.814  -4.541 -11.607  1.00  0.00     0.043 A 
HETATM   39  C   UNL     1     -21.076  -4.455 -10.420  1.00  0.00     0.012 A 
ENDBRANCH  31  33
ENDBRANCH  28  31
ENDBRANCH   3  25
TORSDOF 6
ENDMDL
MODEL 7
REMARK VINA RESULT:      -8.8     15.133     18.062
REMARK  6 active torsions:
REMARK  status: ('A' for Active; 'I' for Inactive)
REMARK       I    between atoms: C_2  and  N_4 
REMARK    1  A    between atoms: N_4  and  C_5 
REMARK    2  A    between atoms: C_9  and  O_10 
REMARK    3  A    between atoms: O_10  and  C_11 
REMARK    4  A    between atoms: C_13  and  N_14 
REMARK    5  A    between atoms: N_17  and  C_18 
REMARK    6  A    between atoms: C_18  and  C_20 
ROOT
HETATM    1  C   UNL     1     -21.101  -9.945  -0.288  1.00  0.00     0.152 A 
HETATM    2  C   UNL     1     -20.871  -9.412  -1.539  1.00  0.00     0.104 A 
HETATM    3  C   UNL     1     -21.220  -8.085  -1.732  1.00  0.00     0.108 A 
HETATM    4  N   UNL     1     -21.788  -7.377  -0.744  1.00  0.00    -0.339 N 
ATOM      5  HN  UNL     1     -22.018  -6.391  -0.864  1.00  0.00     0.168 HD
HETATM    6  C   UNL     1     -22.040  -8.015   0.406  1.00  0.00     0.183 A 
HETATM    7  N   UNL     1     -21.738  -9.282   0.691  1.00  0.00    -0.333 N 
ATOM      8  HN  UNL     1     -21.972  -9.714   1.585  1.00  0.00     0.168 HD
ENDROOT
BRANCH   1   9
HETATM    9  O   UNL     1     -20.621 -11.228  -0.039  1.00  0.00    -0.291 OA
BRANCH   9  10
HETATM   10  C   UNL     1     -21.535 -12.273   0.022  1.00  0.00     0.105 A 
HETATM   11  C   UNL     1     -21.950 -12.894  -1.185  1.00  0.00     0.085 A 
HETATM   12  N   UNL     1     -21.578 -12.554  -2.491  1.00  0.00    -0.333 N 
HETATM   13  C   UNL     1     -22.850 -13.961  -1.103  1.00  0.00     0.038 A 
HETATM   14  C   UNL     1     -22.284 -13.258  -3.343  1.00  0.00     0.152 C 
ATOM     15  HN  UNL     1     -20.869 -11.865  -2.741  1.00  0.00     0.168 HD
HETATM   16  S   UNL     1     -23.233 -14.504  -2.682  1.00  0.00    -0.052 SA
HETATM   17  C   UNL     1     -23.343 -14.457   0.113  1.00  0.00     0.021 A 
HETATM   18  C   UNL     1     -22.922 -13.842   1.286  1.00  0.00     0.004 A 
HETATM   19  C   UNL     1     -22.021 -12.783   1.245  1.00  0.00     0.040 A 
BRANCH  14  20
HETATM   20  N   UNL     1     -22.218 -13.059  -4.703  1.00  0.00    -0.307 N 
HETATM   21  C   UNL     1     -21.257 -12.300  -5.337  1.00  0.00     0.219 C 
HETATM   22  C   UNL     1     -21.462 -12.226  -6.826  1.00  0.00     0.117 C 
HETATM   23  O   UNL     1     -20.302 -11.726  -4.823  1.00  0.00    -0.274 OA
HETATM   24  H   UNL     1     -22.785 -13.700  -5.239  1.00  0.00     0.171 HD
ENDBRANCH  14  20
ENDBRANCH   9  10
ENDBRANCH   1   9
BRANCH   3  25
HETATM   25  N   UNL     1     -20.915  -7.449  -2.928  1.00  0.00    -0.364 N 
HETATM   26  C   UNL     1     -21.664  -6.238  -3.306  1.00  0.00     0.154 C 
HETATM   27  C   UNL     1     -22.487  -6.428  -4.598  1.00  0.00     0.293 C 
HETATM   28  N   UNL     1     -21.717  -6.968  -5.751  1.00  0.00     0.100 N 
HETATM   29  C   UNL     1     -21.190  -8.280  -5.277  1.00  0.00     0.293 C 
HETATM   30  C   UNL     1     -20.294  -8.221  -4.012  1.00  0.00     0.154 C 
BRANCH  28  31
HETATM   31  C   UNL     1     -20.637  -6.052  -6.224  1.00  0.00     0.252 C 
HETATM   32  C   UNL     1     -19.341  -6.834  -6.519  1.00  0.00     0.048 C 
BRANCH  31  33
HETATM   33  C   UNL     1     -21.014  -5.220  -7.464  1.00  0.00    -0.025 A 
HETATM   34  C   UNL     1     -22.294  -4.632  -7.541  1.00  0.00     0.012 A 
HETATM   35  C   UNL     1     -22.679  -3.893  -8.670  1.00  0.00     0.043 A 
HETATM   36  C   UNL     1     -21.781  -3.720  -9.712  1.00  0.00     0.116 A 
HETATM   37  F   UNL     1     -22.153  -3.020 -10.795  1.00  0.00    -0.206 F 
HETATM   38  C   UNL     1     -20.502  -4.260  -9.645  1.00  0.00     0.043 A 
HETATM   39  C   UNL     1     -20.121  -5.011  -8.527  1.00  0.00     0.012 A 
ENDBRANCH  31  33
ENDBRANCH  28  31
ENDBRANCH   3  25
TORSDOF 6
ENDMDL
MODEL 8
REMARK VINA RESULT:      -8.8     14.561     17.587
REMARK  6 active torsions:
REMARK  status: ('A' for Active; 'I' for Inactive)
REMARK       I    between atoms: C_2  and  N_4 
REMARK    1  A    between atoms: N_4  and  C_5 
REMARK    2  A    between atoms: C_9  and  O_10 
REMARK    3  A    between atoms: O_10  and  C_11 
REMARK    4  A    between atoms: C_13  and  N_14 
REMARK    5  A    between atoms: N_17  and  C_18 
REMARK    6  A    between atoms: C_18  and  C_20 
ROOT
HETATM    1  C   UNL     1     -20.911  -8.219  -1.917  1.00  0.00     0.152 A 
HETATM    2  C   UNL     1     -20.869  -7.643  -3.169  1.00  0.00     0.104 A 
HETATM    3  C   UNL     1     -21.562  -6.455  -3.340  1.00  0.00     0.108 A 
HETATM    4  N   UNL     1     -22.266  -5.924  -2.329  1.00  0.00    -0.339 N 
ATOM      5  HN  UNL     1     -22.753  -5.033  -2.433  1.00  0.00     0.168 HD
HETATM    6  C   UNL     1     -22.305  -6.607  -1.178  1.00  0.00     0.183 A 
HETATM    7  N   UNL     1     -21.670  -7.749  -0.913  1.00  0.00    -0.333 N 
ATOM      8  HN  UNL     1     -21.755  -8.229  -0.017  1.00  0.00     0.168 HD
ENDROOT
BRANCH   1   9
HETATM    9  O   UNL     1     -20.102  -9.330  -1.694  1.00  0.00    -0.291 OA
BRANCH   9  10
HETATM   10  C   UNL     1     -20.319 -10.468  -2.461  1.00  0.00     0.105 A 
HETATM   11  C   UNL     1     -21.212 -11.460  -1.979  1.00  0.00     0.085 A 
HETATM   12  N   UNL     1     -21.904 -11.467  -0.762  1.00  0.00    -0.333 N 
HETATM   13  C   UNL     1     -21.439 -12.588  -2.775  1.00  0.00     0.038 A 
HETATM   14  C   UNL     1     -22.511 -12.620  -0.611  1.00  0.00     0.152 C 
ATOM     15  HN  UNL     1     -21.932 -10.695  -0.096  1.00  0.00     0.168 HD
HETATM   16  S   UNL     1     -22.507 -13.652  -1.961  1.00  0.00    -0.052 SA
HETATM   17  C   UNL     1     -20.844 -12.772  -4.031  1.00  0.00     0.021 A 
HETATM   18  C   UNL     1     -19.976 -11.789  -4.492  1.00  0.00     0.004 A 
HETATM   19  C   UNL     1     -19.732 -10.649  -3.731  1.00  0.00     0.040 A 
BRANCH  14  20
HETATM   20  N   UNL     1     -23.178 -12.960   0.543  1.00  0.00    -0.307 N 
HETATM   21  C   UNL     1     -22.777 -13.950   1.416  1.00  0.00     0.219 C 
HETATM   22  C   UNL     1     -23.726 -14.126   2.572  1.00  0.00     0.117 C 
HETATM   23  O   UNL     1     -21.770 -14.646   1.341  1.00  0.00    -0.274 OA
HETATM   24  H   UNL     1     -23.859 -12.276   0.839  1.00  0.00     0.171 HD
ENDBRANCH  14  20
ENDBRANCH   9  10
ENDBRANCH   1   9
BRANCH   3  25
HETATM   25  N   UNL     1     -21.474  -5.760  -4.538  1.00  0.00    -0.364 N 
HETATM   26  C   UNL     1     -22.340  -6.156  -5.661  1.00  0.00     0.154 C 
HETATM   27  C   UNL     1     -21.539  -6.667  -6.878  1.00  0.00     0.293 C 
HETATM   28  N   UNL     1     -20.450  -5.758  -7.330  1.00  0.00     0.100 N 
HETATM   29  C   UNL     1     -19.556  -5.615  -6.145  1.00  0.00     0.293 C 
HETATM   30  C   UNL     1     -20.229  -5.053  -4.866  1.00  0.00     0.154 C 
BRANCH  28  31
HETATM   31  C   UNL     1     -20.947  -4.444  -7.837  1.00  0.00     0.252 C 
HETATM   32  C   UNL     1     -19.785  -3.444  -8.005  1.00  0.00     0.048 C 
BRANCH  31  33
HETATM   33  C   UNL     1     -21.728  -4.534  -9.162  1.00  0.00    -0.025 A 
HETATM   34  C   UNL     1     -23.127  -4.706  -9.130  1.00  0.00     0.012 A 
HETATM   35  C   UNL     1     -23.864  -4.821 -10.320  1.00  0.00     0.043 A 
HETATM   36  C   UNL     1     -23.209  -4.742 -11.539  1.00  0.00     0.116 A 
HETATM   37  F   UNL     1     -23.913  -4.860 -12.676  1.00  0.00    -0.206 F 
HETATM   38  C   UNL     1     -21.836  -4.538 -11.597  1.00  0.00     0.043 A 
HETATM   39  C   UNL     1     -21.097  -4.439 -10.411  1.00  0.00     0.012 A 
ENDBRANCH  31  33
ENDBRANCH  28  31
ENDBRANCH   3  25
TORSDOF 6
ENDMDL
MODEL 9
REMARK VINA RESULT:      -8.7     15.473     19.003
REMARK  6 active torsions:
REMARK  status: ('A' for Active; 'I' for Inactive)
REMARK       I    between atoms: C_2  and  N_4 
REMARK    1  A    between atoms: N_4  and  C_5 
REMARK    2  A    between atoms: C_9  and  O_10 
REMARK    3  A    between atoms: O_10  and  C_11 
REMARK    4  A    between atoms: C_13  and  N_14 
REMARK    5  A    between atoms: N_17  and  C_18 
REMARK    6  A    between atoms: C_18  and  C_20 
ROOT
HETATM    1  C   UNL     1     -20.448 -10.475  -0.928  1.00  0.00     0.152 A 
HETATM    2  C   UNL     1     -20.427  -9.746  -2.099  1.00  0.00     0.104 A 
HETATM    3  C   UNL     1     -20.803  -8.415  -2.019  1.00  0.00     0.108 A 
HETATM    4  N   UNL     1     -21.202  -7.887  -0.852  1.00  0.00    -0.339 N 
ATOM      5  HN  UNL     1     -21.450  -6.900  -0.775  1.00  0.00     0.168 HD
HETATM    6  C   UNL     1     -21.263  -8.704   0.207  1.00  0.00     0.183 A 
HETATM    7  N   UNL     1     -20.917  -9.991   0.234  1.00  0.00    -0.333 N 
ATOM      8  HN  UNL     1     -21.001 -10.564   1.074  1.00  0.00     0.168 HD
ENDROOT
BRANCH   1   9
HETATM    9  O   UNL     1     -19.933 -11.767  -0.968  1.00  0.00    -0.291 OA
BRANCH   9  10
HETATM   10  C   UNL     1     -18.553 -11.927  -0.974  1.00  0.00     0.105 A 
HETATM   11  C   UNL     1     -17.885 -12.084  -2.216  1.00  0.00     0.085 A 
HETATM   12  N   UNL     1     -18.459 -12.144  -3.491  1.00  0.00    -0.333 N 
HETATM   13  C   UNL     1     -16.493 -12.218  -2.205  1.00  0.00     0.038 A 
HETATM   14  C   UNL     1     -17.535 -12.446  -4.372  1.00  0.00     0.152 C 
ATOM     15  HN  UNL     1     -19.443 -11.979  -3.703  1.00  0.00     0.168 HD
HETATM   16  S   UNL     1     -15.932 -12.442  -3.809  1.00  0.00    -0.052 SA
HETATM   17  C   UNL     1     -15.728 -12.182  -1.031  1.00  0.00     0.021 A 
HETATM   18  C   UNL     1     -16.396 -12.021   0.178  1.00  0.00     0.004 A 
HETATM   19  C   UNL     1     -17.780 -11.878   0.206  1.00  0.00     0.040 A 
BRANCH  14  20
HETATM   20  N   UNL     1     -17.824 -12.686  -5.696  1.00  0.00    -0.307 N 
HETATM   21  C   UNL     1     -18.322 -11.745  -6.571  1.00  0.00     0.219 C 
HETATM   22  C   UNL     1     -18.581 -12.306  -7.945  1.00  0.00     0.117 C 
HETATM   23  O   UNL     1     -18.548 -10.560  -6.343  1.00  0.00    -0.274 OA
HETATM   24  H   UNL     1     -17.423 -13.542  -6.053  1.00  0.00     0.171 HD
ENDBRANCH  14  20
ENDBRANCH   9  10
ENDBRANCH   1   9
BRANCH   3  25
HETATM   25  N   UNL     1     -20.699  -7.591  -3.131  1.00  0.00    -0.364 N 
HETATM   26  C   UNL     1     -21.574  -6.409  -3.232  1.00  0.00     0.154 C 
HETATM   27  C   UNL     1     -22.539  -6.487  -4.434  1.00  0.00     0.293 C 
HETATM   28  N   UNL     1     -21.886  -6.787  -5.737  1.00  0.00     0.100 N 
HETATM   29  C   UNL     1     -21.211  -8.101  -5.531  1.00  0.00     0.293 C 
HETATM   30  C   UNL     1     -20.168  -8.143  -4.384  1.00  0.00     0.154 C 
BRANCH  28  31
HETATM   31  C   UNL     1     -20.942  -5.721  -6.187  1.00  0.00     0.252 C 
HETATM   32  C   UNL     1     -19.525  -6.292  -6.398  1.00  0.00     0.048 C 
BRANCH  31  33
HETATM   33  C   UNL     1     -21.383  -4.988  -7.468  1.00  0.00    -0.025 A 
HETATM   34  C   UNL     1     -22.686  -4.453  -7.546  1.00  0.00     0.012 A 
HETATM   35  C   UNL     1     -23.128  -3.805  -8.710  1.00  0.00     0.043 A 
HETATM   36  C   UNL     1     -22.266  -3.671  -9.787  1.00  0.00     0.116 A 
HETATM   37  F   UNL     1     -22.692  -3.059 -10.903  1.00  0.00    -0.206 F 
HETATM   38  C   UNL     1     -20.966  -4.160  -9.722  1.00  0.00     0.043 A 
HETATM   39  C   UNL     1     -20.528  -4.820  -8.568  1.00  0.00     0.012 A 
ENDBRANCH  31  33
ENDBRANCH  28  31
ENDBRANCH   3  25
TORSDOF 6
ENDMDL
