REMARK  19 active torsions:
REMARK  status: ('A' for Active; 'I' for Inactive)
REMARK    1  A    between atoms: C_2  and  C_3 
REMARK    2  A    between atoms: C_3  and  C_4 
REMARK    3  A    between atoms: C_4  and  C_5 
REMARK    4  A    between atoms: C_5  and  C_6 
REMARK    5  A    between atoms: C_7  and  C_8 
REMARK    6  A    between atoms: C_8  and  C_9 
REMARK    7  A    between atoms: C_10  and  C_11 
REMARK    8  A    between atoms: C_11  and  C_12 
REMARK    9  A    between atoms: C_13  and  C_14 
REMARK   10  A    between atoms: C_14  and  C_15 
REMARK   11  A    between atoms: C_16  and  C_17 
REMARK   12  A    between atoms: C_17  and  C_18 
REMARK   13  A    between atoms: C_18  and  C_19 
REMARK   14  A    between atoms: C_19  and  C_20 
REMARK       I    between atoms: C_20  and  N_22 
REMARK   15  A    between atoms: N_22  and  C_23 
REMARK   16  A    between atoms: C_23  and  C_24 
REMARK   17  A    between atoms: C_24  and  C_25 
REMARK   18  A    between atoms: C_28  and  O_29 
REMARK   19  A    between atoms: C_30  and  O_31 
ROOT
HETATM    1  C   UNL     1      16.255  11.635   4.891  1.00  0.00     0.013 C 
ENDROOT
BRANCH   1   2
HETATM    2  C   UNL     1      16.741  10.319   5.510  1.00  0.00     0.027 C 
BRANCH   2   3
HETATM    3  C   UNL     1      16.239   9.116   4.767  1.00  0.00    -0.030 C 
HETATM    4  C   UNL     1      15.452   8.174   5.310  1.00  0.00    -0.027 C 
BRANCH   4   5
HETATM    5  C   UNL     1      14.927   6.994   4.549  1.00  0.00     0.053 C 
BRANCH   5   6
HETATM    6  C   UNL     1      13.425   6.981   4.544  1.00  0.00    -0.027 C 
HETATM    7  C   UNL     1      12.685   5.980   5.050  1.00  0.00    -0.027 C 
BRANCH   7   8
HETATM    8  C   UNL     1      11.186   5.947   5.033  1.00  0.00     0.053 C 
BRANCH   8   9
HETATM    9  C   UNL     1      10.635   5.855   6.425  1.00  0.00    -0.027 C 
HETATM   10  C   UNL     1       9.880   4.836   6.869  1.00  0.00    -0.027 C 
BRANCH  10  11
HETATM   11  C   UNL     1       9.330   4.747   8.260  1.00  0.00     0.053 C 
BRANCH  11  12
HETATM   12  C   UNL     1       7.832   4.680   8.239  1.00  0.00    -0.027 C 
HETATM   13  C   UNL     1       7.125   3.652   8.737  1.00  0.00    -0.030 C 
BRANCH  13  14
HETATM   14  C   UNL     1       5.606   3.623   8.694  1.00  0.00     0.027 C 
BRANCH  14  15
HETATM   15  C   UNL     1       5.043   3.548  10.111  1.00  0.00     0.004 C 
BRANCH  15  16
HETATM   16  C   UNL     1       3.517   3.517  10.087  1.00  0.00    -0.000 C 
BRANCH  16  17
HETATM   17  C   UNL     1       2.946   3.444  11.500  1.00  0.00    -0.005 C 
HETATM   18  C   UNL     1       1.427   3.415  11.473  1.00  0.00     0.005 C 
ENDBRANCH  16  17
ENDBRANCH  15  16
ENDBRANCH  14  15
ENDBRANCH  13  14
ENDBRANCH  11  12
ENDBRANCH  10  11
ENDBRANCH   8   9
ENDBRANCH   7   8
ENDBRANCH   5   6
ENDBRANCH   4   5
ENDBRANCH   2   3
ENDBRANCH   1   2
BRANCH   1  19
HETATM   19  C   UNL     1      14.732  11.769   4.896  1.00  0.00     0.103 C 
BRANCH  19  20
HETATM   20  C   UNL     1      14.293  13.058   4.237  1.00  0.00     0.217 C 
HETATM   21  O   UNL     1      14.085  13.129   3.029  1.00  0.00    -0.274 OA
HETATM   22  N   UNL     1      14.168  14.133   5.090  1.00  0.00    -0.361 N 
HETATM   23  H   UNL     1      14.471  14.042   6.052  1.00  0.00     0.162 HD
BRANCH  22  24
HETATM   24  C   UNL     1      13.793  15.433   4.566  1.00  0.00     0.127 C 
BRANCH  24  25
HETATM   25  C   UNL     1      13.669  16.502   5.650  1.00  0.00     0.058 C 
BRANCH  25  26
HETATM   26  C   UNL     1      13.280  17.841   5.070  1.00  0.00    -0.054 A 
HETATM   27  C   UNL     1      11.929  18.198   4.924  1.00  0.00     0.010 A 
HETATM   28  C   UNL     1      11.569  19.426   4.356  1.00  0.00     0.040 A 
HETATM   29  C   UNL     1      12.563  20.301   3.930  1.00  0.00     0.098 A 
HETATM   30  C   UNL     1      13.905  19.951   4.074  1.00  0.00     0.099 A 
HETATM   31  C   UNL     1      14.270  18.732   4.632  1.00  0.00     0.046 A 
BRANCH  29  32
HETATM   32  O   UNL     1      12.257  21.510   3.361  1.00  0.00    -0.358 OA
HETATM   33  H   UNL     1      11.288  21.596   3.338  1.00  0.00     0.217 HD
ENDBRANCH  29  32
BRANCH  30  34
HETATM   34  O   UNL     1      14.897  20.801   3.671  1.00  0.00    -0.358 OA
HETATM   35  H   UNL     1      14.421  21.576   3.313  1.00  0.00     0.217 HD
ENDBRANCH  30  34
ENDBRANCH  25  26
ENDBRANCH  24  25
ENDBRANCH  22  24
ENDBRANCH  19  20
ENDBRANCH   1  19
TORSDOF 19
