MODEL 1
REMARK VINA RESULT:      -8.0      0.000      0.000
REMARK  19 active torsions:
REMARK  status: ('A' for Active; 'I' for Inactive)
REMARK    1  A    between atoms: C_2  and  C_3 
REMARK    2  A    between atoms: C_3  and  C_4 
REMARK    3  A    between atoms: C_4  and  C_5 
REMARK    4  A    between atoms: C_5  and  C_6 
REMARK    5  A    between atoms: C_7  and  C_8 
REMARK    6  A    between atoms: C_8  and  C_9 
REMARK    7  A    between atoms: C_10  and  C_11 
REMARK    8  A    between atoms: C_11  and  C_12 
REMARK    9  A    between atoms: C_13  and  C_14 
REMARK   10  A    between atoms: C_14  and  C_15 
REMARK   11  A    between atoms: C_16  and  C_17 
REMARK   12  A    between atoms: C_17  and  C_18 
REMARK   13  A    between atoms: C_18  and  C_19 
REMARK   14  A    between atoms: C_19  and  C_20 
REMARK       I    between atoms: C_20  and  N_22 
REMARK   15  A    between atoms: N_22  and  C_23 
REMARK   16  A    between atoms: C_23  and  C_24 
REMARK   17  A    between atoms: C_24  and  C_25 
REMARK   18  A    between atoms: C_28  and  O_29 
REMARK   19  A    between atoms: C_30  and  O_31 
ROOT
HETATM    1  C   UNL     1     -21.178  -6.110  -3.340  1.00  0.00     0.013 C 
ENDROOT
BRANCH   1   2
HETATM    2  C   UNL     1     -21.989  -5.947  -2.049  1.00  0.00     0.027 C 
BRANCH   2   3
HETATM    3  C   UNL     1     -22.094  -7.227  -1.273  1.00  0.00    -0.030 C 
HETATM    4  C   UNL     1     -22.813  -7.365  -0.148  1.00  0.00    -0.027 C 
BRANCH   4   5
HETATM    5  C   UNL     1     -22.940  -8.657   0.601  1.00  0.00     0.053 C 
BRANCH   5   6
HETATM    6  C   UNL     1     -23.079  -9.816  -0.345  1.00  0.00    -0.027 C 
HETATM    7  C   UNL     1     -23.724 -10.955  -0.041  1.00  0.00    -0.027 C 
BRANCH   7   8
HETATM    8  C   UNL     1     -23.853 -12.126  -0.969  1.00  0.00     0.053 C 
BRANCH   8   9
HETATM    9  C   UNL     1     -23.500 -11.738  -2.375  1.00  0.00    -0.027 C 
HETATM   10  C   UNL     1     -22.608 -12.395  -3.135  1.00  0.00    -0.027 C 
BRANCH  10  11
HETATM   11  C   UNL     1     -22.257 -12.005  -4.538  1.00  0.00     0.053 C 
BRANCH  11  12
HETATM   12  C   UNL     1     -20.950 -11.271  -4.578  1.00  0.00    -0.027 C 
HETATM   13  C   UNL     1     -20.751 -10.072  -4.005  1.00  0.00    -0.030 C 
BRANCH  13  14
HETATM   14  C   UNL     1     -19.410  -9.361  -4.070  1.00  0.00     0.027 C 
BRANCH  14  15
HETATM   15  C   UNL     1     -18.698  -9.460  -2.723  1.00  0.00     0.004 C 
BRANCH  15  16
HETATM   16  C   UNL     1     -19.642  -9.996  -1.650  1.00  0.00    -0.000 C 
BRANCH  16  17
HETATM   17  C   UNL     1     -19.121 -11.304  -1.062  1.00  0.00    -0.005 C 
HETATM   18  C   UNL     1     -20.137 -11.919  -0.114  1.00  0.00     0.005 C 
ENDBRANCH  16  17
ENDBRANCH  15  16
ENDBRANCH  14  15
ENDBRANCH  13  14
ENDBRANCH  11  12
ENDBRANCH  10  11
ENDBRANCH   8   9
ENDBRANCH   7   8
ENDBRANCH   5   6
ENDBRANCH   4   5
ENDBRANCH   2   3
ENDBRANCH   1   2
BRANCH   1  19
HETATM   19  C   UNL     1     -21.976  -6.768  -4.466  1.00  0.00     0.103 C 
BRANCH  19  20
HETATM   20  C   UNL     1     -21.298  -6.575  -5.804  1.00  0.00     0.217 C 
HETATM   21  O   UNL     1     -21.337  -7.436  -6.679  1.00  0.00    -0.274 OA
HETATM   22  N   UNL     1     -20.627  -5.381  -5.949  1.00  0.00    -0.361 N 
HETATM   23  H   UNL     1     -20.528  -4.766  -5.150  1.00  0.00     0.162 HD
BRANCH  22  24
HETATM   24  C   UNL     1     -19.902  -5.101  -7.174  1.00  0.00     0.127 C 
BRANCH  24  25
HETATM   25  C   UNL     1     -20.365  -3.818  -7.863  1.00  0.00     0.058 C 
BRANCH  25  26
HETATM   26  C   UNL     1     -21.246  -4.112  -9.054  1.00  0.00    -0.054 A 
HETATM   27  C   UNL     1     -20.703  -4.202 -10.347  1.00  0.00     0.010 A 
HETATM   28  C   UNL     1     -21.525  -4.442 -11.454  1.00  0.00     0.040 A 
HETATM   29  C   UNL     1     -22.896  -4.591 -11.271  1.00  0.00     0.098 A 
HETATM   30  C   UNL     1     -23.438  -4.502  -9.989  1.00  0.00     0.099 A 
HETATM   31  C   UNL     1     -22.630  -4.260  -8.886  1.00  0.00     0.046 A 
BRANCH  29  32
HETATM   32  O   UNL     1     -23.739  -4.819 -12.327  1.00  0.00    -0.358 OA
HETATM   33  H   UNL     1     -23.942  -5.770 -12.351  1.00  0.00     0.217 HD
ENDBRANCH  29  32
BRANCH  30  34
HETATM   34  O   UNL     1     -24.781  -4.655  -9.786  1.00  0.00    -0.358 OA
HETATM   35  H   UNL     1     -25.188  -3.927 -10.296  1.00  0.00     0.217 HD
ENDBRANCH  30  34
ENDBRANCH  25  26
ENDBRANCH  24  25
ENDBRANCH  22  24
ENDBRANCH  19  20
ENDBRANCH   1  19
TORSDOF 19
ENDMDL
MODEL 2
REMARK VINA RESULT:      -7.8      1.520      2.917
REMARK  19 active torsions:
REMARK  status: ('A' for Active; 'I' for Inactive)
REMARK    1  A    between atoms: C_2  and  C_3 
REMARK    2  A    between atoms: C_3  and  C_4 
REMARK    3  A    between atoms: C_4  and  C_5 
REMARK    4  A    between atoms: C_5  and  C_6 
REMARK    5  A    between atoms: C_7  and  C_8 
REMARK    6  A    between atoms: C_8  and  C_9 
REMARK    7  A    between atoms: C_10  and  C_11 
REMARK    8  A    between atoms: C_11  and  C_12 
REMARK    9  A    between atoms: C_13  and  C_14 
REMARK   10  A    between atoms: C_14  and  C_15 
REMARK   11  A    between atoms: C_16  and  C_17 
REMARK   12  A    between atoms: C_17  and  C_18 
REMARK   13  A    between atoms: C_18  and  C_19 
REMARK   14  A    between atoms: C_19  and  C_20 
REMARK       I    between atoms: C_20  and  N_22 
REMARK   15  A    between atoms: N_22  and  C_23 
REMARK   16  A    between atoms: C_23  and  C_24 
REMARK   17  A    between atoms: C_24  and  C_25 
REMARK   18  A    between atoms: C_28  and  O_29 
REMARK   19  A    between atoms: C_30  and  O_31 
ROOT
HETATM    1  C   UNL     1     -21.203  -6.292  -3.347  1.00  0.00     0.013 C 
ENDROOT
BRANCH   1   2
HETATM    2  C   UNL     1     -22.021  -6.248  -2.050  1.00  0.00     0.027 C 
BRANCH   2   3
HETATM    3  C   UNL     1     -21.652  -7.351  -1.102  1.00  0.00    -0.030 C 
HETATM    4  C   UNL     1     -22.256  -7.557   0.079  1.00  0.00    -0.027 C 
BRANCH   4   5
HETATM    5  C   UNL     1     -21.904  -8.684   1.003  1.00  0.00     0.053 C 
BRANCH   5   6
HETATM    6  C   UNL     1     -21.445  -9.889   0.234  1.00  0.00    -0.027 C 
HETATM    7  C   UNL     1     -20.681 -10.863   0.757  1.00  0.00    -0.027 C 
BRANCH   7   8
HETATM    8  C   UNL     1     -20.200 -12.060  -0.007  1.00  0.00     0.053 C 
BRANCH   8   9
HETATM    9  C   UNL     1     -18.749 -11.925  -0.360  1.00  0.00    -0.027 C 
HETATM   10  C   UNL     1     -17.742 -12.337   0.428  1.00  0.00    -0.027 C 
BRANCH  10  11
HETATM   11  C   UNL     1     -16.293 -12.200   0.074  1.00  0.00     0.053 C 
BRANCH  11  12
HETATM   12  C   UNL     1     -16.121 -11.371  -1.164  1.00  0.00    -0.027 C 
HETATM   13  C   UNL     1     -15.701 -11.866  -2.340  1.00  0.00    -0.030 C 
BRANCH  13  14
HETATM   14  C   UNL     1     -15.539 -10.989  -3.571  1.00  0.00     0.027 C 
BRANCH  14  15
HETATM   15  C   UNL     1     -16.249  -9.654  -3.361  1.00  0.00     0.004 C 
BRANCH  15  16
HETATM   16  C   UNL     1     -17.652  -9.686  -3.963  1.00  0.00    -0.000 C 
BRANCH  16  17
HETATM   17  C   UNL     1     -18.700  -9.267  -2.936  1.00  0.00    -0.005 C 
HETATM   18  C   UNL     1     -20.047  -9.901  -3.243  1.00  0.00     0.005 C 
ENDBRANCH  16  17
ENDBRANCH  15  16
ENDBRANCH  14  15
ENDBRANCH  13  14
ENDBRANCH  11  12
ENDBRANCH  10  11
ENDBRANCH   8   9
ENDBRANCH   7   8
ENDBRANCH   5   6
ENDBRANCH   4   5
ENDBRANCH   2   3
ENDBRANCH   1   2
BRANCH   1  19
HETATM   19  C   UNL     1     -22.007  -6.806  -4.541  1.00  0.00     0.103 C 
BRANCH  19  20
HETATM   20  C   UNL     1     -21.225  -6.670  -5.828  1.00  0.00     0.217 C 
HETATM   21  O   UNL     1     -21.221  -7.554  -6.680  1.00  0.00    -0.274 OA
HETATM   22  N   UNL     1     -20.512  -5.497  -5.953  1.00  0.00    -0.361 N 
HETATM   23  H   UNL     1     -20.458  -4.862  -5.166  1.00  0.00     0.162 HD
BRANCH  22  24
HETATM   24  C   UNL     1     -19.690  -5.271  -7.127  1.00  0.00     0.127 C 
BRANCH  24  25
HETATM   25  C   UNL     1     -20.006  -3.954  -7.834  1.00  0.00     0.058 C 
BRANCH  25  26
HETATM   26  C   UNL     1     -21.003  -4.147  -8.952  1.00  0.00    -0.054 A 
HETATM   27  C   UNL     1     -20.576  -4.280 -10.284  1.00  0.00     0.010 A 
HETATM   28  C   UNL     1     -21.503  -4.426 -11.323  1.00  0.00     0.040 A 
HETATM   29  C   UNL     1     -22.863  -4.438 -11.031  1.00  0.00     0.098 A 
HETATM   30  C   UNL     1     -23.291  -4.308  -9.710  1.00  0.00     0.099 A 
HETATM   31  C   UNL     1     -22.377  -4.158  -8.674  1.00  0.00     0.046 A 
BRANCH  29  32
HETATM   32  O   UNL     1     -23.806  -4.571 -12.016  1.00  0.00    -0.358 OA
HETATM   33  H   UNL     1     -23.344  -4.629 -12.871  1.00  0.00     0.217 HD
ENDBRANCH  29  32
BRANCH  30  34
HETATM   34  O   UNL     1     -24.622  -4.328  -9.400  1.00  0.00    -0.358 OA
HETATM   35  H   UNL     1     -24.911  -5.233  -9.631  1.00  0.00     0.217 HD
ENDBRANCH  30  34
ENDBRANCH  25  26
ENDBRANCH  24  25
ENDBRANCH  22  24
ENDBRANCH  19  20
ENDBRANCH   1  19
TORSDOF 19
ENDMDL
MODEL 3
REMARK VINA RESULT:      -7.7      1.353      2.234
REMARK  19 active torsions:
REMARK  status: ('A' for Active; 'I' for Inactive)
REMARK    1  A    between atoms: C_2  and  C_3 
REMARK    2  A    between atoms: C_3  and  C_4 
REMARK    3  A    between atoms: C_4  and  C_5 
REMARK    4  A    between atoms: C_5  and  C_6 
REMARK    5  A    between atoms: C_7  and  C_8 
REMARK    6  A    between atoms: C_8  and  C_9 
REMARK    7  A    between atoms: C_10  and  C_11 
REMARK    8  A    between atoms: C_11  and  C_12 
REMARK    9  A    between atoms: C_13  and  C_14 
REMARK   10  A    between atoms: C_14  and  C_15 
REMARK   11  A    between atoms: C_16  and  C_17 
REMARK   12  A    between atoms: C_17  and  C_18 
REMARK   13  A    between atoms: C_18  and  C_19 
REMARK   14  A    between atoms: C_19  and  C_20 
REMARK       I    between atoms: C_20  and  N_22 
REMARK   15  A    between atoms: N_22  and  C_23 
REMARK   16  A    between atoms: C_23  and  C_24 
REMARK   17  A    between atoms: C_24  and  C_25 
REMARK   18  A    between atoms: C_28  and  O_29 
REMARK   19  A    between atoms: C_30  and  O_31 
ROOT
HETATM    1  C   UNL     1     -21.941  -6.449  -3.569  1.00  0.00     0.013 C 
ENDROOT
BRANCH   1   2
HETATM    2  C   UNL     1     -21.019  -6.790  -2.392  1.00  0.00     0.027 C 
BRANCH   2   3
HETATM    3  C   UNL     1     -21.674  -7.703  -1.397  1.00  0.00    -0.030 C 
HETATM    4  C   UNL     1     -22.570  -7.297  -0.485  1.00  0.00    -0.027 C 
BRANCH   4   5
HETATM    5  C   UNL     1     -23.245  -8.222   0.483  1.00  0.00     0.053 C 
BRANCH   5   6
HETATM    6  C   UNL     1     -23.003  -9.658   0.112  1.00  0.00    -0.027 C 
HETATM    7  C   UNL     1     -23.962 -10.485  -0.336  1.00  0.00    -0.027 C 
BRANCH   7   8
HETATM    8  C   UNL     1     -23.737 -11.925  -0.690  1.00  0.00     0.053 C 
BRANCH   8   9
HETATM    9  C   UNL     1     -22.906 -12.049  -1.933  1.00  0.00    -0.027 C 
HETATM   10  C   UNL     1     -22.736 -11.058  -2.825  1.00  0.00    -0.027 C 
BRANCH  10  11
HETATM   11  C   UNL     1     -21.906 -11.185  -4.066  1.00  0.00     0.053 C 
BRANCH  11  12
HETATM   12  C   UNL     1     -20.449 -11.008  -3.756  1.00  0.00    -0.027 C 
HETATM   13  C   UNL     1     -19.992 -10.356  -2.674  1.00  0.00    -0.030 C 
BRANCH  13  14
HETATM   14  C   UNL     1     -18.506 -10.198  -2.397  1.00  0.00     0.027 C 
BRANCH  14  15
HETATM   15  C   UNL     1     -17.806  -9.603  -3.617  1.00  0.00     0.004 C 
BRANCH  15  16
HETATM   16  C   UNL     1     -16.290  -9.632  -3.439  1.00  0.00    -0.000 C 
BRANCH  16  17
HETATM   17  C   UNL     1     -15.610 -10.308  -4.626  1.00  0.00    -0.005 C 
HETATM   18  C   UNL     1     -16.230  -9.857  -5.938  1.00  0.00     0.005 C 
ENDBRANCH  16  17
ENDBRANCH  15  16
ENDBRANCH  14  15
ENDBRANCH  13  14
ENDBRANCH  11  12
ENDBRANCH  10  11
ENDBRANCH   8   9
ENDBRANCH   7   8
ENDBRANCH   5   6
ENDBRANCH   4   5
ENDBRANCH   2   3
ENDBRANCH   1   2
BRANCH   1  19
HETATM   19  C   UNL     1     -21.916  -7.508  -4.672  1.00  0.00     0.103 C 
BRANCH  19  20
HETATM   20  C   UNL     1     -20.822  -7.226  -5.678  1.00  0.00     0.217 C 
HETATM   21  O   UNL     1     -19.897  -8.012  -5.865  1.00  0.00    -0.274 OA
HETATM   22  N   UNL     1     -20.939  -6.024  -6.341  1.00  0.00    -0.361 N 
HETATM   23  H   UNL     1     -21.654  -5.367  -6.056  1.00  0.00     0.162 HD
BRANCH  22  24
HETATM   24  C   UNL     1     -19.926  -5.626  -7.300  1.00  0.00     0.127 C 
BRANCH  24  25
HETATM   25  C   UNL     1     -20.150  -4.222  -7.859  1.00  0.00     0.058 C 
BRANCH  25  26
HETATM   26  C   UNL     1     -21.269  -4.197  -8.872  1.00  0.00    -0.054 A 
HETATM   27  C   UNL     1     -22.610  -4.314  -8.469  1.00  0.00     0.010 A 
HETATM   28  C   UNL     1     -23.644  -4.324  -9.412  1.00  0.00     0.040 A 
HETATM   29  C   UNL     1     -23.339  -4.219 -10.765  1.00  0.00     0.098 A 
HETATM   30  C   UNL     1     -22.010  -4.101 -11.170  1.00  0.00     0.099 A 
HETATM   31  C   UNL     1     -20.977  -4.096 -10.240  1.00  0.00     0.046 A 
BRANCH  29  32
HETATM   32  O   UNL     1     -24.318  -4.232 -11.723  1.00  0.00    -0.358 OA
HETATM   33  H   UNL     1     -24.518  -3.311 -11.963  1.00  0.00     0.217 HD
ENDBRANCH  29  32
BRANCH  30  34
HETATM   34  O   UNL     1     -21.689  -3.986 -12.494  1.00  0.00    -0.358 OA
HETATM   35  H   UNL     1     -22.116  -4.758 -12.914  1.00  0.00     0.217 HD
ENDBRANCH  30  34
ENDBRANCH  25  26
ENDBRANCH  24  25
ENDBRANCH  22  24
ENDBRANCH  19  20
ENDBRANCH   1  19
TORSDOF 19
ENDMDL
MODEL 4
REMARK VINA RESULT:      -7.6      1.585      4.593
REMARK  19 active torsions:
REMARK  status: ('A' for Active; 'I' for Inactive)
REMARK    1  A    between atoms: C_2  and  C_3 
REMARK    2  A    between atoms: C_3  and  C_4 
REMARK    3  A    between atoms: C_4  and  C_5 
REMARK    4  A    between atoms: C_5  and  C_6 
REMARK    5  A    between atoms: C_7  and  C_8 
REMARK    6  A    between atoms: C_8  and  C_9 
REMARK    7  A    between atoms: C_10  and  C_11 
REMARK    8  A    between atoms: C_11  and  C_12 
REMARK    9  A    between atoms: C_13  and  C_14 
REMARK   10  A    between atoms: C_14  and  C_15 
REMARK   11  A    between atoms: C_16  and  C_17 
REMARK   12  A    between atoms: C_17  and  C_18 
REMARK   13  A    between atoms: C_18  and  C_19 
REMARK   14  A    between atoms: C_19  and  C_20 
REMARK       I    between atoms: C_20  and  N_22 
REMARK   15  A    between atoms: N_22  and  C_23 
REMARK   16  A    between atoms: C_23  and  C_24 
REMARK   17  A    between atoms: C_24  and  C_25 
REMARK   18  A    between atoms: C_28  and  O_29 
REMARK   19  A    between atoms: C_30  and  O_31 
ROOT
HETATM    1  C   UNL     1     -19.834  -8.686  -5.108  1.00  0.00     0.013 C 
ENDROOT
BRANCH   1   2
HETATM    2  C   UNL     1     -19.667  -8.813  -3.589  1.00  0.00     0.027 C 
BRANCH   2   3
HETATM    3  C   UNL     1     -18.342  -9.404  -3.206  1.00  0.00    -0.030 C 
HETATM    4  C   UNL     1     -17.285  -9.473  -4.030  1.00  0.00    -0.027 C 
BRANCH   4   5
HETATM    5  C   UNL     1     -15.955 -10.034  -3.625  1.00  0.00     0.053 C 
BRANCH   5   6
HETATM    6  C   UNL     1     -15.921 -10.332  -2.153  1.00  0.00    -0.027 C 
HETATM    7  C   UNL     1     -15.884 -11.575  -1.644  1.00  0.00    -0.027 C 
BRANCH   7   8
HETATM    8  C   UNL     1     -15.870 -11.885  -0.177  1.00  0.00     0.053 C 
BRANCH   8   9
HETATM    9  C   UNL     1     -17.216 -12.358   0.285  1.00  0.00    -0.027 C 
HETATM   10  C   UNL     1     -18.379 -11.966  -0.262  1.00  0.00    -0.027 C 
BRANCH  10  11
HETATM   11  C   UNL     1     -19.723 -12.440   0.203  1.00  0.00     0.053 C 
BRANCH  11  12
HETATM   12  C   UNL     1     -20.692 -11.299   0.284  1.00  0.00    -0.027 C 
HETATM   13  C   UNL     1     -21.831 -11.236  -0.427  1.00  0.00    -0.030 C 
BRANCH  13  14
HETATM   14  C   UNL     1     -22.786 -10.060  -0.316  1.00  0.00     0.027 C 
BRANCH  14  15
HETATM   15  C   UNL     1     -22.174  -8.968   0.557  1.00  0.00     0.004 C 
BRANCH  15  16
HETATM   16  C   UNL     1     -21.446  -7.934  -0.298  1.00  0.00    -0.000 C 
BRANCH  16  17
HETATM   17  C   UNL     1     -22.397  -6.831  -0.754  1.00  0.00    -0.005 C 
HETATM   18  C   UNL     1     -22.035  -6.342  -2.147  1.00  0.00     0.005 C 
ENDBRANCH  16  17
ENDBRANCH  15  16
ENDBRANCH  14  15
ENDBRANCH  13  14
ENDBRANCH  11  12
ENDBRANCH  10  11
ENDBRANCH   8   9
ENDBRANCH   7   8
ENDBRANCH   5   6
ENDBRANCH   4   5
ENDBRANCH   2   3
ENDBRANCH   1   2
BRANCH   1  19
HETATM   19  C   UNL     1     -21.210  -8.157  -5.514  1.00  0.00     0.103 C 
BRANCH  19  20
HETATM   20  C   UNL     1     -21.168  -6.669  -5.784  1.00  0.00     0.217 C 
HETATM   21  O   UNL     1     -22.050  -5.914  -5.385  1.00  0.00    -0.274 OA
HETATM   22  N   UNL     1     -20.084  -6.243  -6.521  1.00  0.00    -0.361 N 
HETATM   23  H   UNL     1     -19.457  -6.928  -6.924  1.00  0.00     0.162 HD
BRANCH  22  24
HETATM   24  C   UNL     1     -19.957  -4.842  -6.878  1.00  0.00     0.127 C 
BRANCH  24  25
HETATM   25  C   UNL     1     -19.759  -4.623  -8.376  1.00  0.00     0.058 C 
BRANCH  25  26
HETATM   26  C   UNL     1     -21.066  -4.334  -9.075  1.00  0.00    -0.054 A 
HETATM   27  C   UNL     1     -22.218  -4.006  -8.341  1.00  0.00     0.010 A 
HETATM   28  C   UNL     1     -23.438  -3.772  -8.988  1.00  0.00     0.040 A 
HETATM   29  C   UNL     1     -23.507  -3.867 -10.374  1.00  0.00     0.098 A 
HETATM   30  C   UNL     1     -22.366  -4.191 -11.106  1.00  0.00     0.099 A 
HETATM   31  C   UNL     1     -21.153  -4.430 -10.471  1.00  0.00     0.046 A 
BRANCH  29  32
HETATM   32  O   UNL     1     -24.681  -3.653 -11.049  1.00  0.00    -0.358 OA
HETATM   33  H   UNL     1     -24.501  -3.734 -12.001  1.00  0.00     0.217 HD
ENDBRANCH  29  32
BRANCH  30  34
HETATM   34  O   UNL     1     -22.411  -4.279 -12.470  1.00  0.00    -0.358 OA
HETATM   35  H   UNL     1     -22.458  -5.239 -12.649  1.00  0.00     0.217 HD
ENDBRANCH  30  34
ENDBRANCH  25  26
ENDBRANCH  24  25
ENDBRANCH  22  24
ENDBRANCH  19  20
ENDBRANCH   1  19
TORSDOF 19
ENDMDL
MODEL 5
REMARK VINA RESULT:      -7.5      2.349      3.498
REMARK  19 active torsions:
REMARK  status: ('A' for Active; 'I' for Inactive)
REMARK    1  A    between atoms: C_2  and  C_3 
REMARK    2  A    between atoms: C_3  and  C_4 
REMARK    3  A    between atoms: C_4  and  C_5 
REMARK    4  A    between atoms: C_5  and  C_6 
REMARK    5  A    between atoms: C_7  and  C_8 
REMARK    6  A    between atoms: C_8  and  C_9 
REMARK    7  A    between atoms: C_10  and  C_11 
REMARK    8  A    between atoms: C_11  and  C_12 
REMARK    9  A    between atoms: C_13  and  C_14 
REMARK   10  A    between atoms: C_14  and  C_15 
REMARK   11  A    between atoms: C_16  and  C_17 
REMARK   12  A    between atoms: C_17  and  C_18 
REMARK   13  A    between atoms: C_18  and  C_19 
REMARK   14  A    between atoms: C_19  and  C_20 
REMARK       I    between atoms: C_20  and  N_22 
REMARK   15  A    between atoms: N_22  and  C_23 
REMARK   16  A    between atoms: C_23  and  C_24 
REMARK   17  A    between atoms: C_24  and  C_25 
REMARK   18  A    between atoms: C_28  and  O_29 
REMARK   19  A    between atoms: C_30  and  O_31 
ROOT
HETATM    1  C   UNL     1     -21.449  -6.193  -2.754  1.00  0.00     0.013 C 
ENDROOT
BRANCH   1   2
HETATM    2  C   UNL     1     -22.327  -6.571  -1.555  1.00  0.00     0.027 C 
BRANCH   2   3
HETATM    3  C   UNL     1     -21.695  -7.623  -0.691  1.00  0.00    -0.030 C 
HETATM    4  C   UNL     1     -21.932  -7.754   0.624  1.00  0.00    -0.027 C 
BRANCH   4   5
HETATM    5  C   UNL     1     -21.323  -8.830   1.471  1.00  0.00     0.053 C 
BRANCH   5   6
HETATM    6  C   UNL     1     -20.831  -9.969   0.624  1.00  0.00    -0.027 C 
HETATM    7  C   UNL     1     -21.130 -11.258   0.859  1.00  0.00    -0.027 C 
BRANCH   7   8
HETATM    8  C   UNL     1     -20.629 -12.404   0.032  1.00  0.00     0.053 C 
BRANCH   8   9
HETATM    9  C   UNL     1     -19.276 -12.102  -0.540  1.00  0.00    -0.027 C 
HETATM   10  C   UNL     1     -18.117 -12.425   0.058  1.00  0.00    -0.027 C 
BRANCH  10  11
HETATM   11  C   UNL     1     -16.766 -12.122  -0.516  1.00  0.00     0.053 C 
BRANCH  11  12
HETATM   12  C   UNL     1     -16.870 -11.111  -1.620  1.00  0.00    -0.027 C 
HETATM   13  C   UNL     1     -15.808 -10.600  -2.264  1.00  0.00    -0.030 C 
BRANCH  13  14
HETATM   14  C   UNL     1     -15.957  -9.576  -3.377  1.00  0.00     0.027 C 
BRANCH  14  15
HETATM   15  C   UNL     1     -15.622 -10.212  -4.723  1.00  0.00     0.004 C 
BRANCH  15  16
HETATM   16  C   UNL     1     -14.954 -11.571  -4.530  1.00  0.00    -0.000 C 
BRANCH  16  17
HETATM   17  C   UNL     1     -14.124 -11.955  -5.751  1.00  0.00    -0.005 C 
HETATM   18  C   UNL     1     -14.999 -12.078  -6.987  1.00  0.00     0.005 C 
ENDBRANCH  16  17
ENDBRANCH  15  16
ENDBRANCH  14  15
ENDBRANCH  13  14
ENDBRANCH  11  12
ENDBRANCH  10  11
ENDBRANCH   8   9
ENDBRANCH   7   8
ENDBRANCH   5   6
ENDBRANCH   4   5
ENDBRANCH   2   3
ENDBRANCH   1   2
BRANCH   1  19
HETATM   19  C   UNL     1     -21.197  -7.366  -3.702  1.00  0.00     0.103 C 
BRANCH  19  20
HETATM   20  C   UNL     1     -21.515  -6.992  -5.133  1.00  0.00     0.217 C 
HETATM   21  O   UNL     1     -21.277  -7.751  -6.068  1.00  0.00    -0.274 OA
HETATM   22  N   UNL     1     -22.067  -5.740  -5.297  1.00  0.00    -0.361 N 
HETATM   23  H   UNL     1     -22.126  -5.115  -4.503  1.00  0.00     0.162 HD
BRANCH  22  24
HETATM   24  C   UNL     1     -22.377  -5.255  -6.629  1.00  0.00     0.127 C 
BRANCH  24  25
HETATM   25  C   UNL     1     -21.281  -4.362  -7.210  1.00  0.00     0.058 C 
BRANCH  25  26
HETATM   26  C   UNL     1     -21.403  -4.236  -8.710  1.00  0.00    -0.054 A 
HETATM   27  C   UNL     1     -20.260  -4.217  -9.527  1.00  0.00     0.010 A 
HETATM   28  C   UNL     1     -20.373  -4.067 -10.914  1.00  0.00     0.040 A 
HETATM   29  C   UNL     1     -21.633  -3.933 -11.488  1.00  0.00     0.098 A 
HETATM   30  C   UNL     1     -22.770  -3.952 -10.681  1.00  0.00     0.099 A 
HETATM   31  C   UNL     1     -22.666  -4.096  -9.303  1.00  0.00     0.046 A 
BRANCH  29  32
HETATM   32  O   UNL     1     -21.790  -3.775 -12.841  1.00  0.00    -0.358 OA
HETATM   33  H   UNL     1     -21.393  -4.546 -13.283  1.00  0.00     0.217 HD
ENDBRANCH  29  32
BRANCH  30  34
HETATM   34  O   UNL     1     -24.017  -3.832 -11.227  1.00  0.00    -0.358 OA
HETATM   35  H   UNL     1     -24.488  -4.637 -10.935  1.00  0.00     0.217 HD
ENDBRANCH  30  34
ENDBRANCH  25  26
ENDBRANCH  24  25
ENDBRANCH  22  24
ENDBRANCH  19  20
ENDBRANCH   1  19
TORSDOF 19
ENDMDL
MODEL 6
REMARK VINA RESULT:      -7.1     13.619     16.673
REMARK  19 active torsions:
REMARK  status: ('A' for Active; 'I' for Inactive)
REMARK    1  A    between atoms: C_2  and  C_3 
REMARK    2  A    between atoms: C_3  and  C_4 
REMARK    3  A    between atoms: C_4  and  C_5 
REMARK    4  A    between atoms: C_5  and  C_6 
REMARK    5  A    between atoms: C_7  and  C_8 
REMARK    6  A    between atoms: C_8  and  C_9 
REMARK    7  A    between atoms: C_10  and  C_11 
REMARK    8  A    between atoms: C_11  and  C_12 
REMARK    9  A    between atoms: C_13  and  C_14 
REMARK   10  A    between atoms: C_14  and  C_15 
REMARK   11  A    between atoms: C_16  and  C_17 
REMARK   12  A    between atoms: C_17  and  C_18 
REMARK   13  A    between atoms: C_18  and  C_19 
REMARK   14  A    between atoms: C_19  and  C_20 
REMARK       I    between atoms: C_20  and  N_22 
REMARK   15  A    between atoms: N_22  and  C_23 
REMARK   16  A    between atoms: C_23  and  C_24 
REMARK   17  A    between atoms: C_24  and  C_25 
REMARK   18  A    between atoms: C_28  and  O_29 
REMARK   19  A    between atoms: C_30  and  O_31 
ROOT
HETATM    1  C   UNL     1     -29.985  -3.669 -17.816  1.00  0.00     0.013 C 
ENDROOT
BRANCH   1   2
HETATM    2  C   UNL     1     -31.215  -4.266 -17.123  1.00  0.00     0.027 C 
BRANCH   2   3
HETATM    3  C   UNL     1     -32.488  -3.578 -17.519  1.00  0.00    -0.030 C 
HETATM    4  C   UNL     1     -33.486  -3.299 -16.667  1.00  0.00    -0.027 C 
BRANCH   4   5
HETATM    5  C   UNL     1     -34.739  -2.579 -17.066  1.00  0.00     0.053 C 
BRANCH   5   6
HETATM    6  C   UNL     1     -35.018  -1.429 -16.140  1.00  0.00    -0.027 C 
HETATM    7  C   UNL     1     -36.025  -0.556 -16.316  1.00  0.00    -0.027 C 
BRANCH   7   8
HETATM    8  C   UNL     1     -36.301   0.606 -15.410  1.00  0.00     0.053 C 
BRANCH   8   9
HETATM    9  C   UNL     1     -35.706   0.382 -14.052  1.00  0.00    -0.027 C 
HETATM   10  C   UNL     1     -36.343  -0.240 -13.045  1.00  0.00    -0.027 C 
BRANCH  10  11
HETATM   11  C   UNL     1     -35.747  -0.463 -11.689  1.00  0.00     0.053 C 
BRANCH  11  12
HETATM   12  C   UNL     1     -35.143  -1.832 -11.588  1.00  0.00    -0.027 C 
HETATM   13  C   UNL     1     -33.895  -2.065 -11.149  1.00  0.00    -0.030 C 
BRANCH  13  14
HETATM   14  C   UNL     1     -33.321  -3.470 -11.065  1.00  0.00     0.027 C 
BRANCH  14  15
HETATM   15  C   UNL     1     -34.389  -4.444 -10.576  1.00  0.00     0.004 C 
BRANCH  15  16
HETATM   16  C   UNL     1     -33.938  -5.889 -10.777  1.00  0.00    -0.000 C 
BRANCH  16  17
HETATM   17  C   UNL     1     -34.744  -6.843  -9.900  1.00  0.00    -0.005 C 
HETATM   18  C   UNL     1     -34.345  -8.287 -10.158  1.00  0.00     0.005 C 
ENDBRANCH  16  17
ENDBRANCH  15  16
ENDBRANCH  14  15
ENDBRANCH  13  14
ENDBRANCH  11  12
ENDBRANCH  10  11
ENDBRANCH   8   9
ENDBRANCH   7   8
ENDBRANCH   5   6
ENDBRANCH   4   5
ENDBRANCH   2   3
ENDBRANCH   1   2
BRANCH   1  19
HETATM   19  C   UNL     1     -28.734  -3.696 -16.938  1.00  0.00     0.103 C 
BRANCH  19  20
HETATM   20  C   UNL     1     -27.827  -4.848 -17.312  1.00  0.00     0.217 C 
HETATM   21  O   UNL     1     -26.810  -5.104 -16.674  1.00  0.00    -0.274 OA
HETATM   22  N   UNL     1     -28.223  -5.561 -18.423  1.00  0.00    -0.361 N 
HETATM   23  H   UNL     1     -29.002  -5.228 -18.976  1.00  0.00     0.162 HD
BRANCH  22  24
HETATM   24  C   UNL     1     -27.410  -6.664 -18.902  1.00  0.00     0.127 C 
BRANCH  24  25
HETATM   25  C   UNL     1     -26.814  -6.410 -20.286  1.00  0.00     0.058 C 
BRANCH  25  26
HETATM   26  C   UNL     1     -25.426  -6.991 -20.409  1.00  0.00    -0.054 A 
HETATM   27  C   UNL     1     -25.013  -7.625 -21.594  1.00  0.00     0.010 A 
HETATM   28  C   UNL     1     -23.737  -8.193 -21.696  1.00  0.00     0.040 A 
HETATM   29  C   UNL     1     -22.870  -8.129 -20.610  1.00  0.00     0.098 A 
HETATM   30  C   UNL     1     -23.276  -7.500 -19.433  1.00  0.00     0.099 A 
HETATM   31  C   UNL     1     -24.542  -6.939 -19.322  1.00  0.00     0.046 A 
BRANCH  29  32
HETATM   32  O   UNL     1     -21.615  -8.678 -20.663  1.00  0.00    -0.358 OA
HETATM   33  H   UNL     1     -21.577  -9.405 -20.017  1.00  0.00     0.217 HD
ENDBRANCH  29  32
BRANCH  30  34
HETATM   34  O   UNL     1     -22.435  -7.418 -18.358  1.00  0.00    -0.358 OA
HETATM   35  H   UNL     1     -22.041  -8.310 -18.291  1.00  0.00     0.217 HD
ENDBRANCH  30  34
ENDBRANCH  25  26
ENDBRANCH  24  25
ENDBRANCH  22  24
ENDBRANCH  19  20
ENDBRANCH   1  19
TORSDOF 19
ENDMDL
MODEL 7
REMARK VINA RESULT:      -7.0      1.737      4.190
REMARK  19 active torsions:
REMARK  status: ('A' for Active; 'I' for Inactive)
REMARK    1  A    between atoms: C_2  and  C_3 
REMARK    2  A    between atoms: C_3  and  C_4 
REMARK    3  A    between atoms: C_4  and  C_5 
REMARK    4  A    between atoms: C_5  and  C_6 
REMARK    5  A    between atoms: C_7  and  C_8 
REMARK    6  A    between atoms: C_8  and  C_9 
REMARK    7  A    between atoms: C_10  and  C_11 
REMARK    8  A    between atoms: C_11  and  C_12 
REMARK    9  A    between atoms: C_13  and  C_14 
REMARK   10  A    between atoms: C_14  and  C_15 
REMARK   11  A    between atoms: C_16  and  C_17 
REMARK   12  A    between atoms: C_17  and  C_18 
REMARK   13  A    between atoms: C_18  and  C_19 
REMARK   14  A    between atoms: C_19  and  C_20 
REMARK       I    between atoms: C_20  and  N_22 
REMARK   15  A    between atoms: N_22  and  C_23 
REMARK   16  A    between atoms: C_23  and  C_24 
REMARK   17  A    between atoms: C_24  and  C_25 
REMARK   18  A    between atoms: C_28  and  O_29 
REMARK   19  A    between atoms: C_30  and  O_31 
ROOT
HETATM    1  C   UNL     1     -21.368  -8.704  -3.445  1.00  0.00     0.013 C 
ENDROOT
BRANCH   1   2
HETATM    2  C   UNL     1     -20.032  -8.765  -2.696  1.00  0.00     0.027 C 
BRANCH   2   3
HETATM    3  C   UNL     1     -18.905  -9.232  -3.570  1.00  0.00    -0.030 C 
HETATM    4  C   UNL     1     -17.641  -9.386  -3.145  1.00  0.00    -0.027 C 
BRANCH   4   5
HETATM    5  C   UNL     1     -16.530  -9.886  -4.017  1.00  0.00     0.053 C 
BRANCH   5   6
HETATM    6  C   UNL     1     -17.052 -10.326  -5.356  1.00  0.00    -0.027 C 
HETATM    7  C   UNL     1     -17.186 -11.613  -5.719  1.00  0.00    -0.027 C 
BRANCH   7   8
HETATM    8  C   UNL     1     -17.687 -12.064  -7.058  1.00  0.00     0.053 C 
BRANCH   8   9
HETATM    9  C   UNL     1     -19.176 -11.910  -7.155  1.00  0.00    -0.027 C 
HETATM   10  C   UNL     1     -20.012 -12.020  -6.109  1.00  0.00    -0.027 C 
BRANCH  10  11
HETATM   11  C   UNL     1     -21.500 -11.866  -6.208  1.00  0.00     0.053 C 
BRANCH  11  12
HETATM   12  C   UNL     1     -22.188 -12.604  -5.098  1.00  0.00    -0.027 C 
HETATM   13  C   UNL     1     -22.067 -12.279  -3.800  1.00  0.00    -0.030 C 
BRANCH  13  14
HETATM   14  C   UNL     1     -22.781 -13.055  -2.706  1.00  0.00     0.027 C 
BRANCH  14  15
HETATM   15  C   UNL     1     -22.757 -12.263  -1.401  1.00  0.00     0.004 C 
BRANCH  15  16
HETATM   16  C   UNL     1     -23.963 -11.332  -1.309  1.00  0.00    -0.000 C 
BRANCH  16  17
HETATM   17  C   UNL     1     -23.914 -10.492  -0.036  1.00  0.00    -0.005 C 
HETATM   18  C   UNL     1     -22.813  -9.448  -0.115  1.00  0.00     0.005 C 
ENDBRANCH  16  17
ENDBRANCH  15  16
ENDBRANCH  14  15
ENDBRANCH  13  14
ENDBRANCH  11  12
ENDBRANCH  10  11
ENDBRANCH   8   9
ENDBRANCH   7   8
ENDBRANCH   5   6
ENDBRANCH   4   5
ENDBRANCH   2   3
ENDBRANCH   1   2
BRANCH   1  19
HETATM   19  C   UNL     1     -21.217  -8.243  -4.895  1.00  0.00     0.103 C 
BRANCH  19  20
HETATM   20  C   UNL     1     -21.204  -6.733  -4.992  1.00  0.00     0.217 C 
HETATM   21  O   UNL     1     -22.008  -6.038  -4.377  1.00  0.00    -0.274 OA
HETATM   22  N   UNL     1     -20.243  -6.213  -5.831  1.00  0.00    -0.361 N 
HETATM   23  H   UNL     1     -19.691  -6.840  -6.403  1.00  0.00     0.162 HD
BRANCH  22  24
HETATM   24  C   UNL     1     -20.160  -4.779  -6.036  1.00  0.00     0.127 C 
BRANCH  24  25
HETATM   25  C   UNL     1     -19.614  -4.402  -7.412  1.00  0.00     0.058 C 
BRANCH  25  26
HETATM   26  C   UNL     1     -20.716  -4.299  -8.440  1.00  0.00    -0.054 A 
HETATM   27  C   UNL     1     -20.444  -4.473  -9.807  1.00  0.00     0.010 A 
HETATM   28  C   UNL     1     -21.460  -4.345 -10.762  1.00  0.00     0.040 A 
HETATM   29  C   UNL     1     -22.753  -4.040 -10.350  1.00  0.00     0.098 A 
HETATM   30  C   UNL     1     -23.027  -3.867  -8.993  1.00  0.00     0.099 A 
HETATM   31  C   UNL     1     -22.023  -3.988  -8.040  1.00  0.00     0.046 A 
BRANCH  29  32
HETATM   32  O   UNL     1     -23.777  -3.897 -11.250  1.00  0.00    -0.358 OA
HETATM   33  H   UNL     1     -23.402  -3.963 -12.146  1.00  0.00     0.217 HD
ENDBRANCH  29  32
BRANCH  30  34
HETATM   34  O   UNL     1     -24.293  -3.576  -8.567  1.00  0.00    -0.358 OA
HETATM   35  H   UNL     1     -24.529  -2.760  -9.049  1.00  0.00     0.217 HD
ENDBRANCH  30  34
ENDBRANCH  25  26
ENDBRANCH  24  25
ENDBRANCH  22  24
ENDBRANCH  19  20
ENDBRANCH   1  19
TORSDOF 19
ENDMDL
MODEL 8
REMARK VINA RESULT:      -6.9      3.346      8.397
REMARK  19 active torsions:
REMARK  status: ('A' for Active; 'I' for Inactive)
REMARK    1  A    between atoms: C_2  and  C_3 
REMARK    2  A    between atoms: C_3  and  C_4 
REMARK    3  A    between atoms: C_4  and  C_5 
REMARK    4  A    between atoms: C_5  and  C_6 
REMARK    5  A    between atoms: C_7  and  C_8 
REMARK    6  A    between atoms: C_8  and  C_9 
REMARK    7  A    between atoms: C_10  and  C_11 
REMARK    8  A    between atoms: C_11  and  C_12 
REMARK    9  A    between atoms: C_13  and  C_14 
REMARK   10  A    between atoms: C_14  and  C_15 
REMARK   11  A    between atoms: C_16  and  C_17 
REMARK   12  A    between atoms: C_17  and  C_18 
REMARK   13  A    between atoms: C_18  and  C_19 
REMARK   14  A    between atoms: C_19  and  C_20 
REMARK       I    between atoms: C_20  and  N_22 
REMARK   15  A    between atoms: N_22  and  C_23 
REMARK   16  A    between atoms: C_23  and  C_24 
REMARK   17  A    between atoms: C_24  and  C_25 
REMARK   18  A    between atoms: C_28  and  O_29 
REMARK   19  A    between atoms: C_30  and  O_31 
ROOT
HETATM    1  C   UNL     1     -22.284 -10.586   0.093  1.00  0.00     0.013 C 
ENDROOT
BRANCH   1   2
HETATM    2  C   UNL     1     -21.415  -9.413   0.564  1.00  0.00     0.027 C 
BRANCH   2   3
HETATM    3  C   UNL     1     -21.336  -8.314  -0.455  1.00  0.00    -0.030 C 
HETATM    4  C   UNL     1     -22.302  -7.403  -0.651  1.00  0.00    -0.027 C 
BRANCH   4   5
HETATM    5  C   UNL     1     -22.199  -6.287  -1.646  1.00  0.00     0.053 C 
BRANCH   5   6
HETATM    6  C   UNL     1     -21.882  -6.815  -3.016  1.00  0.00    -0.027 C 
HETATM    7  C   UNL     1     -21.095  -6.177  -3.899  1.00  0.00    -0.027 C 
BRANCH   7   8
HETATM    8  C   UNL     1     -20.788  -6.685  -5.276  1.00  0.00     0.053 C 
BRANCH   8   9
HETATM    9  C   UNL     1     -20.686  -5.553  -6.255  1.00  0.00    -0.027 C 
HETATM   10  C   UNL     1     -19.649  -5.372  -7.090  1.00  0.00    -0.027 C 
BRANCH  10  11
HETATM   11  C   UNL     1     -19.550  -4.240  -8.067  1.00  0.00     0.053 C 
BRANCH  11  12
HETATM   12  C   UNL     1     -20.190  -4.604  -9.373  1.00  0.00    -0.027 C 
HETATM   13  C   UNL     1     -20.458  -3.716 -10.345  1.00  0.00    -0.030 C 
BRANCH  13  14
HETATM   14  C   UNL     1     -21.111  -4.127 -11.655  1.00  0.00     0.027 C 
BRANCH  14  15
HETATM   15  C   UNL     1     -22.551  -4.570 -11.407  1.00  0.00     0.004 C 
BRANCH  15  16
HETATM   16  C   UNL     1     -23.286  -3.557 -10.533  1.00  0.00    -0.000 C 
BRANCH  16  17
HETATM   17  C   UNL     1     -24.119  -4.256  -9.462  1.00  0.00    -0.005 C 
HETATM   18  C   UNL     1     -23.449  -4.159  -8.102  1.00  0.00     0.005 C 
ENDBRANCH  16  17
ENDBRANCH  15  16
ENDBRANCH  14  15
ENDBRANCH  13  14
ENDBRANCH  11  12
ENDBRANCH  10  11
ENDBRANCH   8   9
ENDBRANCH   7   8
ENDBRANCH   5   6
ENDBRANCH   4   5
ENDBRANCH   2   3
ENDBRANCH   1   2
BRANCH   1  19
HETATM   19  C   UNL     1     -21.479 -11.863  -0.151  1.00  0.00     0.103 C 
BRANCH  19  20
HETATM   20  C   UNL     1     -21.393 -12.183  -1.627  1.00  0.00     0.217 C 
HETATM   21  O   UNL     1     -20.791 -13.170  -2.041  1.00  0.00    -0.274 OA
HETATM   22  N   UNL     1     -22.020 -11.277  -2.455  1.00  0.00    -0.361 N 
HETATM   23  H   UNL     1     -22.393 -10.421  -2.063  1.00  0.00     0.162 HD
BRANCH  22  24
HETATM   24  C   UNL     1     -21.969 -11.456  -3.894  1.00  0.00     0.127 C 
BRANCH  24  25
HETATM   25  C   UNL     1     -21.406 -10.242  -4.629  1.00  0.00     0.058 C 
BRANCH  25  26
HETATM   26  C   UNL     1     -19.922 -10.089  -4.397  1.00  0.00    -0.054 A 
HETATM   27  C   UNL     1     -19.432  -9.522  -3.209  1.00  0.00     0.010 A 
HETATM   28  C   UNL     1     -18.057  -9.352  -3.009  1.00  0.00     0.040 A 
HETATM   29  C   UNL     1     -17.166  -9.747  -4.002  1.00  0.00     0.098 A 
HETATM   30  C   UNL     1     -17.648 -10.311  -5.183  1.00  0.00     0.099 A 
HETATM   31  C   UNL     1     -19.012 -10.479  -5.390  1.00  0.00     0.046 A 
BRANCH  29  32
HETATM   32  O   UNL     1     -15.813  -9.592  -3.853  1.00  0.00    -0.358 OA
HETATM   33  H   UNL     1     -15.394 -10.462  -3.974  1.00  0.00     0.217 HD
ENDBRANCH  29  32
BRANCH  30  34
HETATM   34  O   UNL     1     -16.789 -10.716  -6.167  1.00  0.00    -0.358 OA
HETATM   35  H   UNL     1     -16.379 -11.528  -5.810  1.00  0.00     0.217 HD
ENDBRANCH  30  34
ENDBRANCH  25  26
ENDBRANCH  24  25
ENDBRANCH  22  24
ENDBRANCH  19  20
ENDBRANCH   1  19
TORSDOF 19
ENDMDL
MODEL 9
REMARK VINA RESULT:      -6.8      1.554      4.203
REMARK  19 active torsions:
REMARK  status: ('A' for Active; 'I' for Inactive)
REMARK    1  A    between atoms: C_2  and  C_3 
REMARK    2  A    between atoms: C_3  and  C_4 
REMARK    3  A    between atoms: C_4  and  C_5 
REMARK    4  A    between atoms: C_5  and  C_6 
REMARK    5  A    between atoms: C_7  and  C_8 
REMARK    6  A    between atoms: C_8  and  C_9 
REMARK    7  A    between atoms: C_10  and  C_11 
REMARK    8  A    between atoms: C_11  and  C_12 
REMARK    9  A    between atoms: C_13  and  C_14 
REMARK   10  A    between atoms: C_14  and  C_15 
REMARK   11  A    between atoms: C_16  and  C_17 
REMARK   12  A    between atoms: C_17  and  C_18 
REMARK   13  A    between atoms: C_18  and  C_19 
REMARK   14  A    between atoms: C_19  and  C_20 
REMARK       I    between atoms: C_20  and  N_22 
REMARK   15  A    between atoms: N_22  and  C_23 
REMARK   16  A    between atoms: C_23  and  C_24 
REMARK   17  A    between atoms: C_24  and  C_25 
REMARK   18  A    between atoms: C_28  and  O_29 
REMARK   19  A    between atoms: C_30  and  O_31 
ROOT
HETATM    1  C   UNL     1     -19.873  -8.303  -4.510  1.00  0.00     0.013 C 
ENDROOT
BRANCH   1   2
HETATM    2  C   UNL     1     -19.884  -8.720  -3.035  1.00  0.00     0.027 C 
BRANCH   2   3
HETATM    3  C   UNL     1     -18.640  -9.461  -2.639  1.00  0.00    -0.030 C 
HETATM    4  C   UNL     1     -17.459  -9.331  -3.264  1.00  0.00    -0.027 C 
BRANCH   4   5
HETATM    5  C   UNL     1     -16.214 -10.049  -2.838  1.00  0.00     0.053 C 
BRANCH   5   6
HETATM    6  C   UNL     1     -16.545 -11.256  -2.007  1.00  0.00    -0.027 C 
HETATM    7  C   UNL     1     -15.979 -11.523  -0.819  1.00  0.00    -0.027 C 
BRANCH   7   8
HETATM    8  C   UNL     1     -16.287 -12.734   0.010  1.00  0.00     0.053 C 
BRANCH   8   9
HETATM    9  C   UNL     1     -17.722 -12.737   0.444  1.00  0.00    -0.027 C 
HETATM   10  C   UNL     1     -18.645 -13.599  -0.016  1.00  0.00    -0.027 C 
BRANCH  10  11
HETATM   11  C   UNL     1     -20.079 -13.600   0.418  1.00  0.00     0.053 C 
BRANCH  11  12
HETATM   12  C   UNL     1     -20.829 -12.466  -0.215  1.00  0.00    -0.027 C 
HETATM   13  C   UNL     1     -21.947 -11.931   0.303  1.00  0.00    -0.030 C 
BRANCH  13  14
HETATM   14  C   UNL     1     -22.679 -10.783  -0.372  1.00  0.00     0.027 C 
BRANCH  14  15
HETATM   15  C   UNL     1     -23.417 -11.287  -1.610  1.00  0.00     0.004 C 
BRANCH  15  16
HETATM   16  C   UNL     1     -22.788 -10.727  -2.883  1.00  0.00    -0.000 C 
BRANCH  16  17
HETATM   17  C   UNL     1     -22.484 -11.840  -3.882  1.00  0.00    -0.005 C 
HETATM   18  C   UNL     1     -21.008 -12.200  -3.865  1.00  0.00     0.005 C 
ENDBRANCH  16  17
ENDBRANCH  15  16
ENDBRANCH  14  15
ENDBRANCH  13  14
ENDBRANCH  11  12
ENDBRANCH  10  11
ENDBRANCH   8   9
ENDBRANCH   7   8
ENDBRANCH   5   6
ENDBRANCH   4   5
ENDBRANCH   2   3
ENDBRANCH   1   2
BRANCH   1  19
HETATM   19  C   UNL     1     -21.273  -8.042  -5.066  1.00  0.00     0.103 C 
BRANCH  19  20
HETATM   20  C   UNL     1     -21.459  -6.582  -5.416  1.00  0.00     0.217 C 
HETATM   21  O   UNL     1     -22.531  -6.007  -5.246  1.00  0.00    -0.274 OA
HETATM   22  N   UNL     1     -20.349  -5.967  -5.953  1.00  0.00    -0.361 N 
HETATM   23  H   UNL     1     -19.534  -6.524  -6.182  1.00  0.00     0.162 HD
BRANCH  22  24
HETATM   24  C   UNL     1     -20.419  -4.579  -6.367  1.00  0.00     0.127 C 
BRANCH  24  25
HETATM   25  C   UNL     1     -19.793  -4.330  -7.738  1.00  0.00     0.058 C 
BRANCH  25  26
HETATM   26  C   UNL     1     -20.826  -4.370  -8.838  1.00  0.00    -0.054 A 
HETATM   27  C   UNL     1     -20.441  -4.363 -10.190  1.00  0.00     0.010 A 
HETATM   28  C   UNL     1     -21.401  -4.367 -11.209  1.00  0.00     0.040 A 
HETATM   29  C   UNL     1     -22.752  -4.375 -10.878  1.00  0.00     0.098 A 
HETATM   30  C   UNL     1     -23.138  -4.383  -9.538  1.00  0.00     0.099 A 
HETATM   31  C   UNL     1     -22.192  -4.375  -8.521  1.00  0.00     0.046 A 
BRANCH  29  32
HETATM   32  O   UNL     1     -23.726  -4.371 -11.842  1.00  0.00    -0.358 OA
HETATM   33  H   UNL     1     -24.045  -3.457 -11.945  1.00  0.00     0.217 HD
ENDBRANCH  29  32
BRANCH  30  34
HETATM   34  O   UNL     1     -24.461  -4.402  -9.191  1.00  0.00    -0.358 OA
HETATM   35  H   UNL     1     -24.933  -4.499 -10.042  1.00  0.00     0.217 HD
ENDBRANCH  30  34
ENDBRANCH  25  26
ENDBRANCH  24  25
ENDBRANCH  22  24
ENDBRANCH  19  20
ENDBRANCH   1  19
TORSDOF 19
ENDMDL
