MODEL 1
REMARK VINA RESULT:      -8.1      0.000      0.000
REMARK  8 active torsions:
REMARK  status: ('A' for Active; 'I' for Inactive)
REMARK    1  A    between atoms: C_2  and  C_5 
REMARK    2  A    between atoms: C_8  and  C_9 
REMARK    3  A    between atoms: C_9  and  N_10 
REMARK    4  A    between atoms: N_10  and  C_11 
REMARK    5  A    between atoms: N_13  and  C_14 
REMARK    6  A    between atoms: C_14  and  C_15 
REMARK    7  A    between atoms: C_18  and  N_19 
REMARK    8  A    between atoms: N_19  and  S_20 
ROOT
HETATM    1  C   UNL     1     -18.634  -9.520  -5.807  1.00  0.00     0.168 C 
HETATM    2  S   UNL     1     -16.997  -9.826  -5.838  1.00  0.00    -0.041 SA
HETATM    3  N   UNL     1     -19.056  -8.226  -5.824  1.00  0.00    -0.363 N 
HETATM    4  H   UNL     1     -18.351  -7.552  -6.099  1.00  0.00     0.162 HD
ENDROOT
BRANCH   3   5
HETATM    5  C   UNL     1     -20.327  -7.713  -5.355  1.00  0.00     0.160 C 
BRANCH   5   6
HETATM    6  C   UNL     1     -20.810  -6.510  -6.125  1.00  0.00    -0.037 A 
HETATM    7  C   UNL     1     -22.053  -5.903  -5.868  1.00  0.00     0.011 A 
HETATM    8  C   UNL     1     -22.496  -4.816  -6.631  1.00  0.00     0.034 A 
HETATM    9  C   UNL     1     -21.722  -4.354  -7.691  1.00  0.00     0.081 A 
HETATM   10  C   UNL     1     -20.473  -4.931  -7.929  1.00  0.00     0.144 A 
HETATM   11  F   UNL     1     -19.709  -4.480  -8.933  1.00  0.00    -0.204 F 
HETATM   12  C   UNL     1     -20.015  -5.997  -7.159  1.00  0.00     0.053 A 
BRANCH   9  13
HETATM   13  N   UNL     1     -22.243  -3.373  -8.576  1.00  0.00    -0.282 N 
HETATM   14  H   UNL     1     -22.582  -2.509  -8.154  1.00  0.00     0.178 HD
BRANCH  13  15
HETATM   15  S   UNL     1     -23.091  -3.816  -9.945  1.00  0.00     0.227 S 
HETATM   16  C   UNL     1     -24.745  -3.209  -9.685  1.00  0.00     0.186 C 
HETATM   17  O   UNL     1     -22.508  -3.035 -11.024  1.00  0.00    -0.206 OA
HETATM   18  O   UNL     1     -23.138  -5.255 -10.010  1.00  0.00    -0.206 OA
ENDBRANCH  13  15
ENDBRANCH   9  13
ENDBRANCH   5   6
ENDBRANCH   3   5
BRANCH   1  19
HETATM   19  N   UNL     1     -19.630 -10.455  -5.818  1.00  0.00    -0.363 N 
HETATM   20  H   UNL     1     -19.839 -10.853  -6.719  1.00  0.00     0.162 HD
BRANCH  19  21
HETATM   21  C   UNL     1     -19.841 -11.404  -4.729  1.00  0.00     0.160 C 
BRANCH  21  22
HETATM   22  C   UNL     1     -20.419 -10.732  -3.522  1.00  0.00    -0.041 A 
HETATM   23  C   UNL     1     -19.609 -10.244  -2.495  1.00  0.00     0.009 A 
HETATM   24  C   UNL     1     -20.171  -9.578  -1.394  1.00  0.00     0.008 A 
HETATM   25  C   UNL     1     -21.559  -9.381  -1.285  1.00  0.00    -0.051 A 
HETATM   26  C   UNL     1     -22.363  -9.909  -2.315  1.00  0.00     0.008 A 
HETATM   27  C   UNL     1     -21.804 -10.564  -3.413  1.00  0.00     0.009 A 
BRANCH  25  28
HETATM   28  C   UNL     1     -22.189  -8.661  -0.079  1.00  0.00    -0.024 C 
HETATM   29  C   UNL     1     -21.267  -8.668   1.161  1.00  0.00     0.019 C 
HETATM   30  C   UNL     1     -23.505  -9.375   0.280  1.00  0.00     0.019 C 
HETATM   31  C   UNL     1     -22.504  -7.174  -0.376  1.00  0.00     0.019 C 
ENDBRANCH  25  28
ENDBRANCH  21  22
ENDBRANCH  19  21
ENDBRANCH   1  19
TORSDOF 8
ENDMDL
MODEL 2
REMARK VINA RESULT:      -7.9      2.917      3.775
REMARK  8 active torsions:
REMARK  status: ('A' for Active; 'I' for Inactive)
REMARK    1  A    between atoms: C_2  and  C_5 
REMARK    2  A    between atoms: C_8  and  C_9 
REMARK    3  A    between atoms: C_9  and  N_10 
REMARK    4  A    between atoms: N_10  and  C_11 
REMARK    5  A    between atoms: N_13  and  C_14 
REMARK    6  A    between atoms: C_14  and  C_15 
REMARK    7  A    between atoms: C_18  and  N_19 
REMARK    8  A    between atoms: N_19  and  S_20 
ROOT
HETATM    1  C   UNL     1     -21.489  -9.052  -3.455  1.00  0.00     0.168 C 
HETATM    2  S   UNL     1     -21.873 -10.613  -3.890  1.00  0.00    -0.041 SA
HETATM    3  N   UNL     1     -21.542  -8.078  -4.406  1.00  0.00    -0.363 N 
HETATM    4  H   UNL     1     -22.045  -8.332  -5.248  1.00  0.00     0.162 HD
ENDROOT
BRANCH   3   5
HETATM    5  C   UNL     1     -20.843  -6.810  -4.400  1.00  0.00     0.160 C 
BRANCH   5   6
HETATM    6  C   UNL     1     -21.042  -6.009  -5.662  1.00  0.00    -0.037 A 
HETATM    7  C   UNL     1     -19.974  -5.675  -6.515  1.00  0.00     0.011 A 
HETATM    8  C   UNL     1     -20.182  -4.890  -7.656  1.00  0.00     0.034 A 
HETATM    9  C   UNL     1     -21.451  -4.389  -7.929  1.00  0.00     0.081 A 
HETATM   10  C   UNL     1     -22.519  -4.746  -7.104  1.00  0.00     0.144 A 
HETATM   11  F   UNL     1     -23.751  -4.288  -7.370  1.00  0.00    -0.204 F 
HETATM   12  C   UNL     1     -22.325  -5.545  -5.981  1.00  0.00     0.053 A 
BRANCH   9  13
HETATM   13  N   UNL     1     -21.634  -3.451  -8.979  1.00  0.00    -0.282 N 
HETATM   14  H   UNL     1     -22.191  -2.624  -8.764  1.00  0.00     0.178 HD
BRANCH  13  15
HETATM   15  S   UNL     1     -21.788  -3.956 -10.564  1.00  0.00     0.227 S 
HETATM   16  C   UNL     1     -23.317  -4.868 -10.616  1.00  0.00     0.186 C 
HETATM   17  O   UNL     1     -21.985  -2.738 -11.334  1.00  0.00    -0.206 OA
HETATM   18  O   UNL     1     -20.707  -4.860 -10.866  1.00  0.00    -0.206 OA
ENDBRANCH  13  15
ENDBRANCH   9  13
ENDBRANCH   5   6
ENDBRANCH   3   5
BRANCH   1  19
HETATM   19  N   UNL     1     -21.165  -8.619  -2.200  1.00  0.00    -0.363 N 
HETATM   20  H   UNL     1     -20.495  -7.869  -2.163  1.00  0.00     0.162 HD
BRANCH  19  21
HETATM   21  C   UNL     1     -22.132  -8.558  -1.108  1.00  0.00     0.160 C 
BRANCH  21  22
HETATM   22  C   UNL     1     -22.347  -9.905  -0.492  1.00  0.00    -0.041 A 
HETATM   23  C   UNL     1     -23.607 -10.505  -0.457  1.00  0.00     0.009 A 
HETATM   24  C   UNL     1     -23.776 -11.788   0.087  1.00  0.00     0.008 A 
HETATM   25  C   UNL     1     -22.692 -12.510   0.613  1.00  0.00    -0.051 A 
HETATM   26  C   UNL     1     -21.433 -11.878   0.599  1.00  0.00     0.008 A 
HETATM   27  C   UNL     1     -21.264 -10.605   0.052  1.00  0.00     0.009 A 
BRANCH  25  28
HETATM   28  C   UNL     1     -22.865 -13.915   1.220  1.00  0.00    -0.024 C 
HETATM   29  C   UNL     1     -21.518 -14.552   1.630  1.00  0.00     0.019 C 
HETATM   30  C   UNL     1     -23.540 -14.818   0.171  1.00  0.00     0.019 C 
HETATM   31  C   UNL     1     -23.745 -13.904   2.495  1.00  0.00     0.019 C 
ENDBRANCH  25  28
ENDBRANCH  21  22
ENDBRANCH  19  21
ENDBRANCH   1  19
TORSDOF 8
ENDMDL
MODEL 3
REMARK VINA RESULT:      -7.8      3.637      5.377
REMARK  8 active torsions:
REMARK  status: ('A' for Active; 'I' for Inactive)
REMARK    1  A    between atoms: C_2  and  C_5 
REMARK    2  A    between atoms: C_8  and  C_9 
REMARK    3  A    between atoms: C_9  and  N_10 
REMARK    4  A    between atoms: N_10  and  C_11 
REMARK    5  A    between atoms: N_13  and  C_14 
REMARK    6  A    between atoms: C_14  and  C_15 
REMARK    7  A    between atoms: C_18  and  N_19 
REMARK    8  A    between atoms: N_19  and  S_20 
ROOT
HETATM    1  C   UNL     1     -22.991 -14.625  -3.673  1.00  0.00     0.168 C 
HETATM    2  S   UNL     1     -24.182 -15.544  -4.389  1.00  0.00    -0.041 SA
HETATM    3  N   UNL     1     -22.289 -13.751  -4.445  1.00  0.00    -0.363 N 
HETATM    4  H   UNL     1     -22.706 -13.548  -5.346  1.00  0.00     0.162 HD
ENDROOT
BRANCH   3   5
HETATM    5  C   UNL     1     -20.969 -13.215  -4.183  1.00  0.00     0.160 C 
BRANCH   5   6
HETATM    6  C   UNL     1     -20.946 -11.713  -4.044  1.00  0.00    -0.037 A 
HETATM    7  C   UNL     1     -22.125 -10.951  -3.943  1.00  0.00     0.011 A 
HETATM    8  C   UNL     1     -22.074  -9.554  -3.862  1.00  0.00     0.034 A 
HETATM    9  C   UNL     1     -20.847  -8.902  -3.930  1.00  0.00     0.081 A 
HETATM   10  C   UNL     1     -19.674  -9.655  -3.996  1.00  0.00     0.144 A 
HETATM   11  F   UNL     1     -18.485  -9.038  -4.040  1.00  0.00    -0.204 F 
HETATM   12  C   UNL     1     -19.714 -11.045  -4.053  1.00  0.00     0.053 A 
BRANCH   9  13
HETATM   13  N   UNL     1     -20.801  -7.486  -4.028  1.00  0.00    -0.282 N 
HETATM   14  H   UNL     1     -20.893  -6.963  -3.157  1.00  0.00     0.178 HD
BRANCH  13  15
HETATM   15  S   UNL     1     -21.456  -6.694  -5.345  1.00  0.00     0.227 S 
HETATM   16  C   UNL     1     -20.479  -5.217  -5.535  1.00  0.00     0.186 C 
HETATM   17  O   UNL     1     -21.172  -7.551  -6.485  1.00  0.00    -0.206 OA
HETATM   18  O   UNL     1     -22.807  -6.309  -5.022  1.00  0.00    -0.206 OA
ENDBRANCH  13  15
ENDBRANCH   9  13
ENDBRANCH   5   6
ENDBRANCH   3   5
BRANCH   1  19
HETATM   19  N   UNL     1     -22.666 -14.616  -2.346  1.00  0.00    -0.363 N 
HETATM   20  H   UNL     1     -21.694 -14.450  -2.141  1.00  0.00     0.162 HD
BRANCH  19  21
HETATM   21  C   UNL     1     -23.551 -14.081  -1.316  1.00  0.00     0.160 C 
BRANCH  21  22
HETATM   22  C   UNL     1     -23.125 -12.711  -0.888  1.00  0.00    -0.041 A 
HETATM   23  C   UNL     1     -24.037 -11.659  -0.780  1.00  0.00     0.009 A 
HETATM   24  C   UNL     1     -23.622 -10.394  -0.335  1.00  0.00     0.008 A 
HETATM   25  C   UNL     1     -22.285 -10.140   0.014  1.00  0.00    -0.051 A 
HETATM   26  C   UNL     1     -21.372 -11.204  -0.132  1.00  0.00     0.008 A 
HETATM   27  C   UNL     1     -21.785 -12.464  -0.567  1.00  0.00     0.009 A 
BRANCH  25  28
HETATM   28  C   UNL     1     -21.815  -8.755   0.494  1.00  0.00    -0.024 C 
HETATM   29  C   UNL     1     -22.993  -7.836   0.888  1.00  0.00     0.019 C 
HETATM   30  C   UNL     1     -21.027  -8.085  -0.647  1.00  0.00     0.019 C 
HETATM   31  C   UNL     1     -20.897  -8.840   1.738  1.00  0.00     0.019 C 
ENDBRANCH  25  28
ENDBRANCH  21  22
ENDBRANCH  19  21
ENDBRANCH   1  19
TORSDOF 8
ENDMDL
MODEL 4
REMARK VINA RESULT:      -7.8      3.830      5.872
REMARK  8 active torsions:
REMARK  status: ('A' for Active; 'I' for Inactive)
REMARK    1  A    between atoms: C_2  and  C_5 
REMARK    2  A    between atoms: C_8  and  C_9 
REMARK    3  A    between atoms: C_9  and  N_10 
REMARK    4  A    between atoms: N_10  and  C_11 
REMARK    5  A    between atoms: N_13  and  C_14 
REMARK    6  A    between atoms: C_14  and  C_15 
REMARK    7  A    between atoms: C_18  and  N_19 
REMARK    8  A    between atoms: N_19  and  S_20 
ROOT
HETATM    1  C   UNL     1     -22.998 -11.276  -0.207  1.00  0.00     0.168 C 
HETATM    2  S   UNL     1     -24.145 -12.089  -1.101  1.00  0.00    -0.041 SA
HETATM    3  N   UNL     1     -23.225  -9.972   0.113  1.00  0.00    -0.363 N 
HETATM    4  H   UNL     1     -24.182  -9.664  -0.008  1.00  0.00     0.162 HD
ENDROOT
BRANCH   3   5
HETATM    5  C   UNL     1     -22.236  -8.969   0.452  1.00  0.00     0.160 C 
BRANCH   5   6
HETATM    6  C   UNL     1     -21.841  -8.097  -0.714  1.00  0.00    -0.037 A 
HETATM    7  C   UNL     1     -22.438  -6.847  -0.952  1.00  0.00     0.011 A 
HETATM    8  C   UNL     1     -22.084  -6.080  -2.070  1.00  0.00     0.034 A 
HETATM    9  C   UNL     1     -21.163  -6.579  -2.987  1.00  0.00     0.081 A 
HETATM   10  C   UNL     1     -20.544  -7.805  -2.736  1.00  0.00     0.144 A 
HETATM   11  F   UNL     1     -19.639  -8.285  -3.601  1.00  0.00    -0.204 F 
HETATM   12  C   UNL     1     -20.873  -8.561  -1.615  1.00  0.00     0.053 A 
BRANCH   9  13
HETATM   13  N   UNL     1     -20.933  -5.891  -4.207  1.00  0.00    -0.282 N 
HETATM   14  H   UNL     1     -20.659  -4.911  -4.137  1.00  0.00     0.178 HD
BRANCH  13  15
HETATM   15  S   UNL     1     -21.848  -6.224  -5.566  1.00  0.00     0.227 S 
HETATM   16  C   UNL     1     -21.509  -4.888  -6.694  1.00  0.00     0.186 C 
HETATM   17  O   UNL     1     -21.264  -7.428  -6.133  1.00  0.00    -0.206 OA
HETATM   18  O   UNL     1     -23.242  -6.172  -5.204  1.00  0.00    -0.206 OA
ENDBRANCH  13  15
ENDBRANCH   9  13
ENDBRANCH   5   6
ENDBRANCH   3   5
BRANCH   1  19
HETATM   19  N   UNL     1     -21.844 -11.805   0.298  1.00  0.00    -0.363 N 
HETATM   20  H   UNL     1     -21.826 -11.922   1.298  1.00  0.00     0.162 HD
BRANCH  19  21
HETATM   21  C   UNL     1     -21.069 -12.828  -0.396  1.00  0.00     0.160 C 
BRANCH  21  22
HETATM   22  C   UNL     1     -19.943 -12.225  -1.176  1.00  0.00    -0.041 A 
HETATM   23  C   UNL     1     -18.751 -11.833  -0.563  1.00  0.00     0.009 A 
HETATM   24  C   UNL     1     -17.692 -11.310  -1.322  1.00  0.00     0.008 A 
HETATM   25  C   UNL     1     -17.792 -11.161  -2.716  1.00  0.00    -0.051 A 
HETATM   26  C   UNL     1     -19.013 -11.530  -3.314  1.00  0.00     0.008 A 
HETATM   27  C   UNL     1     -20.063 -12.058  -2.561  1.00  0.00     0.009 A 
BRANCH  25  28
HETATM   28  C   UNL     1     -16.641 -10.580  -3.559  1.00  0.00    -0.024 C 
HETATM   29  C   UNL     1     -15.962  -9.371  -2.878  1.00  0.00     0.019 C 
HETATM   30  C   UNL     1     -17.213 -10.126  -4.915  1.00  0.00     0.019 C 
HETATM   31  C   UNL     1     -15.520 -11.615  -3.822  1.00  0.00     0.019 C 
ENDBRANCH  25  28
ENDBRANCH  21  22
ENDBRANCH  19  21
ENDBRANCH   1  19
TORSDOF 8
ENDMDL
MODEL 5
REMARK VINA RESULT:      -7.7      1.546      2.299
REMARK  8 active torsions:
REMARK  status: ('A' for Active; 'I' for Inactive)
REMARK    1  A    between atoms: C_2  and  C_5 
REMARK    2  A    between atoms: C_8  and  C_9 
REMARK    3  A    between atoms: C_9  and  N_10 
REMARK    4  A    between atoms: N_10  and  C_11 
REMARK    5  A    between atoms: N_13  and  C_14 
REMARK    6  A    between atoms: C_14  and  C_15 
REMARK    7  A    between atoms: C_18  and  N_19 
REMARK    8  A    between atoms: N_19  and  S_20 
ROOT
HETATM    1  C   UNL     1     -18.649  -9.441  -5.237  1.00  0.00     0.168 C 
HETATM    2  S   UNL     1     -18.199 -10.612  -6.333  1.00  0.00    -0.041 SA
HETATM    3  N   UNL     1     -19.725  -8.658  -5.523  1.00  0.00    -0.363 N 
HETATM    4  H   UNL     1     -20.319  -9.006  -6.267  1.00  0.00     0.162 HD
ENDROOT
BRANCH   3   5
HETATM    5  C   UNL     1     -20.016  -7.341  -4.994  1.00  0.00     0.160 C 
BRANCH   5   6
HETATM    6  C   UNL     1     -20.626  -6.407  -6.009  1.00  0.00    -0.037 A 
HETATM    7  C   UNL     1     -19.898  -5.914  -7.108  1.00  0.00     0.011 A 
HETATM    8  C   UNL     1     -20.476  -5.011  -8.008  1.00  0.00     0.034 A 
HETATM    9  C   UNL     1     -21.772  -4.554  -7.792  1.00  0.00     0.081 A 
HETATM   10  C   UNL     1     -22.510  -5.066  -6.723  1.00  0.00     0.144 A 
HETATM   11  F   UNL     1     -23.767  -4.650  -6.518  1.00  0.00    -0.204 F 
HETATM   12  C   UNL     1     -21.950  -5.982  -5.837  1.00  0.00     0.053 A 
BRANCH   9  13
HETATM   13  N   UNL     1     -22.299  -3.509  -8.596  1.00  0.00    -0.282 N 
HETATM   14  H   UNL     1     -22.653  -2.687  -8.105  1.00  0.00     0.178 HD
BRANCH  13  15
HETATM   15  S   UNL     1     -23.133  -3.845 -10.004  1.00  0.00     0.227 S 
HETATM   16  C   UNL     1     -24.770  -3.195  -9.744  1.00  0.00     0.186 C 
HETATM   17  O   UNL     1     -22.499  -3.027 -11.026  1.00  0.00    -0.206 OA
HETATM   18  O   UNL     1     -23.228  -5.276 -10.150  1.00  0.00    -0.206 OA
ENDBRANCH  13  15
ENDBRANCH   9  13
ENDBRANCH   5   6
ENDBRANCH   3   5
BRANCH   1  19
HETATM   19  N   UNL     1     -18.069  -9.207  -4.022  1.00  0.00    -0.363 N 
HETATM   20  H   UNL     1     -18.214  -8.284  -3.646  1.00  0.00     0.162 HD
BRANCH  19  21
HETATM   21  C   UNL     1     -17.974 -10.224  -2.979  1.00  0.00     0.160 C 
BRANCH  21  22
HETATM   22  C   UNL     1     -19.309 -10.498  -2.359  1.00  0.00    -0.041 A 
HETATM   23  C   UNL     1     -19.775 -11.799  -2.162  1.00  0.00     0.009 A 
HETATM   24  C   UNL     1     -21.011 -12.031  -1.539  1.00  0.00     0.008 A 
HETATM   25  C   UNL     1     -21.820 -10.971  -1.094  1.00  0.00    -0.051 A 
HETATM   26  C   UNL     1     -21.349  -9.664  -1.330  1.00  0.00     0.008 A 
HETATM   27  C   UNL     1     -20.117  -9.433  -1.942  1.00  0.00     0.009 A 
BRANCH  25  28
HETATM   28  C   UNL     1     -23.182 -11.212  -0.417  1.00  0.00    -0.024 C 
HETATM   29  C   UNL     1     -24.261 -11.691  -1.415  1.00  0.00     0.019 C 
HETATM   30  C   UNL     1     -23.649  -9.890   0.219  1.00  0.00     0.019 C 
HETATM   31  C   UNL     1     -23.109 -12.290   0.692  1.00  0.00     0.019 C 
ENDBRANCH  25  28
ENDBRANCH  21  22
ENDBRANCH  19  21
ENDBRANCH   1  19
TORSDOF 8
ENDMDL
MODEL 6
REMARK VINA RESULT:      -7.5      3.270      5.217
REMARK  8 active torsions:
REMARK  status: ('A' for Active; 'I' for Inactive)
REMARK    1  A    between atoms: C_2  and  C_5 
REMARK    2  A    between atoms: C_8  and  C_9 
REMARK    3  A    between atoms: C_9  and  N_10 
REMARK    4  A    between atoms: N_10  and  C_11 
REMARK    5  A    between atoms: N_13  and  C_14 
REMARK    6  A    between atoms: C_14  and  C_15 
REMARK    7  A    between atoms: C_18  and  N_19 
REMARK    8  A    between atoms: N_19  and  S_20 
ROOT
HETATM    1  C   UNL     1     -20.425  -8.620  -3.296  1.00  0.00     0.168 C 
HETATM    2  S   UNL     1     -21.524  -8.882  -2.072  1.00  0.00    -0.041 SA
HETATM    3  N   UNL     1     -20.625  -7.570  -4.139  1.00  0.00    -0.363 N 
HETATM    4  H   UNL     1     -21.294  -6.883  -3.811  1.00  0.00     0.162 HD
ENDROOT
BRANCH   3   5
HETATM    5  C   UNL     1     -20.112  -7.417  -5.485  1.00  0.00     0.160 C 
BRANCH   5   6
HETATM    6  C   UNL     1     -20.735  -6.268  -6.238  1.00  0.00    -0.037 A 
HETATM    7  C   UNL     1     -22.033  -5.805  -5.960  1.00  0.00     0.011 A 
HETATM    8  C   UNL     1     -22.603  -4.767  -6.708  1.00  0.00     0.034 A 
HETATM    9  C   UNL     1     -21.899  -4.215  -7.773  1.00  0.00     0.081 A 
HETATM   10  C   UNL     1     -20.598  -4.649  -8.032  1.00  0.00     0.144 A 
HETATM   11  F   UNL     1     -19.901  -4.110  -9.042  1.00  0.00    -0.204 F 
HETATM   12  C   UNL     1     -20.015  -5.664  -7.278  1.00  0.00     0.053 A 
BRANCH   9  13
HETATM   13  N   UNL     1     -22.536  -3.291  -8.643  1.00  0.00    -0.282 N 
HETATM   14  H   UNL     1     -23.019  -2.507  -8.205  1.00  0.00     0.178 HD
BRANCH  13  15
HETATM   15  S   UNL     1     -23.262  -3.804 -10.058  1.00  0.00     0.227 S 
HETATM   16  C   UNL     1     -24.936  -3.204  -9.968  1.00  0.00     0.186 C 
HETATM   17  O   UNL     1     -22.594  -3.066 -11.118  1.00  0.00    -0.206 OA
HETATM   18  O   UNL     1     -23.293  -5.245 -10.061  1.00  0.00    -0.206 OA
ENDBRANCH  13  15
ENDBRANCH   9  13
ENDBRANCH   5   6
ENDBRANCH   3   5
BRANCH   1  19
HETATM   19  N   UNL     1     -19.283  -9.336  -3.523  1.00  0.00    -0.363 N 
HETATM   20  H   UNL     1     -19.060  -9.495  -4.492  1.00  0.00     0.162 HD
BRANCH  19  21
HETATM   21  C   UNL     1     -18.091  -9.213  -2.690  1.00  0.00     0.160 C 
BRANCH  21  22
HETATM   22  C   UNL     1     -17.019 -10.163  -3.127  1.00  0.00    -0.041 A 
HETATM   23  C   UNL     1     -16.160 -10.774  -2.212  1.00  0.00     0.009 A 
HETATM   24  C   UNL     1     -15.192 -11.695  -2.641  1.00  0.00     0.008 A 
HETATM   25  C   UNL     1     -15.051 -12.033  -3.998  1.00  0.00    -0.051 A 
HETATM   26  C   UNL     1     -15.904 -11.383  -4.912  1.00  0.00     0.008 A 
HETATM   27  C   UNL     1     -16.872 -10.473  -4.484  1.00  0.00     0.009 A 
BRANCH  25  28
HETATM   28  C   UNL     1     -13.987 -13.035  -4.483  1.00  0.00    -0.024 C 
HETATM   29  C   UNL     1     -12.897 -13.300  -3.421  1.00  0.00     0.019 C 
HETATM   30  C   UNL     1     -13.317 -12.460  -5.745  1.00  0.00     0.019 C 
HETATM   31  C   UNL     1     -14.592 -14.416  -4.837  1.00  0.00     0.019 C 
ENDBRANCH  25  28
ENDBRANCH  21  22
ENDBRANCH  19  21
ENDBRANCH   1  19
TORSDOF 8
ENDMDL
MODEL 7
REMARK VINA RESULT:      -7.5      3.585      5.783
REMARK  8 active torsions:
REMARK  status: ('A' for Active; 'I' for Inactive)
REMARK    1  A    between atoms: C_2  and  C_5 
REMARK    2  A    between atoms: C_8  and  C_9 
REMARK    3  A    between atoms: C_9  and  N_10 
REMARK    4  A    between atoms: N_10  and  C_11 
REMARK    5  A    between atoms: N_13  and  C_14 
REMARK    6  A    between atoms: C_14  and  C_15 
REMARK    7  A    between atoms: C_18  and  N_19 
REMARK    8  A    between atoms: N_19  and  S_20 
ROOT
HETATM    1  C   UNL     1     -21.524 -10.937   0.220  1.00  0.00     0.168 C 
HETATM    2  S   UNL     1     -22.712 -12.080  -0.015  1.00  0.00    -0.041 SA
HETATM    3  N   UNL     1     -21.890  -9.632   0.344  1.00  0.00    -0.363 N 
HETATM    4  H   UNL     1     -22.875  -9.481   0.527  1.00  0.00     0.162 HD
ENDROOT
BRANCH   3   5
HETATM    5  C   UNL     1     -21.069  -8.464   0.095  1.00  0.00     0.160 C 
BRANCH   5   6
HETATM    6  C   UNL     1     -21.321  -7.828  -1.249  1.00  0.00    -0.037 A 
HETATM    7  C   UNL     1     -22.020  -6.615  -1.386  1.00  0.00     0.011 A 
HETATM    8  C   UNL     1     -22.279  -6.072  -2.651  1.00  0.00     0.034 A 
HETATM    9  C   UNL     1     -21.885  -6.762  -3.793  1.00  0.00     0.081 A 
HETATM   10  C   UNL     1     -21.162  -7.949  -3.661  1.00  0.00     0.144 A 
HETATM   11  F   UNL     1     -20.757  -8.610  -4.755  1.00  0.00    -0.204 F 
HETATM   12  C   UNL     1     -20.879  -8.482  -2.407  1.00  0.00     0.053 A 
BRANCH   9  13
HETATM   13  N   UNL     1     -22.299  -6.309  -5.074  1.00  0.00    -0.282 N 
HETATM   14  H   UNL     1     -23.010  -6.865  -5.549  1.00  0.00     0.178 HD
BRANCH  13  15
HETATM   15  S   UNL     1     -21.215  -5.590  -6.123  1.00  0.00     0.227 S 
HETATM   16  C   UNL     1     -22.185  -4.446  -7.083  1.00  0.00     0.186 C 
HETATM   17  O   UNL     1     -20.331  -4.805  -5.277  1.00  0.00    -0.206 OA
HETATM   18  O   UNL     1     -20.694  -6.602  -7.008  1.00  0.00    -0.206 OA
ENDBRANCH  13  15
ENDBRANCH   9  13
ENDBRANCH   5   6
ENDBRANCH   3   5
BRANCH   1  19
HETATM   19  N   UNL     1     -20.186 -11.179   0.356  1.00  0.00    -0.363 N 
HETATM   20  H   UNL     1     -19.806 -10.995   1.270  1.00  0.00     0.162 HD
BRANCH  19  21
HETATM   21  C   UNL     1     -19.505 -12.280  -0.318  1.00  0.00     0.160 C 
BRANCH  21  22
HETATM   22  C   UNL     1     -18.862 -11.827  -1.592  1.00  0.00    -0.041 A 
HETATM   23  C   UNL     1     -19.511 -11.940  -2.823  1.00  0.00     0.009 A 
HETATM   24  C   UNL     1     -18.905 -11.468  -3.998  1.00  0.00     0.008 A 
HETATM   25  C   UNL     1     -17.633 -10.871  -3.980  1.00  0.00    -0.051 A 
HETATM   26  C   UNL     1     -16.979 -10.794  -2.734  1.00  0.00     0.008 A 
HETATM   27  C   UNL     1     -17.584 -11.257  -1.565  1.00  0.00     0.009 A 
BRANCH  25  28
HETATM   28  C   UNL     1     -16.954 -10.357  -5.263  1.00  0.00    -0.024 C 
HETATM   29  C   UNL     1     -16.658 -11.491  -6.269  1.00  0.00     0.019 C 
HETATM   30  C   UNL     1     -15.625  -9.683  -4.873  1.00  0.00     0.019 C 
HETATM   31  C   UNL     1     -17.824  -9.323  -6.019  1.00  0.00     0.019 C 
ENDBRANCH  25  28
ENDBRANCH  21  22
ENDBRANCH  19  21
ENDBRANCH   1  19
TORSDOF 8
ENDMDL
MODEL 8
REMARK VINA RESULT:      -7.3     17.322     19.617
REMARK  8 active torsions:
REMARK  status: ('A' for Active; 'I' for Inactive)
REMARK    1  A    between atoms: C_2  and  C_5 
REMARK    2  A    between atoms: C_8  and  C_9 
REMARK    3  A    between atoms: C_9  and  N_10 
REMARK    4  A    between atoms: N_10  and  C_11 
REMARK    5  A    between atoms: N_13  and  C_14 
REMARK    6  A    between atoms: C_14  and  C_15 
REMARK    7  A    between atoms: C_18  and  N_19 
REMARK    8  A    between atoms: N_19  and  S_20 
ROOT
HETATM    1  C   UNL     1     -22.017  10.126   5.025  1.00  0.00     0.168 C 
HETATM    2  S   UNL     1     -22.299  11.109   6.340  1.00  0.00    -0.041 SA
HETATM    3  N   UNL     1     -21.299   8.984   5.206  1.00  0.00    -0.363 N 
HETATM    4  H   UNL     1     -21.196   8.694   6.171  1.00  0.00     0.162 HD
ENDROOT
BRANCH   3   5
HETATM    5  C   UNL     1     -20.557   8.248   4.203  1.00  0.00     0.160 C 
BRANCH   5   6
HETATM    6  C   UNL     1     -19.230   8.874   3.856  1.00  0.00    -0.037 A 
HETATM    7  C   UNL     1     -18.912   9.283   2.548  1.00  0.00     0.011 A 
HETATM    8  C   UNL     1     -17.653   9.819   2.247  1.00  0.00     0.034 A 
HETATM    9  C   UNL     1     -16.683   9.906   3.241  1.00  0.00     0.081 A 
HETATM   10  C   UNL     1     -17.006   9.533   4.547  1.00  0.00     0.144 A 
HETATM   11  F   UNL     1     -16.086   9.633   5.517  1.00  0.00    -0.204 F 
HETATM   12  C   UNL     1     -18.262   9.022   4.859  1.00  0.00     0.053 A 
BRANCH   9  13
HETATM   13  N   UNL     1     -15.355  10.280   2.905  1.00  0.00    -0.282 N 
HETATM   14  H   UNL     1     -15.247  11.089   2.293  1.00  0.00     0.178 HD
BRANCH  13  15
HETATM   15  S   UNL     1     -14.167   9.125   2.688  1.00  0.00     0.227 S 
HETATM   16  C   UNL     1     -13.145   9.750   1.370  1.00  0.00     0.186 C 
HETATM   17  O   UNL     1     -13.373   9.162   3.906  1.00  0.00    -0.206 OA
HETATM   18  O   UNL     1     -14.790   7.904   2.243  1.00  0.00    -0.206 OA
ENDBRANCH  13  15
ENDBRANCH   9  13
ENDBRANCH   5   6
ENDBRANCH   3   5
BRANCH   1  19
HETATM   19  N   UNL     1     -22.485  10.321   3.756  1.00  0.00    -0.363 N 
HETATM   20  H   UNL     1     -21.837  10.098   3.018  1.00  0.00     0.162 HD
BRANCH  19  21
HETATM   21  C   UNL     1     -23.871  10.070   3.374  1.00  0.00     0.160 C 
BRANCH  21  22
HETATM   22  C   UNL     1     -23.953   9.321   2.080  1.00  0.00    -0.041 A 
HETATM   23  C   UNL     1     -25.178   9.017   1.483  1.00  0.00     0.009 A 
HETATM   24  C   UNL     1     -25.229   8.353   0.248  1.00  0.00     0.008 A 
HETATM   25  C   UNL     1     -24.058   7.971  -0.429  1.00  0.00    -0.051 A 
HETATM   26  C   UNL     1     -22.831   8.256   0.203  1.00  0.00     0.008 A 
HETATM   27  C   UNL     1     -22.780   8.923   1.427  1.00  0.00     0.009 A 
BRANCH  25  28
HETATM   28  C   UNL     1     -24.100   7.233  -1.780  1.00  0.00    -0.024 C 
HETATM   29  C   UNL     1     -25.433   7.450  -2.531  1.00  0.00     0.019 C 
HETATM   30  C   UNL     1     -23.921   5.726  -1.517  1.00  0.00     0.019 C 
HETATM   31  C   UNL     1     -22.979   7.698  -2.743  1.00  0.00     0.019 C 
ENDBRANCH  25  28
ENDBRANCH  21  22
ENDBRANCH  19  21
ENDBRANCH   1  19
TORSDOF 8
ENDMDL
MODEL 9
REMARK VINA RESULT:      -7.3      4.908      9.222
REMARK  8 active torsions:
REMARK  status: ('A' for Active; 'I' for Inactive)
REMARK    1  A    between atoms: C_2  and  C_5 
REMARK    2  A    between atoms: C_8  and  C_9 
REMARK    3  A    between atoms: C_9  and  N_10 
REMARK    4  A    between atoms: N_10  and  C_11 
REMARK    5  A    between atoms: N_13  and  C_14 
REMARK    6  A    between atoms: C_14  and  C_15 
REMARK    7  A    between atoms: C_18  and  N_19 
REMARK    8  A    between atoms: N_19  and  S_20 
ROOT
HETATM    1  C   UNL     1     -21.649  -6.814  -3.523  1.00  0.00     0.168 C 
HETATM    2  S   UNL     1     -21.862  -6.364  -1.933  1.00  0.00    -0.041 SA
HETATM    3  N   UNL     1     -21.337  -8.110  -3.798  1.00  0.00    -0.363 N 
HETATM    4  H   UNL     1     -21.497  -8.757  -3.034  1.00  0.00     0.162 HD
ENDROOT
BRANCH   3   5
HETATM    5  C   UNL     1     -20.676  -8.620  -4.981  1.00  0.00     0.160 C 
BRANCH   5   6
HETATM    6  C   UNL     1     -19.260  -9.074  -4.730  1.00  0.00    -0.037 A 
HETATM    7  C   UNL     1     -18.349  -9.303  -5.777  1.00  0.00     0.011 A 
HETATM    8  C   UNL     1     -17.054  -9.769  -5.516  1.00  0.00     0.034 A 
HETATM    9  C   UNL     1     -16.674 -10.057  -4.209  1.00  0.00     0.081 A 
HETATM   10  C   UNL     1     -17.564  -9.800  -3.164  1.00  0.00     0.144 A 
HETATM   11  F   UNL     1     -17.200 -10.053  -1.899  1.00  0.00    -0.204 F 
HETATM   12  C   UNL     1     -18.844  -9.314  -3.414  1.00  0.00     0.053 A 
BRANCH   9  13
HETATM   13  N   UNL     1     -15.431 -10.696  -3.956  1.00  0.00    -0.282 N 
HETATM   14  H   UNL     1     -14.613 -10.311  -4.428  1.00  0.00     0.178 HD
BRANCH  13  15
HETATM   15  S   UNL     1     -15.345 -12.349  -3.730  1.00  0.00     0.227 S 
HETATM   16  C   UNL     1     -13.695 -12.801  -4.226  1.00  0.00     0.186 C 
HETATM   17  O   UNL     1     -15.433 -12.543  -2.292  1.00  0.00    -0.206 OA
HETATM   18  O   UNL     1     -16.280 -12.983  -4.625  1.00  0.00    -0.206 OA
ENDBRANCH  13  15
ENDBRANCH   9  13
ENDBRANCH   5   6
ENDBRANCH   3   5
BRANCH   1  19
HETATM   19  N   UNL     1     -21.807  -6.011  -4.617  1.00  0.00    -0.363 N 
HETATM   20  H   UNL     1     -22.716  -5.589  -4.714  1.00  0.00     0.162 HD
BRANCH  19  21
HETATM   21  C   UNL     1     -20.740  -5.163  -5.140  1.00  0.00     0.160 C 
BRANCH  21  22
HETATM   22  C   UNL     1     -20.952  -4.852  -6.590  1.00  0.00    -0.041 A 
HETATM   23  C   UNL     1     -19.925  -4.982  -7.527  1.00  0.00     0.009 A 
HETATM   24  C   UNL     1     -20.159  -4.727  -8.887  1.00  0.00     0.008 A 
HETATM   25  C   UNL     1     -21.425  -4.332  -9.353  1.00  0.00    -0.051 A 
HETATM   26  C   UNL     1     -22.441  -4.173  -8.390  1.00  0.00     0.008 A 
HETATM   27  C   UNL     1     -22.211  -4.435  -7.038  1.00  0.00     0.009 A 
BRANCH  25  28
HETATM   28  C   UNL     1     -21.692  -4.040 -10.841  1.00  0.00    -0.024 C 
HETATM   29  C   UNL     1     -22.918  -4.808 -11.382  1.00  0.00     0.019 C 
HETATM   30  C   UNL     1     -20.450  -4.459 -11.649  1.00  0.00     0.019 C 
HETATM   31  C   UNL     1     -21.967  -2.540 -11.110  1.00  0.00     0.019 C 
ENDBRANCH  25  28
ENDBRANCH  21  22
ENDBRANCH  19  21
ENDBRANCH   1  19
TORSDOF 8
ENDMDL
