REMARK  3 active torsions:
REMARK  status: ('A' for Active; 'I' for Inactive)
REMARK    1  A    between atoms: C_2  and  C_3 
REMARK       I    between atoms: C_2  and  N_16 
REMARK    2  A    between atoms: C_4  and  C_5 
REMARK    3  A    between atoms: C_6  and  C_7 
ROOT
HETATM    1  C   UNL     1       3.198   3.504   1.002  1.00  0.00     0.001 C 
HETATM    2  C   UNL     1       2.564   4.663   1.268  1.00  0.00     0.011 C 
ENDROOT
BRANCH   1   3
HETATM    3  C   UNL     1       2.504   2.274   0.674  1.00  0.00     0.005 C 
HETATM    4  C   UNL     1       3.125   1.128   0.386  1.00  0.00     0.074 C 
BRANCH   4   5
HETATM    5  C   UNL     1       2.298  -0.006  -0.104  1.00  0.00     0.243 C 
HETATM    6  O   UNL     1       1.518  -0.578   0.654  1.00  0.00    -0.268 OA
HETATM    7  N   UNL     1       2.441  -0.326  -1.443  1.00  0.00    -0.349 N 
HETATM    8  C   UNL     1       3.360   0.305  -2.385  1.00  0.00     0.126 C 
HETATM    9  C   UNL     1       1.690  -1.450  -1.982  1.00  0.00     0.126 C 
HETATM   10  C   UNL     1       2.641   0.745  -3.664  1.00  0.00     0.020 C 
HETATM   11  C   UNL     1       1.768  -0.367  -4.253  1.00  0.00     0.003 C 
HETATM   12  C   UNL     1       0.876  -1.010  -3.191  1.00  0.00     0.020 C 
ENDBRANCH   4   5
ENDBRANCH   1   3
BRANCH   2  13
HETATM   13  C   UNL     1       3.257   5.923   1.583  1.00  0.00    -0.033 A 
HETATM   14  C   UNL     1       4.535   6.221   1.056  1.00  0.00     0.014 A 
HETATM   15  C   UNL     1       5.194   7.411   1.368  1.00  0.00     0.040 A 
HETATM   16  C   UNL     1       4.554   8.294   2.206  1.00  0.00     0.105 A 
HETATM   17  C   UNL     1       3.297   8.037   2.704  1.00  0.00     0.105 A 
HETATM   18  O   UNL     1       5.048   9.487   2.635  1.00  0.00    -0.323 OA
HETATM   19  C   UNL     1       2.619   6.874   2.402  1.00  0.00     0.051 A 
HETATM   20  O   UNL     1       2.846   9.039   3.506  1.00  0.00    -0.323 OA
HETATM   21  C   UNL     1       3.988   9.922   3.513  1.00  0.00     0.352 A 
ENDBRANCH   2  13
TORSDOF 3
