MODEL 1
REMARK VINA RESULT:      -9.5      0.000      0.000
REMARK  3 active torsions:
REMARK  status: ('A' for Active; 'I' for Inactive)
REMARK    1  A    between atoms: C_2  and  C_3 
REMARK       I    between atoms: C_2  and  N_16 
REMARK    2  A    between atoms: C_4  and  C_5 
REMARK    3  A    between atoms: C_6  and  C_7 
ROOT
HETATM    1  C   UNL     1     -21.297  -5.386  -6.730  1.00  0.00     0.001 C 
HETATM    2  C   UNL     1     -22.149  -4.456  -7.205  1.00  0.00     0.011 C 
ENDROOT
BRANCH   1   3
HETATM    3  C   UNL     1     -21.166  -5.699  -5.320  1.00  0.00     0.005 C 
HETATM    4  C   UNL     1     -21.962  -6.556  -4.676  1.00  0.00     0.074 C 
BRANCH   4   5
HETATM    5  C   UNL     1     -21.830  -6.649  -3.198  1.00  0.00     0.243 C 
HETATM    6  O   UNL     1     -22.021  -5.660  -2.494  1.00  0.00    -0.268 OA
HETATM    7  N   UNL     1     -21.526  -7.903  -2.695  1.00  0.00    -0.349 N 
HETATM    8  C   UNL     1     -21.273  -9.107  -3.480  1.00  0.00     0.126 C 
HETATM    9  C   UNL     1     -21.345  -8.060  -1.260  1.00  0.00     0.126 C 
HETATM   10  C   UNL     1     -22.118 -10.286  -2.990  1.00  0.00     0.020 C 
HETATM   11  C   UNL     1     -22.036 -10.471  -1.472  1.00  0.00     0.003 C 
HETATM   12  C   UNL     1     -22.260  -9.154  -0.728  1.00  0.00     0.020 C 
ENDBRANCH   4   5
ENDBRANCH   1   3
BRANCH   2  13
HETATM   13  C   UNL     1     -22.306  -4.142  -8.634  1.00  0.00    -0.033 A 
HETATM   14  C   UNL     1     -21.204  -4.142  -9.521  1.00  0.00     0.014 A 
HETATM   15  C   UNL     1     -21.355  -3.831 -10.873  1.00  0.00     0.040 A 
HETATM   16  C   UNL     1     -22.619  -3.527 -11.321  1.00  0.00     0.105 A 
HETATM   17  C   UNL     1     -23.709  -3.552 -10.481  1.00  0.00     0.105 A 
HETATM   18  O   UNL     1     -22.953  -3.180 -12.593  1.00  0.00    -0.323 OA
HETATM   19  C   UNL     1     -23.590  -3.868  -9.143  1.00  0.00     0.051 A 
HETATM   20  O   UNL     1     -24.863  -3.225 -11.124  1.00  0.00    -0.323 OA
HETATM   21  C   UNL     1     -24.366  -2.924 -12.445  1.00  0.00     0.352 A 
ENDBRANCH   2  13
TORSDOF 3
ENDMDL
MODEL 2
REMARK VINA RESULT:      -9.2      2.742      9.257
REMARK  3 active torsions:
REMARK  status: ('A' for Active; 'I' for Inactive)
REMARK    1  A    between atoms: C_2  and  C_3 
REMARK       I    between atoms: C_2  and  N_16 
REMARK    2  A    between atoms: C_4  and  C_5 
REMARK    3  A    between atoms: C_6  and  C_7 
ROOT
HETATM    1  C   UNL     1     -20.496  -5.313  -4.892  1.00  0.00     0.001 C 
HETATM    2  C   UNL     1     -21.360  -6.301  -4.587  1.00  0.00     0.011 C 
ENDROOT
BRANCH   1   3
HETATM    3  C   UNL     1     -20.373  -4.744  -6.220  1.00  0.00     0.005 C 
HETATM    4  C   UNL     1     -21.224  -5.000  -7.216  1.00  0.00     0.074 C 
BRANCH   4   5
HETATM    5  C   UNL     1     -20.881  -4.491  -8.570  1.00  0.00     0.243 C 
HETATM    6  O   UNL     1     -19.722  -4.540  -8.976  1.00  0.00    -0.268 OA
HETATM    7  N   UNL     1     -21.940  -4.016  -9.325  1.00  0.00    -0.349 N 
HETATM    8  C   UNL     1     -23.330  -3.919  -8.892  1.00  0.00     0.126 C 
HETATM    9  C   UNL     1     -21.672  -3.468 -10.646  1.00  0.00     0.126 C 
HETATM   10  C   UNL     1     -24.282  -4.560  -9.907  1.00  0.00     0.020 C 
HETATM   11  C   UNL     1     -24.012  -4.086 -11.338  1.00  0.00     0.003 C 
HETATM   12  C   UNL     1     -22.527  -4.170 -11.692  1.00  0.00     0.020 C 
ENDBRANCH   4   5
ENDBRANCH   1   3
BRANCH   2  13
HETATM   13  C   UNL     1     -21.508  -6.874  -3.239  1.00  0.00    -0.033 A 
HETATM   14  C   UNL     1     -22.187  -6.184  -2.208  1.00  0.00     0.014 A 
HETATM   15  C   UNL     1     -22.313  -6.725  -0.928  1.00  0.00     0.040 A 
HETATM   16  C   UNL     1     -21.757  -7.962  -0.700  1.00  0.00     0.105 A 
HETATM   17  C   UNL     1     -21.120  -8.664  -1.699  1.00  0.00     0.105 A 
HETATM   18  O   UNL     1     -21.762  -8.634   0.483  1.00  0.00    -0.323 OA
HETATM   19  C   UNL     1     -20.991  -8.157  -2.975  1.00  0.00     0.051 A 
HETATM   20  O   UNL     1     -20.648  -9.864  -1.265  1.00  0.00    -0.323 OA
HETATM   21  C   UNL     1     -20.998  -9.808   0.135  1.00  0.00     0.352 A 
ENDBRANCH   2  13
TORSDOF 3
ENDMDL
MODEL 3
REMARK VINA RESULT:      -8.4      2.000      3.182
REMARK  3 active torsions:
REMARK  status: ('A' for Active; 'I' for Inactive)
REMARK    1  A    between atoms: C_2  and  C_3 
REMARK       I    between atoms: C_2  and  N_16 
REMARK    2  A    between atoms: C_4  and  C_5 
REMARK    3  A    between atoms: C_6  and  C_7 
ROOT
HETATM    1  C   UNL     1     -21.264  -5.859  -3.574  1.00  0.00     0.001 C 
HETATM    2  C   UNL     1     -21.496  -6.362  -4.803  1.00  0.00     0.011 C 
ENDROOT
BRANCH   1   3
HETATM    3  C   UNL     1     -21.659  -6.530  -2.351  1.00  0.00     0.005 C 
HETATM    4  C   UNL     1     -21.038  -7.608  -1.865  1.00  0.00     0.074 C 
BRANCH   4   5
HETATM    5  C   UNL     1     -21.655  -8.298  -0.702  1.00  0.00     0.243 C 
HETATM    6  O   UNL     1     -21.863  -7.687   0.343  1.00  0.00    -0.268 OA
HETATM    7  N   UNL     1     -22.001  -9.624  -0.898  1.00  0.00    -0.349 N 
HETATM    8  C   UNL     1     -21.764 -10.405  -2.108  1.00  0.00     0.126 C 
HETATM    9  C   UNL     1     -22.574 -10.373   0.210  1.00  0.00     0.126 C 
HETATM   10  C   UNL     1     -23.038 -11.111  -2.581  1.00  0.00     0.020 C 
HETATM   11  C   UNL     1     -23.742 -11.864  -1.448  1.00  0.00     0.003 C 
HETATM   12  C   UNL     1     -23.902 -10.993  -0.202  1.00  0.00     0.020 C 
ENDBRANCH   4   5
ENDBRANCH   1   3
BRANCH   2  13
HETATM   13  C   UNL     1     -21.083  -5.700  -6.051  1.00  0.00    -0.033 A 
HETATM   14  C   UNL     1     -19.771  -5.207  -6.233  1.00  0.00     0.014 A 
HETATM   15  C   UNL     1     -19.388  -4.568  -7.413  1.00  0.00     0.040 A 
HETATM   16  C   UNL     1     -20.333  -4.438  -8.404  1.00  0.00     0.105 A 
HETATM   17  C   UNL     1     -21.607  -4.939  -8.259  1.00  0.00     0.105 A 
HETATM   18  O   UNL     1     -20.149  -3.829  -9.607  1.00  0.00    -0.323 OA
HETATM   19  C   UNL     1     -22.007  -5.585  -7.107  1.00  0.00     0.051 A 
HETATM   20  O   UNL     1     -22.379  -4.708  -9.355  1.00  0.00    -0.323 OA
HETATM   21  C   UNL     1     -21.470  -3.944 -10.177  1.00  0.00     0.352 A 
ENDBRANCH   2  13
TORSDOF 3
ENDMDL
MODEL 4
REMARK VINA RESULT:      -8.0      1.560      2.493
REMARK  3 active torsions:
REMARK  status: ('A' for Active; 'I' for Inactive)
REMARK    1  A    between atoms: C_2  and  C_3 
REMARK       I    between atoms: C_2  and  N_16 
REMARK    2  A    between atoms: C_4  and  C_5 
REMARK    3  A    between atoms: C_6  and  C_7 
ROOT
HETATM    1  C   UNL     1     -21.523  -6.574  -5.434  1.00  0.00     0.001 C 
HETATM    2  C   UNL     1     -21.228  -5.344  -5.899  1.00  0.00     0.011 C 
ENDROOT
BRANCH   1   3
HETATM    3  C   UNL     1     -21.170  -7.028  -4.103  1.00  0.00     0.005 C 
HETATM    4  C   UNL     1     -21.086  -8.314  -3.758  1.00  0.00     0.074 C 
BRANCH   4   5
HETATM    5  C   UNL     1     -20.889  -8.636  -2.320  1.00  0.00     0.243 C 
HETATM    6  O   UNL     1     -20.275  -7.861  -1.590  1.00  0.00    -0.268 OA
HETATM    7  N   UNL     1     -21.467  -9.813  -1.878  1.00  0.00    -0.349 N 
HETATM    8  C   UNL     1     -22.192 -10.777  -2.699  1.00  0.00     0.126 C 
HETATM    9  C   UNL     1     -21.282 -10.210  -0.490  1.00  0.00     0.126 C 
HETATM   10  C   UNL     1     -23.552 -11.128  -2.089  1.00  0.00     0.020 C 
HETATM   11  C   UNL     1     -23.449 -11.486  -0.603  1.00  0.00     0.003 C 
HETATM   12  C   UNL     1     -22.631 -10.455   0.174  1.00  0.00     0.020 C 
ENDBRANCH   4   5
ENDBRANCH   1   3
BRANCH   2  13
HETATM   13  C   UNL     1     -21.598  -4.864  -7.241  1.00  0.00    -0.033 A 
HETATM   14  C   UNL     1     -22.890  -4.361  -7.521  1.00  0.00     0.014 A 
HETATM   15  C   UNL     1     -23.240  -3.920  -8.798  1.00  0.00     0.040 A 
HETATM   16  C   UNL     1     -22.280  -3.985  -9.781  1.00  0.00     0.105 A 
HETATM   17  C   UNL     1     -21.008  -4.442  -9.522  1.00  0.00     0.105 A 
HETATM   18  O   UNL     1     -22.445  -3.621 -11.082  1.00  0.00    -0.323 OA
HETATM   19  C   UNL     1     -20.633  -4.873  -8.266  1.00  0.00     0.051 A 
HETATM   20  O   UNL     1     -20.217  -4.419 -10.628  1.00  0.00    -0.323 OA
HETATM   21  C   UNL     1     -21.153  -3.964 -11.628  1.00  0.00     0.352 A 
ENDBRANCH   2  13
TORSDOF 3
ENDMDL
MODEL 5
REMARK VINA RESULT:      -7.4     16.405     17.449
REMARK  3 active torsions:
REMARK  status: ('A' for Active; 'I' for Inactive)
REMARK    1  A    between atoms: C_2  and  C_3 
REMARK       I    between atoms: C_2  and  N_16 
REMARK    2  A    between atoms: C_4  and  C_5 
REMARK    3  A    between atoms: C_6  and  C_7 
ROOT
HETATM    1  C   UNL     1     -21.307   8.684   2.228  1.00  0.00     0.001 C 
HETATM    2  C   UNL     1     -22.593   9.084   2.190  1.00  0.00     0.011 C 
ENDROOT
BRANCH   1   3
HETATM    3  C   UNL     1     -20.392   9.045   3.294  1.00  0.00     0.005 C 
HETATM    4  C   UNL     1     -19.066   8.920   3.205  1.00  0.00     0.074 C 
BRANCH   4   5
HETATM    5  C   UNL     1     -18.262   9.159   4.432  1.00  0.00     0.243 C 
HETATM    6  O   UNL     1     -18.803   9.165   5.536  1.00  0.00    -0.268 OA
HETATM    7  N   UNL     1     -16.902   9.327   4.243  1.00  0.00    -0.349 N 
HETATM    8  C   UNL     1     -16.208   9.346   2.959  1.00  0.00     0.126 C 
HETATM    9  C   UNL     1     -16.059   9.602   5.396  1.00  0.00     0.126 C 
HETATM   10  C   UNL     1     -15.012   8.389   2.951  1.00  0.00     0.020 C 
HETATM   11  C   UNL     1     -14.114   8.569   4.178  1.00  0.00     0.003 C 
HETATM   12  C   UNL     1     -14.923   8.592   5.474  1.00  0.00     0.020 C 
ENDBRANCH   4   5
ENDBRANCH   1   3
BRANCH   2  13
HETATM   13  C   UNL     1     -23.537   8.708   1.124  1.00  0.00    -0.033 A 
HETATM   14  C   UNL     1     -24.922   8.973   1.230  1.00  0.00     0.014 A 
HETATM   15  C   UNL     1     -25.815   8.604   0.223  1.00  0.00     0.040 A 
HETATM   16  C   UNL     1     -25.300   7.974  -0.887  1.00  0.00     0.105 A 
HETATM   17  C   UNL     1     -23.952   7.736  -1.023  1.00  0.00     0.105 A 
HETATM   18  O   UNL     1     -26.017   7.525  -1.953  1.00  0.00    -0.323 OA
HETATM   19  C   UNL     1     -23.047   8.101  -0.048  1.00  0.00     0.051 A 
HETATM   20  O   UNL     1     -23.655   7.109  -2.193  1.00  0.00    -0.323 OA
HETATM   21  C   UNL     1     -24.975   6.917  -2.746  1.00  0.00     0.352 A 
ENDBRANCH   2  13
TORSDOF 3
ENDMDL
MODEL 6
REMARK VINA RESULT:      -7.2      3.533      4.527
REMARK  3 active torsions:
REMARK  status: ('A' for Active; 'I' for Inactive)
REMARK    1  A    between atoms: C_2  and  C_3 
REMARK       I    between atoms: C_2  and  N_16 
REMARK    2  A    between atoms: C_4  and  C_5 
REMARK    3  A    between atoms: C_6  and  C_7 
ROOT
HETATM    1  C   UNL     1     -20.987  -7.438  -4.703  1.00  0.00     0.001 C 
HETATM    2  C   UNL     1     -20.260  -6.728  -5.588  1.00  0.00     0.011 C 
ENDROOT
BRANCH   1   3
HETATM    3  C   UNL     1     -20.396  -8.280  -3.682  1.00  0.00     0.005 C 
HETATM    4  C   UNL     1     -19.270  -8.975  -3.856  1.00  0.00     0.074 C 
BRANCH   4   5
HETATM    5  C   UNL     1     -18.873  -9.934  -2.791  1.00  0.00     0.243 C 
HETATM    6  O   UNL     1     -19.724 -10.437  -2.061  1.00  0.00    -0.268 OA
HETATM    7  N   UNL     1     -17.524 -10.234  -2.718  1.00  0.00    -0.349 N 
HETATM    8  C   UNL     1     -16.468  -9.658  -3.544  1.00  0.00     0.126 C 
HETATM    9  C   UNL     1     -17.060 -11.137  -1.675  1.00  0.00     0.126 C 
HETATM   10  C   UNL     1     -15.588 -10.743  -4.171  1.00  0.00     0.020 C 
HETATM   11  C   UNL     1     -15.118 -11.777  -3.143  1.00  0.00     0.003 C 
HETATM   12  C   UNL     1     -16.275 -12.290  -2.285  1.00  0.00     0.020 C 
ENDBRANCH   4   5
ENDBRANCH   1   3
BRANCH   2  13
HETATM   13  C   UNL     1     -20.847  -5.854  -6.617  1.00  0.00    -0.033 A 
HETATM   14  C   UNL     1     -22.095  -5.216  -6.427  1.00  0.00     0.014 A 
HETATM   15  C   UNL     1     -22.653  -4.398  -7.411  1.00  0.00     0.040 A 
HETATM   16  C   UNL     1     -21.944  -4.227  -8.577  1.00  0.00     0.105 A 
HETATM   17  C   UNL     1     -20.714  -4.813  -8.768  1.00  0.00     0.105 A 
HETATM   18  O   UNL     1     -22.339  -3.487  -9.649  1.00  0.00    -0.323 OA
HETATM   19  C   UNL     1     -20.134  -5.616  -7.807  1.00  0.00     0.051 A 
HETATM   20  O   UNL     1     -20.183  -4.512  -9.984  1.00  0.00    -0.323 OA
HETATM   21  C   UNL     1     -21.248  -3.728 -10.563  1.00  0.00     0.352 A 
ENDBRANCH   2  13
TORSDOF 3
ENDMDL
MODEL 7
REMARK VINA RESULT:      -7.0      7.322     14.043
REMARK  3 active torsions:
REMARK  status: ('A' for Active; 'I' for Inactive)
REMARK    1  A    between atoms: C_2  and  C_3 
REMARK       I    between atoms: C_2  and  N_16 
REMARK    2  A    between atoms: C_4  and  C_5 
REMARK    3  A    between atoms: C_6  and  C_7 
ROOT
HETATM    1  C   UNL     1     -23.044 -13.039   1.103  1.00  0.00     0.001 C 
HETATM    2  C   UNL     1     -22.428 -13.855   1.981  1.00  0.00     0.011 C 
ENDROOT
BRANCH   1   3
HETATM    3  C   UNL     1     -22.334 -12.251   0.114  1.00  0.00     0.005 C 
HETATM    4  C   UNL     1     -21.214 -11.573   0.374  1.00  0.00     0.074 C 
BRANCH   4   5
HETATM    5  C   UNL     1     -20.690 -10.667  -0.682  1.00  0.00     0.243 C 
HETATM    6  O   UNL     1     -20.086 -11.125  -1.649  1.00  0.00    -0.268 OA
HETATM    7  N   UNL     1     -20.964  -9.320  -0.515  1.00  0.00    -0.349 N 
HETATM    8  C   UNL     1     -21.660  -8.718   0.617  1.00  0.00     0.126 C 
HETATM    9  C   UNL     1     -20.448  -8.372  -1.491  1.00  0.00     0.126 C 
HETATM   10  C   UNL     1     -22.797  -7.801   0.155  1.00  0.00     0.020 C 
HETATM   11  C   UNL     1     -22.348  -6.818  -0.930  1.00  0.00     0.003 C 
HETATM   12  C   UNL     1     -21.581  -7.522  -2.050  1.00  0.00     0.020 C 
ENDBRANCH   4   5
ENDBRANCH   1   3
BRANCH   2  13
HETATM   13  C   UNL     1     -23.138 -14.675   2.976  1.00  0.00    -0.033 A 
HETATM   14  C   UNL     1     -24.466 -15.113   2.767  1.00  0.00     0.014 A 
HETATM   15  C   UNL     1     -25.140 -15.879   3.719  1.00  0.00     0.040 A 
HETATM   16  C   UNL     1     -24.465 -16.201   4.873  1.00  0.00     0.105 A 
HETATM   17  C   UNL     1     -23.162 -15.811   5.082  1.00  0.00     0.105 A 
HETATM   18  O   UNL     1     -24.965 -16.919   5.916  1.00  0.00    -0.323 OA
HETATM   19  C   UNL     1     -22.469 -15.064   4.152  1.00  0.00     0.051 A 
HETATM   20  O   UNL     1     -22.682 -16.238   6.281  1.00  0.00    -0.323 OA
HETATM   21  C   UNL     1     -23.851 -16.879   6.834  1.00  0.00     0.352 A 
ENDBRANCH   2  13
TORSDOF 3
ENDMDL
MODEL 8
REMARK VINA RESULT:      -6.6     16.138     18.478
REMARK  3 active torsions:
REMARK  status: ('A' for Active; 'I' for Inactive)
REMARK    1  A    between atoms: C_2  and  C_3 
REMARK       I    between atoms: C_2  and  N_16 
REMARK    2  A    between atoms: C_4  and  C_5 
REMARK    3  A    between atoms: C_6  and  C_7 
ROOT
HETATM    1  C   UNL     1     -21.869   9.371   2.309  1.00  0.00     0.001 C 
HETATM    2  C   UNL     1     -20.847   8.518   2.517  1.00  0.00     0.011 C 
ENDROOT
BRANCH   1   3
HETATM    3  C   UNL     1     -23.066   9.015   1.573  1.00  0.00     0.005 C 
HETATM    4  C   UNL     1     -23.060   8.271   0.465  1.00  0.00     0.074 C 
BRANCH   4   5
HETATM    5  C   UNL     1     -24.336   8.131  -0.285  1.00  0.00     0.243 C 
HETATM    6  O   UNL     1     -25.407   8.386   0.260  1.00  0.00    -0.268 OA
HETATM    7  N   UNL     1     -24.221   7.745  -1.609  1.00  0.00    -0.349 N 
HETATM    8  C   UNL     1     -22.982   7.414  -2.305  1.00  0.00     0.126 C 
HETATM    9  C   UNL     1     -25.432   7.552  -2.393  1.00  0.00     0.126 C 
HETATM   10  C   UNL     1     -22.856   8.179  -3.626  1.00  0.00     0.020 C 
HETATM   11  C   UNL     1     -24.125   8.083  -4.478  1.00  0.00     0.003 C 
HETATM   12  C   UNL     1     -25.380   8.393  -3.662  1.00  0.00     0.020 C 
ENDBRANCH   4   5
ENDBRANCH   1   3
BRANCH   2  13
HETATM   13  C   UNL     1     -19.635   8.860   3.279  1.00  0.00    -0.033 A 
HETATM   14  C   UNL     1     -19.628   8.890   4.693  1.00  0.00     0.014 A 
HETATM   15  C   UNL     1     -18.480   9.229   5.411  1.00  0.00     0.040 A 
HETATM   16  C   UNL     1     -17.345   9.529   4.694  1.00  0.00     0.105 A 
HETATM   17  C   UNL     1     -17.322   9.475   3.319  1.00  0.00     0.105 A 
HETATM   18  O   UNL     1     -16.146   9.899   5.219  1.00  0.00    -0.323 OA
HETATM   19  C   UNL     1     -18.440   9.132   2.586  1.00  0.00     0.051 A 
HETATM   20  O   UNL     1     -16.104   9.803   2.812  1.00  0.00    -0.323 OA
HETATM   21  C   UNL     1     -15.383  10.137   4.017  1.00  0.00     0.352 A 
ENDBRANCH   2  13
TORSDOF 3
ENDMDL
MODEL 9
REMARK VINA RESULT:      -6.6      5.655      8.183
REMARK  3 active torsions:
REMARK  status: ('A' for Active; 'I' for Inactive)
REMARK    1  A    between atoms: C_2  and  C_3 
REMARK       I    between atoms: C_2  and  N_16 
REMARK    2  A    between atoms: C_4  and  C_5 
REMARK    3  A    between atoms: C_6  and  C_7 
ROOT
HETATM    1  C   UNL     1     -17.144  -9.516  -2.780  1.00  0.00     0.001 C 
HETATM    2  C   UNL     1     -18.375  -9.819  -3.239  1.00  0.00     0.011 C 
ENDROOT
BRANCH   1   3
HETATM    3  C   UNL     1     -16.129 -10.514  -2.506  1.00  0.00     0.005 C 
HETATM    4  C   UNL     1     -16.347 -11.830  -2.572  1.00  0.00     0.074 C 
BRANCH   4   5
HETATM    5  C   UNL     1     -15.271 -12.737  -2.096  1.00  0.00     0.243 C 
HETATM    6  O   UNL     1     -14.266 -12.921  -2.780  1.00  0.00    -0.268 OA
HETATM    7  N   UNL     1     -15.464 -13.304  -0.848  1.00  0.00    -0.349 N 
HETATM    8  C   UNL     1     -16.640 -13.136   0.000  1.00  0.00     0.126 C 
HETATM    9  C   UNL     1     -14.468 -14.233  -0.335  1.00  0.00     0.126 C 
HETATM   10  C   UNL     1     -16.253 -12.725   1.424  1.00  0.00     0.020 C 
HETATM   11  C   UNL     1     -15.151 -13.615   2.008  1.00  0.00     0.003 C 
HETATM   12  C   UNL     1     -13.983 -13.782   1.036  1.00  0.00     0.020 C 
ENDBRANCH   4   5
ENDBRANCH   1   3
BRANCH   2  13
HETATM   13  C   UNL     1     -19.408  -8.814  -3.539  1.00  0.00    -0.033 A 
HETATM   14  C   UNL     1     -20.230  -8.267  -2.527  1.00  0.00     0.014 A 
HETATM   15  C   UNL     1     -21.218  -7.325  -2.818  1.00  0.00     0.040 A 
HETATM   16  C   UNL     1     -21.362  -6.937  -4.130  1.00  0.00     0.105 A 
HETATM   17  C   UNL     1     -20.551  -7.433  -5.124  1.00  0.00     0.105 A 
HETATM   18  O   UNL     1     -22.279  -6.050  -4.602  1.00  0.00    -0.323 OA
HETATM   19  C   UNL     1     -19.560  -8.357  -4.862  1.00  0.00     0.051 A 
HETATM   20  O   UNL     1     -20.858  -6.916  -6.345  1.00  0.00    -0.323 OA
HETATM   21  C   UNL     1     -21.998  -6.094  -6.017  1.00  0.00     0.352 A 
ENDBRANCH   2  13
TORSDOF 3
ENDMDL
