REMARK  6 active torsions:
REMARK  status: ('A' for Active; 'I' for Inactive)
REMARK    1  A    between atoms: C_2  and  O_4 
REMARK    2  A    between atoms: C_2  and  C_5 
REMARK    3  A    between atoms: C_10  and  C_11 
REMARK    4  A    between atoms: C_17  and  C_18 
REMARK    5  A    between atoms: C_19  and  C_20 
REMARK    6  A    between atoms: C_23  and  C_24 
ROOT
HETATM    1  C   UNL     1       0.790  -2.624  -0.038  1.00  0.00    -0.023 C 
HETATM    2  C   UNL     1      -0.202  -1.925  -0.779  1.00  0.00     0.014 C 
HETATM    3  C   UNL     1      -1.488  -1.678  -0.302  1.00  0.00     0.033 C 
HETATM    4  C   UNL     1      -1.871  -2.293   0.878  1.00  0.00     0.060 A 
HETATM    5  N   UNL     1      -3.058  -2.188   1.512  1.00  0.00    -0.341 N 
ATOM      6  HN  UNL     1      -3.832  -1.572   1.263  1.00  0.00     0.167 HD
HETATM    7  C   UNL     1      -3.017  -3.040   2.517  1.00  0.00     0.106 A 
HETATM    8  N   UNL     1      -1.788  -3.669   2.558  1.00  0.00    -0.341 N 
HETATM    9  C   UNL     1      -1.011  -3.156   1.532  1.00  0.00     0.061 A 
HETATM   10  C   UNL     1       0.327  -3.323   1.106  1.00  0.00     0.044 C 
HETATM   11  H   UNL     1      -1.507  -4.384   3.213  1.00  0.00     0.167 HD
ENDROOT
BRANCH   7  12
HETATM   12  C   UNL     1      -4.071  -3.285   3.439  1.00  0.00     0.049 C 
HETATM   13  C   UNL     1      -5.111  -2.429   3.346  1.00  0.00     0.015 C 
BRANCH  13  14
HETATM   14  C   UNL     1      -6.351  -2.325   4.116  1.00  0.00    -0.036 A 
HETATM   15  C   UNL     1      -6.873  -1.034   4.296  1.00  0.00     0.012 A 
HETATM   16  C   UNL     1      -8.054  -0.828   5.009  1.00  0.00     0.017 A 
HETATM   17  C   UNL     1      -8.746  -1.915   5.546  1.00  0.00     0.048 A 
HETATM   18  C   UNL     1      -8.264  -3.214   5.304  1.00  0.00     0.017 A 
HETATM   19  C   UNL     1      -7.073  -3.419   4.591  1.00  0.00     0.012 A 
BRANCH  17  20
HETATM   20  C   UNL     1      -9.982  -1.698   6.383  1.00  0.00     0.417 C 
HETATM   21  F   UNL     1     -10.304  -0.385   6.555  1.00  0.00    -0.166 F 
HETATM   22  F   UNL     1     -11.088  -2.286   5.851  1.00  0.00    -0.166 F 
HETATM   23  F   UNL     1      -9.850  -2.215   7.638  1.00  0.00    -0.166 F 
ENDBRANCH  17  20
ENDBRANCH  13  14
ENDBRANCH   7  12
BRANCH   1  24
HETATM   24  C   UNL     1       2.245  -2.415  -0.449  1.00  0.00    -0.017 A 
HETATM   25  C   UNL     1       3.389  -3.244  -0.233  1.00  0.00    -0.014 A 
HETATM   26  C   UNL     1       4.679  -2.711  -0.598  1.00  0.00     0.011 A 
HETATM   27  C   UNL     1       4.856  -1.487  -1.232  1.00  0.00     0.001 A 
HETATM   28  C   UNL     1       3.759  -0.718  -1.517  1.00  0.00     0.001 A 
HETATM   29  C   UNL     1       2.510  -1.162  -1.102  1.00  0.00     0.013 A 
BRANCH  25  30
HETATM   30  C   UNL     1       3.403  -4.666   0.354  1.00  0.00     0.078 C 
HETATM   31  C   UNL     1       3.605  -4.634   1.879  1.00  0.00     0.051 C 
HETATM   32  C   UNL     1       4.515  -5.577  -0.225  1.00  0.00     0.051 C 
BRANCH  30  33
HETATM   33  O   UNL     1       2.185  -5.337   0.030  1.00  0.00    -0.386 OA
HETATM   34  H   UNL     1       2.159  -6.176   0.516  1.00  0.00     0.211 HD
ENDBRANCH  30  33
ENDBRANCH  25  30
ENDBRANCH   1  24
TORSDOF 6
