MODEL 1
REMARK VINA RESULT:     -10.7      0.000      0.000
REMARK  6 active torsions:
REMARK  status: ('A' for Active; 'I' for Inactive)
REMARK    1  A    between atoms: C_2  and  O_4 
REMARK    2  A    between atoms: C_2  and  C_5 
REMARK    3  A    between atoms: C_10  and  C_11 
REMARK    4  A    between atoms: C_17  and  C_18 
REMARK    5  A    between atoms: C_19  and  C_20 
REMARK    6  A    between atoms: C_23  and  C_24 
ROOT
HETATM    1  C   UNL     1     -21.602  -9.693  -0.753  1.00  0.00    -0.023 C 
HETATM    2  C   UNL     1     -22.088  -8.553  -0.057  1.00  0.00     0.014 C 
HETATM    3  C   UNL     1     -22.276  -7.308  -0.655  1.00  0.00     0.033 C 
HETATM    4  C   UNL     1     -21.803  -7.130  -1.945  1.00  0.00     0.060 A 
HETATM    5  N   UNL     1     -21.883  -6.017  -2.703  1.00  0.00    -0.341 N 
ATOM      6  HN  UNL     1     -22.379  -5.155  -2.475  1.00  0.00     0.167 HD
HETATM    7  C   UNL     1     -21.193  -6.265  -3.798  1.00  0.00     0.106 A 
HETATM    8  N   UNL     1     -20.698  -7.554  -3.767  1.00  0.00    -0.341 N 
HETATM    9  C   UNL     1     -21.130  -8.150  -2.593  1.00  0.00     0.061 A 
HETATM   10  C   UNL     1     -21.034  -9.442  -2.028  1.00  0.00     0.044 C 
HETATM   11  H   UNL     1     -20.115  -7.985  -4.470  1.00  0.00     0.167 HD
ENDROOT
BRANCH   7  12
HETATM   12  C   UNL     1     -20.983  -5.354  -4.870  1.00  0.00     0.049 C 
HETATM   13  C   UNL     1     -21.561  -5.713  -6.036  1.00  0.00     0.015 C 
BRANCH  13  14
HETATM   14  C   UNL     1     -21.558  -5.078  -7.354  1.00  0.00    -0.036 A 
HETATM   15  C   UNL     1     -20.373  -5.184  -8.100  1.00  0.00     0.012 A 
HETATM   16  C   UNL     1     -20.269  -4.618  -9.371  1.00  0.00     0.017 A 
HETATM   17  C   UNL     1     -21.358  -3.946  -9.928  1.00  0.00     0.048 A 
HETATM   18  C   UNL     1     -22.569  -3.903  -9.213  1.00  0.00     0.017 A 
HETATM   19  C   UNL     1     -22.669  -4.467  -7.933  1.00  0.00     0.012 A 
BRANCH  17  20
HETATM   20  C   UNL     1     -21.233  -3.266 -11.269  1.00  0.00     0.417 C 
HETATM   21  F   UNL     1     -21.472  -4.091 -12.327  1.00  0.00    -0.166 F 
HETATM   22  F   UNL     1     -22.093  -2.220 -11.411  1.00  0.00    -0.166 F 
HETATM   23  F   UNL     1     -19.986  -2.754 -11.471  1.00  0.00    -0.166 F 
ENDBRANCH  17  20
ENDBRANCH  13  14
ENDBRANCH   7  12
BRANCH   1  24
HETATM   24  C   UNL     1     -21.889 -11.061  -0.139  1.00  0.00    -0.017 A 
HETATM   25  C   UNL     1     -21.008 -12.157   0.116  1.00  0.00    -0.014 A 
HETATM   26  C   UNL     1     -21.596 -13.396   0.564  1.00  0.00     0.011 A 
HETATM   27  C   UNL     1     -22.947 -13.549   0.852  1.00  0.00     0.001 A 
HETATM   28  C   UNL     1     -23.789 -12.482   0.688  1.00  0.00     0.001 A 
HETATM   29  C   UNL     1     -23.271 -11.299   0.177  1.00  0.00     0.013 A 
BRANCH  25  30
HETATM   30  C   UNL     1     -19.477 -12.167  -0.035  1.00  0.00     0.078 C 
HETATM   31  C   UNL     1     -19.064 -11.970  -1.504  1.00  0.00     0.051 C 
HETATM   32  C   UNL     1     -18.804 -13.478   0.446  1.00  0.00     0.051 C 
BRANCH  30  33
HETATM   33  O   UNL     1     -18.902 -11.148   0.783  1.00  0.00    -0.386 OA
HETATM   34  H   UNL     1     -17.954 -11.331   0.878  1.00  0.00     0.211 HD
ENDBRANCH  30  33
ENDBRANCH  25  30
ENDBRANCH   1  24
TORSDOF 6
ENDMDL
MODEL 2
REMARK VINA RESULT:     -10.0      1.293      2.321
REMARK  6 active torsions:
REMARK  status: ('A' for Active; 'I' for Inactive)
REMARK    1  A    between atoms: C_2  and  O_4 
REMARK    2  A    between atoms: C_2  and  C_5 
REMARK    3  A    between atoms: C_10  and  C_11 
REMARK    4  A    between atoms: C_17  and  C_18 
REMARK    5  A    between atoms: C_19  and  C_20 
REMARK    6  A    between atoms: C_23  and  C_24 
ROOT
HETATM    1  C   UNL     1     -20.815  -9.929  -1.104  1.00  0.00    -0.023 C 
HETATM    2  C   UNL     1     -21.416  -8.908  -0.318  1.00  0.00     0.014 C 
HETATM    3  C   UNL     1     -21.804  -7.671  -0.829  1.00  0.00     0.033 C 
HETATM    4  C   UNL     1     -21.427  -7.358  -2.125  1.00  0.00     0.060 A 
HETATM    5  N   UNL     1     -21.699  -6.226  -2.809  1.00  0.00    -0.341 N 
ATOM      6  HN  UNL     1     -22.296  -5.457  -2.506  1.00  0.00     0.167 HD
HETATM    7  C   UNL     1     -21.038  -6.315  -3.946  1.00  0.00     0.106 A 
HETATM    8  N   UNL     1     -20.370  -7.521  -4.016  1.00  0.00    -0.341 N 
HETATM    9  C   UNL     1     -20.655  -8.235  -2.863  1.00  0.00     0.061 A 
HETATM   10  C   UNL     1     -20.353  -9.531  -2.384  1.00  0.00     0.044 C 
HETATM   11  H   UNL     1     -19.771  -7.827  -4.769  1.00  0.00     0.167 HD
ENDROOT
BRANCH   7  12
HETATM   12  C   UNL     1     -21.011  -5.326  -4.967  1.00  0.00     0.049 C 
HETATM   13  C   UNL     1     -21.334  -5.778  -6.198  1.00  0.00     0.015 C 
BRANCH  13  14
HETATM   14  C   UNL     1     -21.393  -5.100  -7.493  1.00  0.00    -0.036 A 
HETATM   15  C   UNL     1     -20.236  -5.157  -8.287  1.00  0.00     0.012 A 
HETATM   16  C   UNL     1     -20.193  -4.548  -9.541  1.00  0.00     0.017 A 
HETATM   17  C   UNL     1     -21.316  -3.880 -10.034  1.00  0.00     0.048 A 
HETATM   18  C   UNL     1     -22.498  -3.885  -9.272  1.00  0.00     0.017 A 
HETATM   19  C   UNL     1     -22.538  -4.493  -8.009  1.00  0.00     0.012 A 
BRANCH  17  20
HETATM   20  C   UNL     1     -21.256  -3.154 -11.355  1.00  0.00     0.417 C 
HETATM   21  F   UNL     1     -22.144  -2.125 -11.455  1.00  0.00    -0.166 F 
HETATM   22  F   UNL     1     -20.032  -2.615 -11.605  1.00  0.00    -0.166 F 
HETATM   23  F   UNL     1     -21.524  -3.979 -12.407  1.00  0.00    -0.166 F 
ENDBRANCH  17  20
ENDBRANCH  13  14
ENDBRANCH   7  12
BRANCH   1  24
HETATM   24  C   UNL     1     -20.879 -11.355  -0.563  1.00  0.00    -0.017 A 
HETATM   25  C   UNL     1     -22.001 -12.225  -0.397  1.00  0.00    -0.014 A 
HETATM   26  C   UNL     1     -21.782 -13.472   0.294  1.00  0.00     0.011 A 
HETATM   27  C   UNL     1     -20.533 -13.912   0.715  1.00  0.00     0.001 A 
HETATM   28  C   UNL     1     -19.437 -13.122   0.490  1.00  0.00     0.001 A 
HETATM   29  C   UNL     1     -19.624 -11.877  -0.096  1.00  0.00     0.013 A 
BRANCH  25  30
HETATM   30  C   UNL     1     -23.441 -11.979  -0.879  1.00  0.00     0.078 C 
HETATM   31  C   UNL     1     -23.458 -11.440  -2.320  1.00  0.00     0.051 C 
HETATM   32  C   UNL     1     -24.233 -10.967  -0.014  1.00  0.00     0.051 C 
BRANCH  30  33
HETATM   33  O   UNL     1     -24.194 -13.189  -0.795  1.00  0.00    -0.386 OA
HETATM   34  H   UNL     1     -25.117 -12.992  -1.018  1.00  0.00     0.211 HD
ENDBRANCH  30  33
ENDBRANCH  25  30
ENDBRANCH   1  24
TORSDOF 6
ENDMDL
MODEL 3
REMARK VINA RESULT:      -9.7      6.098     11.439
REMARK  6 active torsions:
REMARK  status: ('A' for Active; 'I' for Inactive)
REMARK    1  A    between atoms: C_2  and  O_4 
REMARK    2  A    between atoms: C_2  and  C_5 
REMARK    3  A    between atoms: C_10  and  C_11 
REMARK    4  A    between atoms: C_17  and  C_18 
REMARK    5  A    between atoms: C_19  and  C_20 
REMARK    6  A    between atoms: C_23  and  C_24 
ROOT
HETATM    1  C   UNL     1     -21.341  -5.263  -7.282  1.00  0.00    -0.023 C 
HETATM    2  C   UNL     1     -20.867  -4.465  -6.205  1.00  0.00     0.014 C 
HETATM    3  C   UNL     1     -20.453  -4.989  -4.982  1.00  0.00     0.033 C 
HETATM    4  C   UNL     1     -20.678  -6.335  -4.744  1.00  0.00     0.060 A 
HETATM    5  N   UNL     1     -20.356  -7.039  -3.639  1.00  0.00    -0.341 N 
ATOM      6  HN  UNL     1     -19.820  -6.707  -2.836  1.00  0.00     0.167 HD
HETATM    7  C   UNL     1     -20.870  -8.242  -3.804  1.00  0.00     0.106 A 
HETATM    8  N   UNL     1     -21.492  -8.329  -5.034  1.00  0.00    -0.341 N 
HETATM    9  C   UNL     1     -21.330  -7.115  -5.681  1.00  0.00     0.061 A 
HETATM   10  C   UNL     1     -21.654  -6.609  -6.962  1.00  0.00     0.044 C 
HETATM   11  H   UNL     1     -21.987  -9.131  -5.395  1.00  0.00     0.167 HD
ENDROOT
BRANCH   7  12
HETATM   12  C   UNL     1     -20.800  -9.308  -2.867  1.00  0.00     0.049 C 
HETATM   13  C   UNL     1     -21.984  -9.655  -2.318  1.00  0.00     0.015 C 
BRANCH  13  14
HETATM   14  C   UNL     1     -22.327 -10.661  -1.313  1.00  0.00    -0.036 A 
HETATM   15  C   UNL     1     -21.310 -11.028  -0.417  1.00  0.00     0.012 A 
HETATM   16  C   UNL     1     -21.537 -11.974   0.583  1.00  0.00     0.017 A 
HETATM   17  C   UNL     1     -22.796 -12.563   0.716  1.00  0.00     0.048 A 
HETATM   18  C   UNL     1     -23.836 -12.143  -0.133  1.00  0.00     0.017 A 
HETATM   19  C   UNL     1     -23.604 -11.195  -1.142  1.00  0.00     0.012 A 
BRANCH  17  20
HETATM   20  C   UNL     1     -23.032 -13.641   1.744  1.00  0.00     0.417 C 
HETATM   21  F   UNL     1     -22.003 -13.793   2.625  1.00  0.00    -0.166 F 
HETATM   22  F   UNL     1     -24.140 -13.414   2.500  1.00  0.00    -0.166 F 
HETATM   23  F   UNL     1     -23.213 -14.866   1.172  1.00  0.00    -0.166 F 
ENDBRANCH  17  20
ENDBRANCH  13  14
ENDBRANCH   7  12
BRANCH   1  24
HETATM   24  C   UNL     1     -21.304  -4.646  -8.678  1.00  0.00    -0.017 A 
HETATM   25  C   UNL     1     -22.377  -4.249  -9.535  1.00  0.00    -0.014 A 
HETATM   26  C   UNL     1     -22.042  -3.838 -10.877  1.00  0.00     0.011 A 
HETATM   27  C   UNL     1     -20.739  -3.715 -11.343  1.00  0.00     0.001 A 
HETATM   28  C   UNL     1     -19.699  -4.015 -10.504  1.00  0.00     0.001 A 
HETATM   29  C   UNL     1     -19.987  -4.496  -9.234  1.00  0.00     0.013 A 
BRANCH  25  30
HETATM   30  C   UNL     1     -23.874  -4.210  -9.185  1.00  0.00     0.078 C 
HETATM   31  C   UNL     1     -24.593  -5.476  -9.682  1.00  0.00     0.051 C 
HETATM   32  C   UNL     1     -24.632  -3.000  -9.789  1.00  0.00     0.051 C 
BRANCH  30  33
HETATM   33  O   UNL     1     -24.040  -4.068  -7.774  1.00  0.00    -0.386 OA
HETATM   34  H   UNL     1     -24.904  -4.434  -7.529  1.00  0.00     0.211 HD
ENDBRANCH  30  33
ENDBRANCH  25  30
ENDBRANCH   1  24
TORSDOF 6
ENDMDL
MODEL 4
REMARK VINA RESULT:      -9.7      1.196      1.837
REMARK  6 active torsions:
REMARK  status: ('A' for Active; 'I' for Inactive)
REMARK    1  A    between atoms: C_2  and  O_4 
REMARK    2  A    between atoms: C_2  and  C_5 
REMARK    3  A    between atoms: C_10  and  C_11 
REMARK    4  A    between atoms: C_17  and  C_18 
REMARK    5  A    between atoms: C_19  and  C_20 
REMARK    6  A    between atoms: C_23  and  C_24 
ROOT
HETATM    1  C   UNL     1     -21.011 -10.683  -0.132  1.00  0.00    -0.023 C 
HETATM    2  C   UNL     1     -21.204  -9.581   0.745  1.00  0.00     0.014 C 
HETATM    3  C   UNL     1     -21.484  -8.287   0.307  1.00  0.00     0.033 C 
HETATM    4  C   UNL     1     -21.399  -8.030  -1.050  1.00  0.00     0.060 A 
HETATM    5  N   UNL     1     -21.631  -6.860  -1.681  1.00  0.00    -0.341 N 
ATOM      6  HN  UNL     1     -21.987  -6.000  -1.264  1.00  0.00     0.167 HD
HETATM    7  C   UNL     1     -21.307  -7.050  -2.945  1.00  0.00     0.106 A 
HETATM    8  N   UNL     1     -20.902  -8.356  -3.141  1.00  0.00    -0.341 N 
HETATM    9  C   UNL     1     -21.007  -9.022  -1.931  1.00  0.00     0.061 A 
HETATM   10  C   UNL     1     -20.826 -10.357  -1.500  1.00  0.00     0.044 C 
HETATM   11  H   UNL     1     -20.577  -8.754  -4.010  1.00  0.00     0.167 HD
ENDROOT
BRANCH   7  12
HETATM   12  C   UNL     1     -21.365  -6.069  -3.972  1.00  0.00     0.049 C 
HETATM   13  C   UNL     1     -21.145  -6.543  -5.217  1.00  0.00     0.015 C 
BRANCH  13  14
HETATM   14  C   UNL     1     -21.091  -5.868  -6.514  1.00  0.00    -0.036 A 
HETATM   15  C   UNL     1     -22.208  -5.095  -6.868  1.00  0.00     0.012 A 
HETATM   16  C   UNL     1     -22.252  -4.406  -8.080  1.00  0.00     0.017 A 
HETATM   17  C   UNL     1     -21.169  -4.467  -8.959  1.00  0.00     0.048 A 
HETATM   18  C   UNL     1     -20.021  -5.181  -8.574  1.00  0.00     0.017 A 
HETATM   19  C   UNL     1     -19.980  -5.877  -7.357  1.00  0.00     0.012 A 
BRANCH  17  20
HETATM   20  C   UNL     1     -21.237  -3.789 -10.305  1.00  0.00     0.417 C 
HETATM   21  F   UNL     1     -20.183  -2.962 -10.556  1.00  0.00    -0.166 F 
HETATM   22  F   UNL     1     -21.271  -4.674 -11.339  1.00  0.00    -0.166 F 
HETATM   23  F   UNL     1     -22.354  -3.017 -10.436  1.00  0.00    -0.166 F 
ENDBRANCH  17  20
ENDBRANCH  13  14
ENDBRANCH   7  12
BRANCH   1  24
HETATM   24  C   UNL     1     -21.186 -12.081   0.454  1.00  0.00    -0.017 A 
HETATM   25  C   UNL     1     -20.293 -13.196   0.454  1.00  0.00    -0.014 A 
HETATM   26  C   UNL     1     -20.795 -14.455   0.949  1.00  0.00     0.011 A 
HETATM   27  C   UNL     1     -22.056 -14.614   1.511  1.00  0.00     0.001 A 
HETATM   28  C   UNL     1     -22.893 -13.533   1.590  1.00  0.00     0.001 A 
HETATM   29  C   UNL     1     -22.474 -12.327   1.044  1.00  0.00     0.013 A 
BRANCH  25  30
HETATM   30  C   UNL     1     -18.830 -13.209  -0.022  1.00  0.00     0.078 C 
HETATM   31  C   UNL     1     -18.087 -11.941   0.436  1.00  0.00     0.051 C 
HETATM   32  C   UNL     1     -18.667 -13.291  -1.561  1.00  0.00     0.051 C 
BRANCH  30  33
HETATM   33  O   UNL     1     -18.169 -14.374   0.471  1.00  0.00    -0.386 OA
HETATM   34  H   UNL     1     -18.326 -15.102  -0.151  1.00  0.00     0.211 HD
ENDBRANCH  30  33
ENDBRANCH  25  30
ENDBRANCH   1  24
TORSDOF 6
ENDMDL
MODEL 5
REMARK VINA RESULT:      -8.8      2.352      3.787
REMARK  6 active torsions:
REMARK  status: ('A' for Active; 'I' for Inactive)
REMARK    1  A    between atoms: C_2  and  O_4 
REMARK    2  A    between atoms: C_2  and  C_5 
REMARK    3  A    between atoms: C_10  and  C_11 
REMARK    4  A    between atoms: C_17  and  C_18 
REMARK    5  A    between atoms: C_19  and  C_20 
REMARK    6  A    between atoms: C_23  and  C_24 
ROOT
HETATM    1  C   UNL     1     -22.178 -12.764   0.982  1.00  0.00    -0.023 C 
HETATM    2  C   UNL     1     -23.421 -12.609   0.308  1.00  0.00     0.014 C 
HETATM    3  C   UNL     1     -23.624 -11.709  -0.736  1.00  0.00     0.033 C 
HETATM    4  C   UNL     1     -22.616 -10.800  -1.014  1.00  0.00     0.060 A 
HETATM    5  N   UNL     1     -22.605  -9.853  -1.975  1.00  0.00    -0.341 N 
ATOM      6  HN  UNL     1     -23.306  -9.712  -2.703  1.00  0.00     0.167 HD
HETATM    7  C   UNL     1     -21.508  -9.147  -1.786  1.00  0.00     0.106 A 
HETATM    8  N   UNL     1     -20.788  -9.661  -0.725  1.00  0.00    -0.341 N 
HETATM    9  C   UNL     1     -21.467 -10.770  -0.246  1.00  0.00     0.061 A 
HETATM   10  C   UNL     1     -21.216 -11.750   0.742  1.00  0.00     0.044 C 
HETATM   11  H   UNL     1     -19.924  -9.290  -0.357  1.00  0.00     0.167 HD
ENDROOT
BRANCH   7  12
HETATM   12  C   UNL     1     -21.105  -8.021  -2.554  1.00  0.00     0.049 C 
HETATM   13  C   UNL     1     -21.481  -8.060  -3.850  1.00  0.00     0.015 C 
BRANCH  13  14
HETATM   14  C   UNL     1     -21.243  -7.130  -4.956  1.00  0.00    -0.036 A 
HETATM   15  C   UNL     1     -22.281  -6.234  -5.258  1.00  0.00     0.012 A 
HETATM   16  C   UNL     1     -22.151  -5.304  -6.289  1.00  0.00     0.017 A 
HETATM   17  C   UNL     1     -20.970  -5.242  -7.031  1.00  0.00     0.048 A 
HETATM   18  C   UNL     1     -19.903  -6.089  -6.682  1.00  0.00     0.017 A 
HETATM   19  C   UNL     1     -20.037  -7.028  -5.648  1.00  0.00     0.012 A 
BRANCH  17  20
HETATM   20  C   UNL     1     -20.847  -4.293  -8.197  1.00  0.00     0.417 C 
HETATM   21  F   UNL     1     -19.624  -3.699  -8.294  1.00  0.00    -0.166 F 
HETATM   22  F   UNL     1     -21.062  -4.900  -9.396  1.00  0.00    -0.166 F 
HETATM   23  F   UNL     1     -21.750  -3.273  -8.127  1.00  0.00    -0.166 F 
ENDBRANCH  17  20
ENDBRANCH  13  14
ENDBRANCH   7  12
BRANCH   1  24
HETATM   24  C   UNL     1     -21.956 -14.067   1.745  1.00  0.00    -0.017 A 
HETATM   25  C   UNL     1     -21.140 -15.195   1.420  1.00  0.00    -0.014 A 
HETATM   26  C   UNL     1     -21.250 -16.363   2.259  1.00  0.00     0.011 A 
HETATM   27  C   UNL     1     -22.025 -16.415   3.411  1.00  0.00     0.001 A 
HETATM   28  C   UNL     1     -22.750 -15.312   3.778  1.00  0.00     0.001 A 
HETATM   29  C   UNL     1     -22.735 -14.200   2.946  1.00  0.00     0.013 A 
BRANCH  25  30
HETATM   30  C   UNL     1     -20.139 -15.307   0.257  1.00  0.00     0.078 C 
HETATM   31  C   UNL     1     -18.907 -14.418   0.498  1.00  0.00     0.051 C 
HETATM   32  C   UNL     1     -20.723 -14.899  -1.120  1.00  0.00     0.051 C 
BRANCH  30  33
HETATM   33  O   UNL     1     -19.742 -16.668   0.088  1.00  0.00    -0.386 OA
HETATM   34  H   UNL     1     -19.693 -16.857  -0.862  1.00  0.00     0.211 HD
ENDBRANCH  30  33
ENDBRANCH  25  30
ENDBRANCH   1  24
TORSDOF 6
ENDMDL
MODEL 6
REMARK VINA RESULT:      -8.5      1.748      3.194
REMARK  6 active torsions:
REMARK  status: ('A' for Active; 'I' for Inactive)
REMARK    1  A    between atoms: C_2  and  O_4 
REMARK    2  A    between atoms: C_2  and  C_5 
REMARK    3  A    between atoms: C_10  and  C_11 
REMARK    4  A    between atoms: C_17  and  C_18 
REMARK    5  A    between atoms: C_19  and  C_20 
REMARK    6  A    between atoms: C_23  and  C_24 
ROOT
HETATM    1  C   UNL     1     -20.180 -11.721  -0.064  1.00  0.00    -0.023 C 
HETATM    2  C   UNL     1     -20.708 -10.805   0.887  1.00  0.00     0.014 C 
HETATM    3  C   UNL     1     -21.227  -9.557   0.548  1.00  0.00     0.033 C 
HETATM    4  C   UNL     1     -21.060  -9.118  -0.755  1.00  0.00     0.060 A 
HETATM    5  N   UNL     1     -21.484  -7.953  -1.290  1.00  0.00    -0.341 N 
ATOM      6  HN  UNL     1     -22.068  -7.249  -0.839  1.00  0.00     0.167 HD
HETATM    7  C   UNL     1     -20.994  -7.909  -2.513  1.00  0.00     0.106 A 
HETATM    8  N   UNL     1     -20.285  -9.063  -2.784  1.00  0.00    -0.341 N 
HETATM    9  C   UNL     1     -20.363  -9.883  -1.671  1.00  0.00     0.061 A 
HETATM   10  C   UNL     1     -19.931 -11.193  -1.357  1.00  0.00     0.044 C 
HETATM   11  H   UNL     1     -19.789  -9.269  -3.639  1.00  0.00     0.167 HD
ENDROOT
BRANCH   7  12
HETATM   12  C   UNL     1     -21.165  -6.841  -3.436  1.00  0.00     0.049 C 
HETATM   13  C   UNL     1     -20.972  -7.177  -4.729  1.00  0.00     0.015 C 
BRANCH  13  14
HETATM   14  C   UNL     1     -21.023  -6.380  -5.955  1.00  0.00    -0.036 A 
HETATM   15  C   UNL     1     -22.193  -5.634  -6.172  1.00  0.00     0.012 A 
HETATM   16  C   UNL     1     -22.337  -4.836  -7.306  1.00  0.00     0.017 A 
HETATM   17  C   UNL     1     -21.305  -4.757  -8.243  1.00  0.00     0.048 A 
HETATM   18  C   UNL     1     -20.105  -5.445  -7.991  1.00  0.00     0.017 A 
HETATM   19  C   UNL     1     -19.963  -6.252  -6.852  1.00  0.00     0.012 A 
BRANCH  17  20
HETATM   20  C   UNL     1     -21.481  -3.958  -9.511  1.00  0.00     0.417 C 
HETATM   21  F   UNL     1     -20.348  -3.319  -9.917  1.00  0.00    -0.166 F 
HETATM   22  F   UNL     1     -21.875  -4.723 -10.565  1.00  0.00    -0.166 F 
HETATM   23  F   UNL     1     -22.428  -2.986  -9.378  1.00  0.00    -0.166 F 
ENDBRANCH  17  20
ENDBRANCH  13  14
ENDBRANCH   7  12
BRANCH   1  24
HETATM   24  C   UNL     1     -20.094 -13.187   0.351  1.00  0.00    -0.017 A 
HETATM   25  C   UNL     1     -21.134 -14.142   0.569  1.00  0.00    -0.014 A 
HETATM   26  C   UNL     1     -20.761 -15.424   1.116  1.00  0.00     0.011 A 
HETATM   27  C   UNL     1     -19.446 -15.810   1.347  1.00  0.00     0.001 A 
HETATM   28  C   UNL     1     -18.433 -14.931   1.067  1.00  0.00     0.001 A 
HETATM   29  C   UNL     1     -18.763 -13.658   0.621  1.00  0.00     0.013 A 
BRANCH  25  30
HETATM   30  C   UNL     1     -22.634 -13.958   0.282  1.00  0.00     0.078 C 
HETATM   31  C   UNL     1     -22.858 -13.296  -1.089  1.00  0.00     0.051 C 
HETATM   32  C   UNL     1     -23.375 -13.084   1.326  1.00  0.00     0.051 C 
BRANCH  30  33
HETATM   33  O   UNL     1     -23.298 -15.221   0.336  1.00  0.00    -0.386 OA
HETATM   34  H   UNL     1     -23.547 -15.397   1.257  1.00  0.00     0.211 HD
ENDBRANCH  30  33
ENDBRANCH  25  30
ENDBRANCH   1  24
TORSDOF 6
ENDMDL
MODEL 7
REMARK VINA RESULT:      -8.5      8.280     12.453
REMARK  6 active torsions:
REMARK  status: ('A' for Active; 'I' for Inactive)
REMARK    1  A    between atoms: C_2  and  O_4 
REMARK    2  A    between atoms: C_2  and  C_5 
REMARK    3  A    between atoms: C_10  and  C_11 
REMARK    4  A    between atoms: C_17  and  C_18 
REMARK    5  A    between atoms: C_19  and  C_20 
REMARK    6  A    between atoms: C_23  and  C_24 
ROOT
HETATM    1  C   UNL     1     -19.723 -10.264  -1.517  1.00  0.00    -0.023 C 
HETATM    2  C   UNL     1     -20.172 -11.309  -0.664  1.00  0.00     0.014 C 
HETATM    3  C   UNL     1     -19.323 -12.258  -0.096  1.00  0.00     0.033 C 
HETATM    4  C   UNL     1     -18.006 -12.287  -0.522  1.00  0.00     0.060 A 
HETATM    5  N   UNL     1     -17.025 -13.114  -0.103  1.00  0.00    -0.341 N 
ATOM      6  HN  UNL     1     -17.081 -13.795   0.654  1.00  0.00     0.167 HD
HETATM    7  C   UNL     1     -15.981 -12.866  -0.869  1.00  0.00     0.106 A 
HETATM    8  N   UNL     1     -16.273 -11.850  -1.758  1.00  0.00    -0.341 N 
HETATM    9  C   UNL     1     -17.568 -11.425  -1.510  1.00  0.00     0.061 A 
HETATM   10  C   UNL     1     -18.399 -10.395  -2.008  1.00  0.00     0.044 C 
HETATM   11  H   UNL     1     -15.656 -11.487  -2.470  1.00  0.00     0.167 HD
ENDROOT
BRANCH   7  12
HETATM   12  C   UNL     1     -14.726 -13.532  -0.800  1.00  0.00     0.049 C 
HETATM   13  C   UNL     1     -14.217 -13.646   0.445  1.00  0.00     0.015 C 
BRANCH  13  14
HETATM   14  C   UNL     1     -12.963 -14.225   0.928  1.00  0.00    -0.036 A 
HETATM   15  C   UNL     1     -11.784 -13.542   0.592  1.00  0.00     0.012 A 
HETATM   16  C   UNL     1     -10.537 -14.008   1.010  1.00  0.00     0.017 A 
HETATM   17  C   UNL     1     -10.447 -15.164   1.787  1.00  0.00     0.048 A 
HETATM   18  C   UNL     1     -11.632 -15.808   2.186  1.00  0.00     0.017 A 
HETATM   19  C   UNL     1     -12.884 -15.341   1.761  1.00  0.00     0.012 A 
BRANCH  17  20
HETATM   20  C   UNL     1      -9.101 -15.719   2.180  1.00  0.00     0.417 C 
HETATM   21  F   UNL     1      -8.837 -15.625   3.514  1.00  0.00    -0.166 F 
HETATM   22  F   UNL     1      -8.962 -17.036   1.866  1.00  0.00    -0.166 F 
HETATM   23  F   UNL     1      -8.076 -15.074   1.553  1.00  0.00    -0.166 F 
ENDBRANCH  17  20
ENDBRANCH  13  14
ENDBRANCH   7  12
BRANCH   1  24
HETATM   24  C   UNL     1     -20.636  -9.051  -1.676  1.00  0.00    -0.017 A 
HETATM   25  C   UNL     1     -20.971  -8.301  -2.845  1.00  0.00    -0.014 A 
HETATM   26  C   UNL     1     -21.743  -7.095  -2.666  1.00  0.00     0.011 A 
HETATM   27  C   UNL     1     -22.255  -6.681  -1.442  1.00  0.00     0.001 A 
HETATM   28  C   UNL     1     -22.007  -7.436  -0.326  1.00  0.00     0.001 A 
HETATM   29  C   UNL     1     -21.196  -8.557  -0.448  1.00  0.00     0.013 A 
BRANCH  25  30
HETATM   30  C   UNL     1     -20.598  -8.637  -4.299  1.00  0.00     0.078 C 
HETATM   31  C   UNL     1     -21.300  -7.688  -5.285  1.00  0.00     0.051 C 
HETATM   32  C   UNL     1     -20.968 -10.080  -4.727  1.00  0.00     0.051 C 
BRANCH  30  33
HETATM   33  O   UNL     1     -19.182  -8.566  -4.466  1.00  0.00    -0.386 OA
HETATM   34  H   UNL     1     -18.871  -7.728  -4.090  1.00  0.00     0.211 HD
ENDBRANCH  30  33
ENDBRANCH  25  30
ENDBRANCH   1  24
TORSDOF 6
ENDMDL
MODEL 8
REMARK VINA RESULT:      -8.4      6.005     11.193
REMARK  6 active torsions:
REMARK  status: ('A' for Active; 'I' for Inactive)
REMARK    1  A    between atoms: C_2  and  O_4 
REMARK    2  A    between atoms: C_2  and  C_5 
REMARK    3  A    between atoms: C_10  and  C_11 
REMARK    4  A    between atoms: C_17  and  C_18 
REMARK    5  A    between atoms: C_19  and  C_20 
REMARK    6  A    between atoms: C_23  and  C_24 
ROOT
HETATM    1  C   UNL     1     -22.163  -4.868  -6.702  1.00  0.00    -0.023 C 
HETATM    2  C   UNL     1     -20.978  -4.320  -6.140  1.00  0.00     0.014 C 
HETATM    3  C   UNL     1     -20.278  -4.913  -5.090  1.00  0.00     0.033 C 
HETATM    4  C   UNL     1     -20.860  -5.995  -4.452  1.00  0.00     0.060 A 
HETATM    5  N   UNL     1     -20.356  -6.712  -3.425  1.00  0.00    -0.341 N 
ATOM      6  HN  UNL     1     -19.428  -6.619  -3.012  1.00  0.00     0.167 HD
HETATM    7  C   UNL     1     -21.303  -7.554  -3.063  1.00  0.00     0.106 A 
HETATM    8  N   UNL     1     -22.407  -7.411  -3.881  1.00  0.00    -0.341 N 
HETATM    9  C   UNL     1     -22.116  -6.438  -4.824  1.00  0.00     0.061 A 
HETATM   10  C   UNL     1     -22.777  -5.906  -5.955  1.00  0.00     0.044 C 
HETATM   11  H   UNL     1     -23.276  -7.917  -3.802  1.00  0.00     0.167 HD
ENDROOT
BRANCH   7  12
HETATM   12  C   UNL     1     -21.218  -8.487  -1.994  1.00  0.00     0.049 C 
HETATM   13  C   UNL     1     -22.189  -9.425  -1.985  1.00  0.00     0.015 C 
BRANCH  13  14
HETATM   14  C   UNL     1     -22.467 -10.522  -1.058  1.00  0.00    -0.036 A 
HETATM   15  C   UNL     1     -21.423 -10.898  -0.197  1.00  0.00     0.012 A 
HETATM   16  C   UNL     1     -21.589 -11.928   0.728  1.00  0.00     0.017 A 
HETATM   17  C   UNL     1     -22.812 -12.596   0.821  1.00  0.00     0.048 A 
HETATM   18  C   UNL     1     -23.881 -12.172   0.011  1.00  0.00     0.017 A 
HETATM   19  C   UNL     1     -23.710 -11.139  -0.923  1.00  0.00     0.012 A 
BRANCH  17  20
HETATM   20  C   UNL     1     -22.978 -13.761   1.764  1.00  0.00     0.417 C 
HETATM   21  F   UNL     1     -24.009 -13.611   2.644  1.00  0.00    -0.166 F 
HETATM   22  F   UNL     1     -23.210 -14.935   1.116  1.00  0.00    -0.166 F 
HETATM   23  F   UNL     1     -21.867 -13.967   2.527  1.00  0.00    -0.166 F 
ENDBRANCH  17  20
ENDBRANCH  13  14
ENDBRANCH   7  12
BRANCH   1  24
HETATM   24  C   UNL     1     -22.549  -4.407  -8.105  1.00  0.00    -0.017 A 
HETATM   25  C   UNL     1     -21.734  -4.196  -9.259  1.00  0.00    -0.014 A 
HETATM   26  C   UNL     1     -22.355  -3.599 -10.416  1.00  0.00     0.011 A 
HETATM   27  C   UNL     1     -23.712  -3.311 -10.500  1.00  0.00     0.001 A 
HETATM   28  C   UNL     1     -24.519  -3.582  -9.427  1.00  0.00     0.001 A 
HETATM   29  C   UNL     1     -23.939  -4.077  -8.267  1.00  0.00     0.013 A 
BRANCH  25  30
HETATM   30  C   UNL     1     -20.242  -4.541  -9.414  1.00  0.00     0.078 C 
HETATM   31  C   UNL     1     -19.357  -3.499  -8.709  1.00  0.00     0.051 C 
HETATM   32  C   UNL     1     -19.761  -4.616 -10.885  1.00  0.00     0.051 C 
BRANCH  30  33
HETATM   33  O   UNL     1     -19.988  -5.844  -8.887  1.00  0.00    -0.386 OA
HETATM   34  H   UNL     1     -19.502  -6.354  -9.554  1.00  0.00     0.211 HD
ENDBRANCH  30  33
ENDBRANCH  25  30
ENDBRANCH   1  24
TORSDOF 6
ENDMDL
MODEL 9
REMARK VINA RESULT:      -8.1      3.857      6.087
REMARK  6 active torsions:
REMARK  status: ('A' for Active; 'I' for Inactive)
REMARK    1  A    between atoms: C_2  and  O_4 
REMARK    2  A    between atoms: C_2  and  C_5 
REMARK    3  A    between atoms: C_10  and  C_11 
REMARK    4  A    between atoms: C_17  and  C_18 
REMARK    5  A    between atoms: C_19  and  C_20 
REMARK    6  A    between atoms: C_23  and  C_24 
ROOT
HETATM    1  C   UNL     1     -16.049 -12.534  -0.800  1.00  0.00    -0.023 C 
HETATM    2  C   UNL     1     -17.232 -13.086  -0.237  1.00  0.00     0.014 C 
HETATM    3  C   UNL     1     -18.517 -12.702  -0.615  1.00  0.00     0.033 C 
HETATM    4  C   UNL     1     -18.646 -11.608  -1.455  1.00  0.00     0.060 A 
HETATM    5  N   UNL     1     -19.787 -11.076  -1.942  1.00  0.00    -0.341 N 
ATOM      6  HN  UNL     1     -20.731 -11.448  -1.833  1.00  0.00     0.167 HD
HETATM    7  C   UNL     1     -19.438  -9.980  -2.586  1.00  0.00     0.106 A 
HETATM    8  N   UNL     1     -18.066  -9.823  -2.550  1.00  0.00    -0.341 N 
HETATM    9  C   UNL     1     -17.530 -10.902  -1.864  1.00  0.00     0.061 A 
HETATM   10  C   UNL     1     -16.224 -11.354  -1.567  1.00  0.00     0.044 C 
HETATM   11  H   UNL     1     -17.544  -9.054  -2.944  1.00  0.00     0.167 HD
ENDROOT
BRANCH   7  12
HETATM   12  C   UNL     1     -20.328  -9.081  -3.235  1.00  0.00     0.049 C 
HETATM   13  C   UNL     1     -19.791  -8.411  -4.277  1.00  0.00     0.015 C 
BRANCH  13  14
HETATM   14  C   UNL     1     -20.353  -7.397  -5.169  1.00  0.00    -0.036 A 
HETATM   15  C   UNL     1     -21.626  -6.903  -4.837  1.00  0.00     0.012 A 
HETATM   16  C   UNL     1     -22.247  -5.929  -5.618  1.00  0.00     0.017 A 
HETATM   17  C   UNL     1     -21.599  -5.417  -6.744  1.00  0.00     0.048 A 
HETATM   18  C   UNL     1     -20.295  -5.857  -7.036  1.00  0.00     0.017 A 
HETATM   19  C   UNL     1     -19.674  -6.840  -6.251  1.00  0.00     0.012 A 
BRANCH  17  20
HETATM   20  C   UNL     1     -22.291  -4.420  -7.639  1.00  0.00     0.417 C 
HETATM   21  F   UNL     1     -21.778  -3.161  -7.557  1.00  0.00    -0.166 F 
HETATM   22  F   UNL     1     -22.230  -4.762  -8.955  1.00  0.00    -0.166 F 
HETATM   23  F   UNL     1     -23.618  -4.300  -7.345  1.00  0.00    -0.166 F 
ENDBRANCH  17  20
ENDBRANCH  13  14
ENDBRANCH   7  12
BRANCH   1  24
HETATM   24  C   UNL     1     -14.765 -13.347  -0.661  1.00  0.00    -0.017 A 
HETATM   25  C   UNL     1     -13.997 -14.028  -1.655  1.00  0.00    -0.014 A 
HETATM   26  C   UNL     1     -12.904 -14.855  -1.204  1.00  0.00     0.011 A 
HETATM   27  C   UNL     1     -12.502 -14.946   0.124  1.00  0.00     0.001 A 
HETATM   28  C   UNL     1     -13.181 -14.234   1.077  1.00  0.00     0.001 A 
HETATM   29  C   UNL     1     -14.292 -13.495   0.689  1.00  0.00     0.013 A 
BRANCH  25  30
HETATM   30  C   UNL     1     -14.204 -13.980  -3.178  1.00  0.00     0.078 C 
HETATM   31  C   UNL     1     -13.341 -15.036  -3.889  1.00  0.00     0.051 C 
HETATM   32  C   UNL     1     -13.855 -12.613  -3.819  1.00  0.00     0.051 C 
BRANCH  30  33
HETATM   33  O   UNL     1     -15.584 -14.179  -3.487  1.00  0.00    -0.386 OA
HETATM   34  H   UNL     1     -16.080 -13.400  -3.188  1.00  0.00     0.211 HD
ENDBRANCH  30  33
ENDBRANCH  25  30
ENDBRANCH   1  24
TORSDOF 6
ENDMDL
