REMARK  4 active torsions:
REMARK  status: ('A' for Active; 'I' for Inactive)
REMARK       I    between atoms: C_2  and  N_3 
REMARK       I    between atoms: C_2  and  N_15 
REMARK    1  A    between atoms: N_3  and  C_4 
REMARK    2  A    between atoms: C_4  and  C_5 
REMARK    3  A    between atoms: C_8  and  C_9 
REMARK    4  A    between atoms: N_15  and  C_16 
ROOT
HETATM    1  O   UNL     1       1.391   0.156  -0.356  1.00  0.00    -0.247 OA
HETATM    2  C   UNL     1       2.602   0.329  -0.292  1.00  0.00     0.321 C 
HETATM    3  N   UNL     1       3.198   0.765   0.866  1.00  0.00    -0.339 N 
HETATM    4  N   UNL     1       3.513   0.144  -1.317  1.00  0.00    -0.308 N 
HETATM    5  H   UNL     1       4.190   0.932   0.903  1.00  0.00     0.164 HD
HETATM    6  H   UNL     1       4.399   0.607  -1.206  1.00  0.00     0.170 HD
ENDROOT
BRANCH   3   7
HETATM    7  C   UNL     1       2.407   1.070   2.043  1.00  0.00     0.162 C 
BRANCH   7   8
HETATM    8  C   UNL     1       2.789   0.214   3.226  1.00  0.00    -0.040 A 
HETATM    9  C   UNL     1       3.264   0.799   4.407  1.00  0.00     0.009 A 
HETATM   10  C   UNL     1       3.584   0.009   5.516  1.00  0.00     0.017 A 
HETATM   11  C   UNL     1       3.433  -1.384   5.468  1.00  0.00     0.047 A 
HETATM   12  C   UNL     1       2.942  -1.968   4.290  1.00  0.00     0.017 A 
HETATM   13  C   UNL     1       2.621  -1.177   3.183  1.00  0.00     0.009 A 
BRANCH  11  14
HETATM   14  C   UNL     1       3.787  -2.250   6.652  1.00  0.00     0.417 C 
HETATM   15  F   UNL     1       4.249  -1.546   7.724  1.00  0.00    -0.166 F 
HETATM   16  F   UNL     1       2.728  -2.972   7.111  1.00  0.00    -0.166 F 
HETATM   17  F   UNL     1       4.760  -3.159   6.360  1.00  0.00    -0.166 F 
ENDBRANCH  11  14
ENDBRANCH   7   8
ENDBRANCH   3   7
BRANCH   4  18
HETATM   18  C   UNL     1       3.167  -0.254  -2.651  1.00  0.00     0.047 C 
HETATM   19  C   UNL     1       1.936  -0.885  -2.911  1.00  0.00     0.030 C 
HETATM   20  C   UNL     1       1.498  -1.114  -4.210  1.00  0.00     0.003 C 
HETATM   21  C   UNL     1       2.252  -0.665  -5.281  1.00  0.00     0.014 C 
HETATM   22  C   UNL     1       3.510  -0.092  -5.062  1.00  0.00    -0.008 C 
HETATM   23  C   UNL     1       4.277   0.356  -6.140  1.00  0.00     0.100 C 
HETATM   24  C   UNL     1       4.035   0.040  -3.754  1.00  0.00     0.004 C 
HETATM   25  N   UNL     1       5.558   0.766  -6.047  1.00  0.00    -0.374 N 
HETATM   26  C   UNL     1       6.098   0.744  -4.814  1.00  0.00     0.088 C 
ATOM     27  HN  UNL     1       6.087   1.075  -6.863  1.00  0.00     0.164 HD
HETATM   28  C   UNL     1       5.386   0.439  -3.659  1.00  0.00     0.031 C 
ENDBRANCH   4  18
TORSDOF 4
