MODEL 1
REMARK VINA RESULT:     -10.4      0.000      0.000
REMARK  4 active torsions:
REMARK  status: ('A' for Active; 'I' for Inactive)
REMARK       I    between atoms: C_2  and  N_3 
REMARK       I    between atoms: C_2  and  N_15 
REMARK    1  A    between atoms: N_3  and  C_4 
REMARK    2  A    between atoms: C_4  and  C_5 
REMARK    3  A    between atoms: C_8  and  C_9 
REMARK    4  A    between atoms: N_15  and  C_16 
ROOT
HETATM    1  O   UNL     1     -19.842  -6.650  -7.280  1.00  0.00    -0.247 OA
HETATM    2  C   UNL     1     -20.595  -5.899  -6.672  1.00  0.00     0.321 C 
HETATM    3  N   UNL     1     -20.812  -6.048  -5.324  1.00  0.00    -0.339 N 
HETATM    4  N   UNL     1     -21.323  -4.853  -7.211  1.00  0.00    -0.308 N 
HETATM    5  H   UNL     1     -21.454  -5.445  -4.836  1.00  0.00     0.164 HD
HETATM    6  H   UNL     1     -22.105  -4.535  -6.665  1.00  0.00     0.170 HD
ENDROOT
BRANCH   3   7
HETATM    7  C   UNL     1     -20.183  -7.123  -4.581  1.00  0.00     0.162 C 
BRANCH   7   8
HETATM    8  C   UNL     1     -20.905  -7.426  -3.291  1.00  0.00    -0.040 A 
HETATM    9  C   UNL     1     -20.808  -8.691  -2.699  1.00  0.00     0.009 A 
HETATM   10  C   UNL     1     -21.448  -8.961  -1.484  1.00  0.00     0.017 A 
HETATM   11  C   UNL     1     -22.197  -7.970  -0.835  1.00  0.00     0.047 A 
HETATM   12  C   UNL     1     -22.280  -6.697  -1.421  1.00  0.00     0.017 A 
HETATM   13  C   UNL     1     -21.639  -6.428  -2.634  1.00  0.00     0.009 A 
BRANCH  11  14
HETATM   14  C   UNL     1     -22.903  -8.251   0.468  1.00  0.00     0.417 C 
HETATM   15  F   UNL     1     -23.851  -7.324   0.786  1.00  0.00    -0.166 F 
HETATM   16  F   UNL     1     -23.543  -9.452   0.471  1.00  0.00    -0.166 F 
HETATM   17  F   UNL     1     -22.047  -8.281   1.529  1.00  0.00    -0.166 F 
ENDBRANCH  11  14
ENDBRANCH   7   8
ENDBRANCH   3   7
BRANCH   4  18
HETATM   18  C   UNL     1     -21.334  -4.501  -8.602  1.00  0.00     0.047 C 
HETATM   19  C   UNL     1     -20.150  -4.557  -9.362  1.00  0.00     0.030 C 
HETATM   20  C   UNL     1     -20.166  -4.400 -10.742  1.00  0.00     0.003 C 
HETATM   21  C   UNL     1     -21.372  -4.243 -11.405  1.00  0.00     0.014 C 
HETATM   22  C   UNL     1     -22.561  -4.119 -10.677  1.00  0.00    -0.008 C 
HETATM   23  C   UNL     1     -23.779  -3.953 -11.341  1.00  0.00     0.100 C 
HETATM   24  C   UNL     1     -22.558  -4.150  -9.262  1.00  0.00     0.004 C 
HETATM   25  N   UNL     1     -24.946  -3.661 -10.732  1.00  0.00    -0.374 N 
HETATM   26  C   UNL     1     -24.901  -3.543  -9.392  1.00  0.00     0.088 C 
ATOM     27  HN  UNL     1     -25.812  -3.536 -11.257  1.00  0.00     0.164 HD
HETATM   28  C   UNL     1     -23.772  -3.813  -8.625  1.00  0.00     0.031 C 
ENDBRANCH   4  18
TORSDOF 4
ENDMDL
MODEL 2
REMARK VINA RESULT:     -10.1      1.007      1.588
REMARK  4 active torsions:
REMARK  status: ('A' for Active; 'I' for Inactive)
REMARK       I    between atoms: C_2  and  N_3 
REMARK       I    between atoms: C_2  and  N_15 
REMARK    1  A    between atoms: N_3  and  C_4 
REMARK    2  A    between atoms: C_4  and  C_5 
REMARK    3  A    between atoms: C_8  and  C_9 
REMARK    4  A    between atoms: N_15  and  C_16 
ROOT
HETATM    1  O   UNL     1     -20.738  -3.888  -6.125  1.00  0.00    -0.247 OA
HETATM    2  C   UNL     1     -20.987  -5.071  -6.326  1.00  0.00     0.321 C 
HETATM    3  N   UNL     1     -21.000  -5.980  -5.296  1.00  0.00    -0.339 N 
HETATM    4  N   UNL     1     -21.261  -5.656  -7.549  1.00  0.00    -0.308 N 
HETATM    5  H   UNL     1     -21.177  -6.955  -5.472  1.00  0.00     0.164 HD
HETATM    6  H   UNL     1     -21.144  -6.654  -7.595  1.00  0.00     0.170 HD
ENDROOT
BRANCH   3   7
HETATM    7  C   UNL     1     -20.683  -5.575  -3.940  1.00  0.00     0.162 C 
BRANCH   7   8
HETATM    8  C   UNL     1     -21.230  -6.536  -2.913  1.00  0.00    -0.040 A 
HETATM    9  C   UNL     1     -21.960  -6.068  -1.813  1.00  0.00     0.009 A 
HETATM   10  C   UNL     1     -22.498  -6.961  -0.881  1.00  0.00     0.017 A 
HETATM   11  C   UNL     1     -22.320  -8.343  -1.031  1.00  0.00     0.047 A 
HETATM   12  C   UNL     1     -21.602  -8.813  -2.142  1.00  0.00     0.017 A 
HETATM   13  C   UNL     1     -21.066  -7.919  -3.073  1.00  0.00     0.009 A 
BRANCH  11  14
HETATM   14  C   UNL     1     -22.883  -9.318  -0.026  1.00  0.00     0.417 C 
HETATM   15  F   UNL     1     -21.933  -9.905   0.756  1.00  0.00    -0.166 F 
HETATM   16  F   UNL     1     -23.764  -8.737   0.834  1.00  0.00    -0.166 F 
HETATM   17  F   UNL     1     -23.560 -10.343  -0.617  1.00  0.00    -0.166 F 
ENDBRANCH  11  14
ENDBRANCH   7   8
ENDBRANCH   3   7
BRANCH   4  18
HETATM   18  C   UNL     1     -21.262  -4.959  -8.803  1.00  0.00     0.047 C 
HETATM   19  C   UNL     1     -20.082  -4.857  -9.564  1.00  0.00     0.030 C 
HETATM   20  C   UNL     1     -20.095  -4.351 -10.858  1.00  0.00     0.003 C 
HETATM   21  C   UNL     1     -21.295  -3.989 -11.445  1.00  0.00     0.014 C 
HETATM   22  C   UNL     1     -22.478  -4.015 -10.697  1.00  0.00    -0.008 C 
HETATM   23  C   UNL     1     -23.690  -3.644 -11.283  1.00  0.00     0.100 C 
HETATM   24  C   UNL     1     -22.474  -4.409  -9.337  1.00  0.00     0.004 C 
HETATM   25  N   UNL     1     -24.845  -3.479 -10.608  1.00  0.00    -0.374 N 
HETATM   26  C   UNL     1     -24.794  -3.711  -9.283  1.00  0.00     0.088 C 
ATOM     27  HN  UNL     1     -25.708  -3.195 -11.074  1.00  0.00     0.164 HD
HETATM   28  C   UNL     1     -23.675  -4.206  -8.623  1.00  0.00     0.031 C 
ENDBRANCH   4  18
TORSDOF 4
ENDMDL
MODEL 3
REMARK VINA RESULT:      -9.7      1.492      1.838
REMARK  4 active torsions:
REMARK  status: ('A' for Active; 'I' for Inactive)
REMARK       I    between atoms: C_2  and  N_3 
REMARK       I    between atoms: C_2  and  N_15 
REMARK    1  A    between atoms: N_3  and  C_4 
REMARK    2  A    between atoms: C_4  and  C_5 
REMARK    3  A    between atoms: C_8  and  C_9 
REMARK    4  A    between atoms: N_15  and  C_16 
ROOT
HETATM    1  O   UNL     1     -20.319  -4.608  -5.179  1.00  0.00    -0.247 OA
HETATM    2  C   UNL     1     -21.256  -5.369  -5.385  1.00  0.00     0.321 C 
HETATM    3  N   UNL     1     -21.827  -6.088  -4.364  1.00  0.00    -0.339 N 
HETATM    4  N   UNL     1     -21.848  -5.629  -6.609  1.00  0.00    -0.308 N 
HETATM    5  H   UNL     1     -22.579  -6.732  -4.546  1.00  0.00     0.164 HD
HETATM    6  H   UNL     1     -22.383  -6.478  -6.666  1.00  0.00     0.170 HD
ENDROOT
BRANCH   3   7
HETATM    7  C   UNL     1     -21.314  -5.997  -3.010  1.00  0.00     0.162 C 
BRANCH   7   8
HETATM    8  C   UNL     1     -21.517  -7.276  -2.235  1.00  0.00    -0.040 A 
HETATM    9  C   UNL     1     -21.078  -8.502  -2.752  1.00  0.00     0.009 A 
HETATM   10  C   UNL     1     -21.233  -9.683  -2.018  1.00  0.00     0.017 A 
HETATM   11  C   UNL     1     -21.830  -9.662  -0.750  1.00  0.00     0.047 A 
HETATM   12  C   UNL     1     -22.256  -8.432  -0.226  1.00  0.00     0.017 A 
HETATM   13  C   UNL     1     -22.098  -7.252  -0.960  1.00  0.00     0.009 A 
BRANCH  11  14
HETATM   14  C   UNL     1     -22.016 -10.930   0.047  1.00  0.00     0.417 C 
HETATM   15  F   UNL     1     -23.314 -11.178   0.381  1.00  0.00    -0.166 F 
HETATM   16  F   UNL     1     -21.587 -12.037  -0.618  1.00  0.00    -0.166 F 
HETATM   17  F   UNL     1     -21.329 -10.911   1.224  1.00  0.00    -0.166 F 
ENDBRANCH  11  14
ENDBRANCH   7   8
ENDBRANCH   3   7
BRANCH   4  18
HETATM   18  C   UNL     1     -21.422  -5.062  -7.856  1.00  0.00     0.047 C 
HETATM   19  C   UNL     1     -20.079  -5.163  -8.264  1.00  0.00     0.030 C 
HETATM   20  C   UNL     1     -19.678  -4.788  -9.541  1.00  0.00     0.003 C 
HETATM   21  C   UNL     1     -20.620  -4.357 -10.460  1.00  0.00     0.014 C 
HETATM   22  C   UNL     1     -21.953  -4.182 -10.069  1.00  0.00    -0.008 C 
HETATM   23  C   UNL     1     -22.905  -3.740 -10.991  1.00  0.00     0.100 C 
HETATM   24  C   UNL     1     -22.364  -4.439  -8.739  1.00  0.00     0.004 C 
HETATM   25  N   UNL     1     -24.166  -3.385 -10.675  1.00  0.00    -0.374 N 
HETATM   26  C   UNL     1     -24.502  -3.491  -9.376  1.00  0.00     0.088 C 
ATOM     27  HN  UNL     1     -24.828  -3.056 -11.379  1.00  0.00     0.164 HD
HETATM   28  C   UNL     1     -23.675  -4.038  -8.401  1.00  0.00     0.031 C 
ENDBRANCH   4  18
TORSDOF 4
ENDMDL
MODEL 4
REMARK VINA RESULT:      -9.4      4.932      9.420
REMARK  4 active torsions:
REMARK  status: ('A' for Active; 'I' for Inactive)
REMARK       I    between atoms: C_2  and  N_3 
REMARK       I    between atoms: C_2  and  N_15 
REMARK    1  A    between atoms: N_3  and  C_4 
REMARK    2  A    between atoms: C_4  and  C_5 
REMARK    3  A    between atoms: C_8  and  C_9 
REMARK    4  A    between atoms: N_15  and  C_16 
ROOT
HETATM    1  O   UNL     1     -19.834  -7.485  -4.848  1.00  0.00    -0.247 OA
HETATM    2  C   UNL     1     -20.819  -6.880  -4.442  1.00  0.00     0.321 C 
HETATM    3  N   UNL     1     -21.036  -5.566  -4.781  1.00  0.00    -0.339 N 
HETATM    4  N   UNL     1     -21.805  -7.380  -3.610  1.00  0.00    -0.308 N 
HETATM    5  H   UNL     1     -21.832  -5.067  -4.420  1.00  0.00     0.164 HD
HETATM    6  H   UNL     1     -22.364  -6.695  -3.131  1.00  0.00     0.170 HD
ENDROOT
BRANCH   3   7
HETATM    7  C   UNL     1     -20.086  -4.841  -5.603  1.00  0.00     0.162 C 
BRANCH   7   8
HETATM    8  C   UNL     1     -20.608  -4.596  -6.998  1.00  0.00    -0.040 A 
HETATM    9  C   UNL     1     -21.957  -4.285  -7.211  1.00  0.00     0.009 A 
HETATM   10  C   UNL     1     -22.434  -4.022  -8.499  1.00  0.00     0.017 A 
HETATM   11  C   UNL     1     -21.570  -4.061  -9.602  1.00  0.00     0.047 A 
HETATM   12  C   UNL     1     -20.215  -4.357  -9.386  1.00  0.00     0.017 A 
HETATM   13  C   UNL     1     -19.740  -4.618  -8.098  1.00  0.00     0.009 A 
BRANCH  11  14
HETATM   14  C   UNL     1     -22.074  -3.793 -10.999  1.00  0.00     0.417 C 
HETATM   15  F   UNL     1     -23.432  -3.720 -11.085  1.00  0.00    -0.166 F 
HETATM   16  F   UNL     1     -21.607  -2.621 -11.510  1.00  0.00    -0.166 F 
HETATM   17  F   UNL     1     -21.699  -4.761 -11.883  1.00  0.00    -0.166 F 
ENDBRANCH  11  14
ENDBRANCH   7   8
ENDBRANCH   3   7
BRANCH   4  18
HETATM   18  C   UNL     1     -21.808  -8.703  -3.056  1.00  0.00     0.047 C 
HETATM   19  C   UNL     1     -21.915  -9.828  -3.895  1.00  0.00     0.030 C 
HETATM   20  C   UNL     1     -21.737 -11.117  -3.406  1.00  0.00     0.003 C 
HETATM   21  C   UNL     1     -21.390 -11.310  -2.080  1.00  0.00     0.014 C 
HETATM   22  C   UNL     1     -21.338 -10.220  -1.203  1.00  0.00    -0.008 C 
HETATM   23  C   UNL     1     -20.994 -10.411   0.137  1.00  0.00     0.100 C 
HETATM   24  C   UNL     1     -21.637  -8.910  -1.647  1.00  0.00     0.004 C 
HETATM   25  N   UNL     1     -21.077  -9.460   1.089  1.00  0.00    -0.374 N 
HETATM   26  C   UNL     1     -21.509  -8.252   0.682  1.00  0.00     0.088 C 
ATOM     27  HN  UNL     1     -20.827  -9.645   2.061  1.00  0.00     0.164 HD
HETATM   28  C   UNL     1     -21.754  -7.921  -0.646  1.00  0.00     0.031 C 
ENDBRANCH   4  18
TORSDOF 4
ENDMDL
MODEL 5
REMARK VINA RESULT:      -9.0      1.433      2.697
REMARK  4 active torsions:
REMARK  status: ('A' for Active; 'I' for Inactive)
REMARK       I    between atoms: C_2  and  N_3 
REMARK       I    between atoms: C_2  and  N_15 
REMARK    1  A    between atoms: N_3  and  C_4 
REMARK    2  A    between atoms: C_4  and  C_5 
REMARK    3  A    between atoms: C_8  and  C_9 
REMARK    4  A    between atoms: N_15  and  C_16 
ROOT
HETATM    1  O   UNL     1     -21.196  -3.970  -6.474  1.00  0.00    -0.247 OA
HETATM    2  C   UNL     1     -21.808  -5.031  -6.502  1.00  0.00     0.321 C 
HETATM    3  N   UNL     1     -21.646  -5.971  -5.514  1.00  0.00    -0.339 N 
HETATM    4  N   UNL     1     -22.694  -5.443  -7.482  1.00  0.00    -0.308 N 
HETATM    5  H   UNL     1     -22.131  -6.853  -5.558  1.00  0.00     0.164 HD
HETATM    6  H   UNL     1     -22.874  -6.431  -7.524  1.00  0.00     0.170 HD
ENDROOT
BRANCH   3   7
HETATM    7  C   UNL     1     -20.717  -5.753  -4.422  1.00  0.00     0.162 C 
BRANCH   7   8
HETATM    8  C   UNL     1     -21.122  -6.493  -3.170  1.00  0.00    -0.040 A 
HETATM    9  C   UNL     1     -22.036  -5.927  -2.271  1.00  0.00     0.009 A 
HETATM   10  C   UNL     1     -22.440  -6.627  -1.129  1.00  0.00     0.017 A 
HETATM   11  C   UNL     1     -21.940  -7.910  -0.863  1.00  0.00     0.047 A 
HETATM   12  C   UNL     1     -21.036  -8.482  -1.773  1.00  0.00     0.017 A 
HETATM   13  C   UNL     1     -20.635  -7.782  -2.914  1.00  0.00     0.009 A 
BRANCH  11  14
HETATM   14  C   UNL     1     -22.356  -8.671   0.371  1.00  0.00     0.417 C 
HETATM   15  F   UNL     1     -22.681  -9.972   0.126  1.00  0.00    -0.166 F 
HETATM   16  F   UNL     1     -21.382  -8.704   1.322  1.00  0.00    -0.166 F 
HETATM   17  F   UNL     1     -23.449  -8.125   0.976  1.00  0.00    -0.166 F 
ENDBRANCH  11  14
ENDBRANCH   7   8
ENDBRANCH   3   7
BRANCH   4  18
HETATM   18  C   UNL     1     -23.013  -4.688  -8.659  1.00  0.00     0.047 C 
HETATM   19  C   UNL     1     -24.304  -4.157  -8.839  1.00  0.00     0.030 C 
HETATM   20  C   UNL     1     -24.588  -3.273  -9.873  1.00  0.00     0.003 C 
HETATM   21  C   UNL     1     -23.575  -2.852 -10.718  1.00  0.00     0.014 C 
HETATM   22  C   UNL     1     -22.295  -3.408 -10.609  1.00  0.00    -0.008 C 
HETATM   23  C   UNL     1     -21.272  -2.991 -11.464  1.00  0.00     0.100 C 
HETATM   24  C   UNL     1     -22.010  -4.403  -9.643  1.00  0.00     0.004 C 
HETATM   25  N   UNL     1     -20.061  -3.579 -11.548  1.00  0.00    -0.374 N 
HETATM   26  C   UNL     1     -19.853  -4.625 -10.727  1.00  0.00     0.088 C 
ATOM     27  HN  UNL     1     -19.345  -3.249 -12.195  1.00  0.00     0.164 HD
HETATM   28  C   UNL     1     -20.754  -5.039  -9.752  1.00  0.00     0.031 C 
ENDBRANCH   4  18
TORSDOF 4
ENDMDL
MODEL 6
REMARK VINA RESULT:      -8.7     14.798     16.485
REMARK  4 active torsions:
REMARK  status: ('A' for Active; 'I' for Inactive)
REMARK       I    between atoms: C_2  and  N_3 
REMARK       I    between atoms: C_2  and  N_15 
REMARK    1  A    between atoms: N_3  and  C_4 
REMARK    2  A    between atoms: C_4  and  C_5 
REMARK    3  A    between atoms: C_8  and  C_9 
REMARK    4  A    between atoms: N_15  and  C_16 
ROOT
HETATM    1  O   UNL     1     -34.754  -4.121 -15.406  1.00  0.00    -0.247 OA
HETATM    2  C   UNL     1     -33.662  -4.151 -14.851  1.00  0.00     0.321 C 
HETATM    3  N   UNL     1     -32.510  -4.387 -15.560  1.00  0.00    -0.339 N 
HETATM    4  N   UNL     1     -33.424  -3.983 -13.498  1.00  0.00    -0.308 N 
HETATM    5  H   UNL     1     -31.620  -4.438 -15.093  1.00  0.00     0.164 HD
HETATM    6  H   UNL     1     -32.543  -4.330 -13.161  1.00  0.00     0.170 HD
ENDROOT
BRANCH   3   7
HETATM    7  C   UNL     1     -32.551  -4.644 -16.987  1.00  0.00     0.162 C 
BRANCH   7   8
HETATM    8  C   UNL     1     -31.216  -5.097 -17.525  1.00  0.00    -0.040 A 
HETATM    9  C   UNL     1     -30.927  -6.461 -17.661  1.00  0.00     0.009 A 
HETATM   10  C   UNL     1     -29.703  -6.882 -18.193  1.00  0.00     0.017 A 
HETATM   11  C   UNL     1     -28.744  -5.946 -18.604  1.00  0.00     0.047 A 
HETATM   12  C   UNL     1     -29.041  -4.579 -18.482  1.00  0.00     0.017 A 
HETATM   13  C   UNL     1     -30.264  -4.161 -17.952  1.00  0.00     0.009 A 
BRANCH  11  14
HETATM   14  C   UNL     1     -27.414  -6.384 -19.167  1.00  0.00     0.417 C 
HETATM   15  F   UNL     1     -26.391  -6.311 -18.270  1.00  0.00    -0.166 F 
HETATM   16  F   UNL     1     -27.429  -7.672 -19.608  1.00  0.00    -0.166 F 
HETATM   17  F   UNL     1     -27.026  -5.630 -20.234  1.00  0.00    -0.166 F 
ENDBRANCH  11  14
ENDBRANCH   7   8
ENDBRANCH   3   7
BRANCH   4  18
HETATM   18  C   UNL     1     -34.446  -3.777 -12.512  1.00  0.00     0.047 C 
HETATM   19  C   UNL     1     -34.908  -4.851 -11.728  1.00  0.00     0.030 C 
HETATM   20  C   UNL     1     -35.758  -4.647 -10.647  1.00  0.00     0.003 C 
HETATM   21  C   UNL     1     -36.120  -3.360 -10.288  1.00  0.00     0.014 C 
HETATM   22  C   UNL     1     -35.732  -2.275 -11.082  1.00  0.00    -0.008 C 
HETATM   23  C   UNL     1     -36.101  -0.975 -10.727  1.00  0.00     0.100 C 
HETATM   24  C   UNL     1     -34.969  -2.466 -12.259  1.00  0.00     0.004 C 
HETATM   25  N   UNL     1     -35.920   0.110 -11.507  1.00  0.00    -0.374 N 
HETATM   26  C   UNL     1     -35.327  -0.109 -12.695  1.00  0.00     0.088 C 
ATOM     27  HN  UNL     1     -36.215   1.041 -11.214  1.00  0.00     0.164 HD
HETATM   28  C   UNL     1     -34.807  -1.337 -13.091  1.00  0.00     0.031 C 
ENDBRANCH   4  18
TORSDOF 4
ENDMDL
MODEL 7
REMARK VINA RESULT:      -8.7      4.840      9.266
REMARK  4 active torsions:
REMARK  status: ('A' for Active; 'I' for Inactive)
REMARK       I    between atoms: C_2  and  N_3 
REMARK       I    between atoms: C_2  and  N_15 
REMARK    1  A    between atoms: N_3  and  C_4 
REMARK    2  A    between atoms: C_4  and  C_5 
REMARK    3  A    between atoms: C_8  and  C_9 
REMARK    4  A    between atoms: N_15  and  C_16 
ROOT
HETATM    1  O   UNL     1     -19.767  -7.506  -3.966  1.00  0.00    -0.247 OA
HETATM    2  C   UNL     1     -20.825  -6.907  -3.816  1.00  0.00     0.321 C 
HETATM    3  N   UNL     1     -21.138  -5.812  -4.584  1.00  0.00    -0.339 N 
HETATM    4  N   UNL     1     -21.812  -7.204  -2.894  1.00  0.00    -0.308 N 
HETATM    5  H   UNL     1     -21.996  -5.309  -4.437  1.00  0.00     0.164 HD
HETATM    6  H   UNL     1     -22.460  -6.462  -2.690  1.00  0.00     0.170 HD
ENDROOT
BRANCH   3   7
HETATM    7  C   UNL     1     -20.207  -5.306  -5.575  1.00  0.00     0.162 C 
BRANCH   7   8
HETATM    8  C   UNL     1     -20.885  -4.990  -6.887  1.00  0.00    -0.040 A 
HETATM    9  C   UNL     1     -22.253  -4.695  -6.930  1.00  0.00     0.009 A 
HETATM   10  C   UNL     1     -22.874  -4.366  -8.140  1.00  0.00     0.017 A 
HETATM   11  C   UNL     1     -22.138  -4.324  -9.332  1.00  0.00     0.047 A 
HETATM   12  C   UNL     1     -20.763  -4.604  -9.285  1.00  0.00     0.017 A 
HETATM   13  C   UNL     1     -20.144  -4.930  -8.075  1.00  0.00     0.009 A 
BRANCH  11  14
HETATM   14  C   UNL     1     -22.797  -3.984 -10.646  1.00  0.00     0.417 C 
HETATM   15  F   UNL     1     -21.916  -3.623 -11.621  1.00  0.00    -0.166 F 
HETATM   16  F   UNL     1     -23.513  -5.022 -11.160  1.00  0.00    -0.166 F 
HETATM   17  F   UNL     1     -23.673  -2.945 -10.537  1.00  0.00    -0.166 F 
ENDBRANCH  11  14
ENDBRANCH   7   8
ENDBRANCH   3   7
BRANCH   4  18
HETATM   18  C   UNL     1     -21.731  -8.259  -1.926  1.00  0.00     0.047 C 
HETATM   19  C   UNL     1     -21.441  -7.972  -0.579  1.00  0.00     0.030 C 
HETATM   20  C   UNL     1     -21.537  -8.946   0.408  1.00  0.00     0.003 C 
HETATM   21  C   UNL     1     -21.981 -10.216   0.082  1.00  0.00     0.014 C 
HETATM   22  C   UNL     1     -22.216 -10.556  -1.255  1.00  0.00    -0.008 C 
HETATM   23  C   UNL     1     -22.658 -11.838  -1.590  1.00  0.00     0.100 C 
HETATM   24  C   UNL     1     -22.007  -9.617  -2.295  1.00  0.00     0.004 C 
HETATM   25  N   UNL     1     -22.752 -12.308  -2.850  1.00  0.00    -0.374 N 
HETATM   26  C   UNL     1     -22.404 -11.452  -3.828  1.00  0.00     0.088 C 
ATOM     27  HN  UNL     1     -23.069 -13.257  -3.050  1.00  0.00     0.164 HD
HETATM   28  C   UNL     1     -22.075 -10.118  -3.613  1.00  0.00     0.031 C 
ENDBRANCH   4  18
TORSDOF 4
ENDMDL
MODEL 8
REMARK VINA RESULT:      -8.5     17.280     19.033
REMARK  4 active torsions:
REMARK  status: ('A' for Active; 'I' for Inactive)
REMARK       I    between atoms: C_2  and  N_3 
REMARK       I    between atoms: C_2  and  N_15 
REMARK    1  A    between atoms: N_3  and  C_4 
REMARK    2  A    between atoms: C_4  and  C_5 
REMARK    3  A    between atoms: C_8  and  C_9 
REMARK    4  A    between atoms: N_15  and  C_16 
ROOT
HETATM    1  O   UNL     1     -19.582   8.463   4.325  1.00  0.00    -0.247 OA
HETATM    2  C   UNL     1     -19.400   9.569   3.833  1.00  0.00     0.321 C 
HETATM    3  N   UNL     1     -20.427  10.473   3.713  1.00  0.00    -0.339 N 
HETATM    4  N   UNL     1     -18.207  10.057   3.329  1.00  0.00    -0.308 N 
HETATM    5  H   UNL     1     -20.276  11.370   3.281  1.00  0.00     0.164 HD
HETATM    6  H   UNL     1     -18.282  10.838   2.699  1.00  0.00     0.170 HD
ENDROOT
BRANCH   3   7
HETATM    7  C   UNL     1     -21.773  10.133   4.133  1.00  0.00     0.162 C 
BRANCH   7   8
HETATM    8  C   UNL     1     -22.624   9.645   2.986  1.00  0.00    -0.040 A 
HETATM    9  C   UNL     1     -22.042   8.992   1.892  1.00  0.00     0.009 A 
HETATM   10  C   UNL     1     -22.834   8.508   0.846  1.00  0.00     0.017 A 
HETATM   11  C   UNL     1     -24.227   8.664   0.873  1.00  0.00     0.047 A 
HETATM   12  C   UNL     1     -24.811   9.305   1.977  1.00  0.00     0.017 A 
HETATM   13  C   UNL     1     -24.018   9.787   3.023  1.00  0.00     0.009 A 
BRANCH  11  14
HETATM   14  C   UNL     1     -25.092   8.159  -0.255  1.00  0.00     0.417 C 
HETATM   15  F   UNL     1     -25.215   9.042  -1.286  1.00  0.00    -0.166 F 
HETATM   16  F   UNL     1     -24.619   7.008  -0.806  1.00  0.00    -0.166 F 
HETATM   17  F   UNL     1     -26.365   7.884   0.149  1.00  0.00    -0.166 F 
ENDBRANCH  11  14
ENDBRANCH   7   8
ENDBRANCH   3   7
BRANCH   4  18
HETATM   18  C   UNL     1     -16.982   9.312   3.273  1.00  0.00     0.047 C 
HETATM   19  C   UNL     1     -16.502   8.819   2.045  1.00  0.00     0.030 C 
HETATM   20  C   UNL     1     -15.236   8.257   1.934  1.00  0.00     0.003 C 
HETATM   21  C   UNL     1     -14.396   8.227   3.034  1.00  0.00     0.014 C 
HETATM   22  C   UNL     1     -14.862   8.649   4.285  1.00  0.00    -0.008 C 
HETATM   23  C   UNL     1     -14.020   8.614   5.399  1.00  0.00     0.100 C 
HETATM   24  C   UNL     1     -16.190   9.110   4.451  1.00  0.00     0.004 C 
HETATM   25  N   UNL     1     -14.422   8.840   6.666  1.00  0.00    -0.374 N 
HETATM   26  C   UNL     1     -15.726   9.131   6.830  1.00  0.00     0.088 C 
ATOM     27  HN  UNL     1     -13.775   8.793   7.454  1.00  0.00     0.164 HD
HETATM   28  C   UNL     1     -16.619   9.316   5.781  1.00  0.00     0.031 C 
ENDBRANCH   4  18
TORSDOF 4
ENDMDL
MODEL 9
REMARK VINA RESULT:      -8.4      5.319      9.046
REMARK  4 active torsions:
REMARK  status: ('A' for Active; 'I' for Inactive)
REMARK       I    between atoms: C_2  and  N_3 
REMARK       I    between atoms: C_2  and  N_15 
REMARK    1  A    between atoms: N_3  and  C_4 
REMARK    2  A    between atoms: C_4  and  C_5 
REMARK    3  A    between atoms: C_8  and  C_9 
REMARK    4  A    between atoms: N_15  and  C_16 
ROOT
HETATM    1  O   UNL     1     -19.713  -7.808  -4.761  1.00  0.00    -0.247 OA
HETATM    2  C   UNL     1     -20.911  -7.573  -4.667  1.00  0.00     0.321 C 
HETATM    3  N   UNL     1     -21.427  -6.350  -5.021  1.00  0.00    -0.339 N 
HETATM    4  N   UNL     1     -21.884  -8.440  -4.200  1.00  0.00    -0.308 N 
HETATM    5  H   UNL     1     -22.408  -6.155  -4.915  1.00  0.00     0.164 HD
HETATM    6  H   UNL     1     -22.745  -8.015  -3.902  1.00  0.00     0.170 HD
ENDROOT
BRANCH   3   7
HETATM    7  C   UNL     1     -20.561  -5.282  -5.484  1.00  0.00     0.162 C 
BRANCH   7   8
HETATM    8  C   UNL     1     -20.851  -4.891  -6.913  1.00  0.00    -0.040 A 
HETATM    9  C   UNL     1     -19.847  -4.955  -7.888  1.00  0.00     0.009 A 
HETATM   10  C   UNL     1     -20.124  -4.627  -9.220  1.00  0.00     0.017 A 
HETATM   11  C   UNL     1     -21.412  -4.232  -9.605  1.00  0.00     0.047 A 
HETATM   12  C   UNL     1     -22.421  -4.184  -8.631  1.00  0.00     0.017 A 
HETATM   13  C   UNL     1     -22.144  -4.513  -7.301  1.00  0.00     0.009 A 
BRANCH  11  14
HETATM   14  C   UNL     1     -21.722  -3.862 -11.035  1.00  0.00     0.417 C 
HETATM   15  F   UNL     1     -22.917  -4.346 -11.476  1.00  0.00    -0.166 F 
HETATM   16  F   UNL     1     -21.771  -2.516 -11.232  1.00  0.00    -0.166 F 
HETATM   17  F   UNL     1     -20.788  -4.333 -11.908  1.00  0.00    -0.166 F 
ENDBRANCH  11  14
ENDBRANCH   7   8
ENDBRANCH   3   7
BRANCH   4  18
HETATM   18  C   UNL     1     -21.626  -9.764  -3.711  1.00  0.00     0.047 C 
HETATM   19  C   UNL     1     -21.543 -10.010  -2.328  1.00  0.00     0.030 C 
HETATM   20  C   UNL     1     -21.478 -11.303  -1.823  1.00  0.00     0.003 C 
HETATM   21  C   UNL     1     -21.555 -12.384  -2.685  1.00  0.00     0.014 C 
HETATM   22  C   UNL     1     -21.573 -12.178  -4.069  1.00  0.00    -0.008 C 
HETATM   23  C   UNL     1     -21.643 -13.265  -4.943  1.00  0.00     0.100 C 
HETATM   24  C   UNL     1     -21.514 -10.872  -4.614  1.00  0.00     0.004 C 
HETATM   25  N   UNL     1     -21.500 -13.180  -6.281  1.00  0.00    -0.374 N 
HETATM   26  C   UNL     1     -21.293 -11.946  -6.776  1.00  0.00     0.088 C 
ATOM     27  HN  UNL     1     -21.547 -14.003  -6.883  1.00  0.00     0.164 HD
HETATM   28  C   UNL     1     -21.333 -10.785  -6.012  1.00  0.00     0.031 C 
ENDBRANCH   4  18
TORSDOF 4
ENDMDL
