MODEL 1
REMARK VINA RESULT:     -10.9      0.000      0.000
REMARK  11 active torsions:
REMARK  status: ('A' for Active; 'I' for Inactive)
REMARK    1  A    between atoms: C_2  and  C_4 
REMARK    2  A    between atoms: C_10  and  C_11 
REMARK    3  A    between atoms: C_11  and  C_12 
REMARK    4  A    between atoms: C_22  and  C_23 
REMARK    5  A    between atoms: C_23  and  O_24 
REMARK    6  A    between atoms: O_24  and  C_25 
REMARK    7  A    between atoms: C_25  and  C_27 
REMARK    8  A    between atoms: C_27  and  C_28 
REMARK    9  A    between atoms: C_31  and  O_32 
REMARK   10  A    between atoms: C_33  and  O_34 
REMARK   11  A    between atoms: C_38  and  O_39 
ROOT
HETATM    1  C   UNL     1     -19.669 -12.567  -6.108  1.00  0.00     0.116 C 
HETATM    2  C   UNL     1     -20.532 -13.053  -4.914  1.00  0.00     0.053 C 
HETATM    3  C   UNL     1     -20.240 -12.484  -3.551  1.00  0.00     0.020 C 
HETATM    4  C   UNL     1     -19.109 -13.207  -2.760  1.00  0.00     0.013 C 
HETATM    5  C   UNL     1     -19.934 -10.957  -3.633  1.00  0.00     0.083 C 
HETATM    6  O   UNL     1     -18.523 -10.905  -3.989  1.00  0.00    -0.320 OA
HETATM    7  C   UNL     1     -18.148 -10.916  -5.434  1.00  0.00     0.288 C 
HETATM    8  O   UNL     1     -18.862 -10.096  -6.304  1.00  0.00    -0.323 OA
HETATM    9  C   UNL     1     -20.104 -10.791  -6.117  1.00  0.00     0.173 C 
HETATM   10  C   UNL     1     -20.550 -10.120  -4.752  1.00  0.00     0.054 C 
HETATM   11  C   UNL     1     -19.860  -8.674  -4.503  1.00  0.00     0.017 C 
HETATM   12  C   UNL     1     -20.441  -7.682  -3.825  1.00  0.00     0.014 C 
HETATM   13  C   UNL     1     -20.222  -7.735  -2.330  1.00  0.00     0.053 C 
HETATM   14  C   UNL     1     -21.016  -8.957  -1.858  1.00  0.00     0.125 C 
HETATM   15  C   UNL     1     -21.106  -9.046  -0.341  1.00  0.00     0.165 C 
HETATM   16  O   UNL     1     -21.430  -8.138   0.386  1.00  0.00    -0.294 OA
HETATM   17  C   UNL     1     -20.964 -10.469   0.120  1.00  0.00     0.055 C 
HETATM   18  C   UNL     1     -22.381 -10.991   0.346  1.00  0.00     0.018 C 
HETATM   19  C   UNL     1     -20.164 -10.958  -0.859  1.00  0.00     0.023 C 
HETATM   20  C   UNL     1     -20.552 -10.402  -2.224  1.00  0.00     0.064 C 
HETATM   21  O   UNL     1     -18.329 -12.113  -6.061  1.00  0.00    -0.314 OA
ENDROOT
BRANCH  12  22
HETATM   22  C   UNL     1     -21.717  -7.036  -4.298  1.00  0.00     0.183 C 
BRANCH  22  23
HETATM   23  O   UNL     1     -21.330  -5.817  -4.946  1.00  0.00    -0.321 OA
BRANCH  23  24
HETATM   24  C   UNL     1     -21.212  -5.859  -6.309  1.00  0.00     0.263 C 
HETATM   25  O   UNL     1     -21.184  -6.839  -6.982  1.00  0.00    -0.265 OA
BRANCH  24  26
HETATM   26  C   UNL     1     -21.124  -4.439  -6.852  1.00  0.00     0.149 C 
BRANCH  26  27
HETATM   27  C   UNL     1     -21.260  -4.332  -8.356  1.00  0.00    -0.046 A 
HETATM   28  C   UNL     1     -20.192  -4.652  -9.197  1.00  0.00     0.010 A 
HETATM   29  C   UNL     1     -20.305  -4.490 -10.581  1.00  0.00     0.040 A 
HETATM   30  C   UNL     1     -21.512  -4.050 -11.135  1.00  0.00     0.099 A 
HETATM   31  C   UNL     1     -22.609  -3.805 -10.289  1.00  0.00     0.101 A 
HETATM   32  C   UNL     1     -22.469  -3.915  -8.924  1.00  0.00     0.047 A 
BRANCH  30  33
HETATM   33  O   UNL     1     -21.583  -3.847 -12.484  1.00  0.00    -0.358 OA
HETATM   34  H   UNL     1     -20.962  -4.449 -12.930  1.00  0.00     0.217 HD
ENDBRANCH  30  33
BRANCH  31  35
HETATM   35  O   UNL     1     -23.858  -3.383 -10.702  1.00  0.00    -0.353 OA
HETATM   36  C   UNL     1     -24.870  -3.318  -9.703  1.00  0.00     0.210 C 
ENDBRANCH  31  35
ENDBRANCH  26  27
ENDBRANCH  24  26
ENDBRANCH  23  24
ENDBRANCH  22  23
ENDBRANCH  12  22
BRANCH  14  37
HETATM   37  O   UNL     1     -22.418  -8.802  -2.240  1.00  0.00    -0.382 OA
HETATM   38  H   UNL     1     -22.474  -7.961  -2.738  1.00  0.00     0.211 HD
ENDBRANCH  14  37
BRANCH   1  39
HETATM   39  C   UNL     1     -18.707 -13.966  -6.213  1.00  0.00    -0.056 C 
HETATM   40  C   UNL     1     -17.690 -14.450  -5.405  1.00  0.00     0.017 C 
HETATM   41  C   UNL     1     -18.979 -14.901  -7.352  1.00  0.00     0.046 C 
ENDBRANCH   1  39
BRANCH   7  42
HETATM   42  C   UNL     1     -16.704 -10.655  -5.413  1.00  0.00     0.140 C 
BRANCH  42  43
HETATM   43  C   UNL     1     -15.470 -11.469  -5.417  1.00  0.00    -0.051 A 
HETATM   44  C   UNL     1     -14.694 -12.029  -6.436  1.00  0.00     0.007 A 
HETATM   45  C   UNL     1     -13.590 -12.808  -6.049  1.00  0.00     0.001 A 
HETATM   46  C   UNL     1     -13.287 -13.052  -4.715  1.00  0.00     0.000 A 
HETATM   47  C   UNL     1     -14.089 -12.525  -3.708  1.00  0.00     0.001 A 
HETATM   48  C   UNL     1     -15.185 -11.746  -4.056  1.00  0.00     0.007 A 
ENDBRANCH  42  43
ENDBRANCH   7  42
TORSDOF 11
ENDMDL
MODEL 2
REMARK VINA RESULT:     -10.3      2.010      3.744
REMARK  11 active torsions:
REMARK  status: ('A' for Active; 'I' for Inactive)
REMARK    1  A    between atoms: C_2  and  C_4 
REMARK    2  A    between atoms: C_10  and  C_11 
REMARK    3  A    between atoms: C_11  and  C_12 
REMARK    4  A    between atoms: C_22  and  C_23 
REMARK    5  A    between atoms: C_23  and  O_24 
REMARK    6  A    between atoms: O_24  and  C_25 
REMARK    7  A    between atoms: C_25  and  C_27 
REMARK    8  A    between atoms: C_27  and  C_28 
REMARK    9  A    between atoms: C_31  and  O_32 
REMARK   10  A    between atoms: C_33  and  O_34 
REMARK   11  A    between atoms: C_38  and  O_39 
ROOT
HETATM    1  C   UNL     1     -15.200 -11.448  -5.995  1.00  0.00     0.116 C 
HETATM    2  C   UNL     1     -16.250 -12.328  -6.721  1.00  0.00     0.053 C 
HETATM    3  C   UNL     1     -17.461 -12.772  -5.943  1.00  0.00     0.020 C 
HETATM    4  C   UNL     1     -17.266 -14.066  -5.096  1.00  0.00     0.013 C 
HETATM    5  C   UNL     1     -18.000 -11.622  -5.037  1.00  0.00     0.083 C 
HETATM    6  O   UNL     1     -17.168 -11.704  -3.844  1.00  0.00    -0.320 OA
HETATM    7  C   UNL     1     -15.885 -10.941  -3.812  1.00  0.00     0.288 C 
HETATM    8  O   UNL     1     -15.894  -9.624  -4.267  1.00  0.00    -0.323 OA
HETATM    9  C   UNL     1     -16.217  -9.976  -5.620  1.00  0.00     0.173 C 
HETATM   10  C   UNL     1     -17.781 -10.168  -5.448  1.00  0.00     0.054 C 
HETATM   11  C   UNL     1     -18.381  -9.369  -4.171  1.00  0.00     0.017 C 
HETATM   12  C   UNL     1     -19.618  -8.874  -4.121  1.00  0.00     0.014 C 
HETATM   13  C   UNL     1     -20.666  -9.857  -3.647  1.00  0.00     0.053 C 
HETATM   14  C   UNL     1     -20.776 -10.889  -4.774  1.00  0.00     0.125 C 
HETATM   15  C   UNL     1     -21.950 -11.839  -4.583  1.00  0.00     0.165 C 
HETATM   16  O   UNL     1     -23.082 -11.498  -4.332  1.00  0.00    -0.294 OA
HETATM   17  C   UNL     1     -21.572 -13.240  -4.974  1.00  0.00     0.055 C 
HETATM   18  C   UNL     1     -22.081 -13.441  -6.399  1.00  0.00     0.018 C 
HETATM   19  C   UNL     1     -20.250 -13.221  -4.677  1.00  0.00     0.023 C 
HETATM   20  C   UNL     1     -19.613 -11.890  -5.058  1.00  0.00     0.064 C 
HETATM   21  O   UNL     1     -14.902 -11.443  -4.611  1.00  0.00    -0.314 OA
ENDROOT
BRANCH  12  22
HETATM   22  C   UNL     1     -20.083  -7.795  -5.064  1.00  0.00     0.183 C 
BRANCH  22  23
HETATM   23  O   UNL     1     -21.433  -7.491  -4.689  1.00  0.00    -0.321 OA
BRANCH  23  24
HETATM   24  C   UNL     1     -21.956  -6.324  -5.175  1.00  0.00     0.263 C 
HETATM   25  O   UNL     1     -23.107  -6.028  -5.206  1.00  0.00    -0.265 OA
BRANCH  24  26
HETATM   26  C   UNL     1     -20.825  -5.437  -5.679  1.00  0.00     0.149 C 
BRANCH  26  27
HETATM   27  C   UNL     1     -20.977  -4.981  -7.115  1.00  0.00    -0.046 A 
HETATM   28  C   UNL     1     -19.953  -5.184  -8.043  1.00  0.00     0.010 A 
HETATM   29  C   UNL     1     -20.074  -4.705  -9.350  1.00  0.00     0.040 A 
HETATM   30  C   UNL     1     -21.249  -4.058  -9.750  1.00  0.00     0.099 A 
HETATM   31  C   UNL     1     -22.308  -3.926  -8.833  1.00  0.00     0.101 A 
HETATM   32  C   UNL     1     -22.156  -4.354  -7.533  1.00  0.00     0.047 A 
BRANCH  30  33
HETATM   33  O   UNL     1     -21.325  -3.549 -11.015  1.00  0.00    -0.358 OA
HETATM   34  H   UNL     1     -21.497  -4.274 -11.640  1.00  0.00     0.217 HD
ENDBRANCH  30  33
BRANCH  31  35
HETATM   35  O   UNL     1     -23.524  -3.327  -9.096  1.00  0.00    -0.353 OA
HETATM   36  C   UNL     1     -24.492  -4.120  -9.774  1.00  0.00     0.210 C 
ENDBRANCH  31  35
ENDBRANCH  26  27
ENDBRANCH  24  26
ENDBRANCH  23  24
ENDBRANCH  22  23
ENDBRANCH  12  22
BRANCH  14  37
HETATM   37  O   UNL     1     -21.130 -10.212  -6.020  1.00  0.00    -0.382 OA
HETATM   38  H   UNL     1     -22.009  -9.807  -5.870  1.00  0.00     0.211 HD
ENDBRANCH  14  37
BRANCH   1  39
HETATM   39  C   UNL     1     -14.056 -12.687  -5.769  1.00  0.00    -0.056 C 
HETATM   40  C   UNL     1     -13.950 -13.681  -4.809  1.00  0.00     0.017 C 
HETATM   41  C   UNL     1     -12.950 -12.792  -6.774  1.00  0.00     0.046 C 
ENDBRANCH   1  39
BRANCH   7  42
HETATM   42  C   UNL     1     -15.433 -11.094  -2.424  1.00  0.00     0.140 C 
BRANCH  42  43
HETATM   43  C   UNL     1     -15.463 -12.161  -1.402  1.00  0.00    -0.051 A 
HETATM   44  C   UNL     1     -15.188 -13.531  -1.438  1.00  0.00     0.007 A 
HETATM   45  C   UNL     1     -15.381 -14.256  -0.250  1.00  0.00     0.001 A 
HETATM   46  C   UNL     1     -15.858 -13.662   0.912  1.00  0.00     0.000 A 
HETATM   47  C   UNL     1     -16.169 -12.306   0.927  1.00  0.00     0.001 A 
HETATM   48  C   UNL     1     -15.984 -11.558  -0.229  1.00  0.00     0.007 A 
ENDBRANCH  42  43
ENDBRANCH   7  42
TORSDOF 11
ENDMDL
MODEL 3
REMARK VINA RESULT:     -10.1      1.427      1.965
REMARK  11 active torsions:
REMARK  status: ('A' for Active; 'I' for Inactive)
REMARK    1  A    between atoms: C_2  and  C_4 
REMARK    2  A    between atoms: C_10  and  C_11 
REMARK    3  A    between atoms: C_11  and  C_12 
REMARK    4  A    between atoms: C_22  and  C_23 
REMARK    5  A    between atoms: C_23  and  O_24 
REMARK    6  A    between atoms: O_24  and  C_25 
REMARK    7  A    between atoms: C_25  and  C_27 
REMARK    8  A    between atoms: C_27  and  C_28 
REMARK    9  A    between atoms: C_31  and  O_32 
REMARK   10  A    between atoms: C_33  and  O_34 
REMARK   11  A    between atoms: C_38  and  O_39 
ROOT
HETATM    1  C   UNL     1     -19.595 -13.147  -3.570  1.00  0.00     0.116 C 
HETATM    2  C   UNL     1     -20.722 -12.932  -2.526  1.00  0.00     0.053 C 
HETATM    3  C   UNL     1     -20.659 -11.702  -1.659  1.00  0.00     0.020 C 
HETATM    4  C   UNL     1     -19.782 -11.838  -0.379  1.00  0.00     0.013 C 
HETATM    5  C   UNL     1     -20.205 -10.458  -2.483  1.00  0.00     0.083 C 
HETATM    6  O   UNL     1     -18.751 -10.561  -2.492  1.00  0.00    -0.320 OA
HETATM    7  C   UNL     1     -18.096 -11.346  -3.578  1.00  0.00     0.288 C 
HETATM    8  O   UNL     1     -18.543 -11.158  -4.885  1.00  0.00    -0.323 OA
HETATM    9  C   UNL     1     -19.855 -11.680  -4.630  1.00  0.00     0.173 C 
HETATM   10  C   UNL     1     -20.503 -10.389  -3.979  1.00  0.00     0.054 C 
HETATM   11  C   UNL     1     -19.747  -9.019  -4.405  1.00  0.00     0.017 C 
HETATM   12  C   UNL     1     -20.359  -7.838  -4.515  1.00  0.00     0.014 C 
HETATM   13  C   UNL     1     -20.451  -7.059  -3.222  1.00  0.00     0.053 C 
HETATM   14  C   UNL     1     -21.433  -7.852  -2.353  1.00  0.00     0.125 C 
HETATM   15  C   UNL     1     -21.835  -7.102  -1.091  1.00  0.00     0.165 C 
HETATM   16  O   UNL     1     -22.214  -5.955  -1.059  1.00  0.00    -0.294 OA
HETATM   17  C   UNL     1     -21.920  -8.036   0.082  1.00  0.00     0.055 C 
HETATM   18  C   UNL     1     -23.395  -8.398   0.237  1.00  0.00     0.018 C 
HETATM   19  C   UNL     1     -20.988  -8.953  -0.276  1.00  0.00     0.023 C 
HETATM   20  C   UNL     1     -21.039  -9.246  -1.770  1.00  0.00     0.064 C 
HETATM   21  O   UNL     1     -18.256 -12.696  -3.483  1.00  0.00    -0.314 OA
ENDROOT
BRANCH  12  22
HETATM   22  C   UNL     1     -21.449  -7.598  -5.526  1.00  0.00     0.183 C 
BRANCH  22  23
HETATM   23  O   UNL     1     -20.796  -7.120  -6.710  1.00  0.00    -0.321 OA
BRANCH  23  24
HETATM   24  C   UNL     1     -20.352  -5.826  -6.684  1.00  0.00     0.263 C 
HETATM   25  O   UNL     1     -19.255  -5.465  -6.402  1.00  0.00    -0.265 OA
BRANCH  24  26
HETATM   26  C   UNL     1     -21.489  -4.895  -7.082  1.00  0.00     0.149 C 
BRANCH  26  27
HETATM   27  C   UNL     1     -21.538  -4.558  -8.557  1.00  0.00    -0.046 A 
HETATM   28  C   UNL     1     -20.410  -4.714  -9.366  1.00  0.00     0.010 A 
HETATM   29  C   UNL     1     -20.444  -4.341 -10.713  1.00  0.00     0.040 A 
HETATM   30  C   UNL     1     -21.630  -3.852 -11.271  1.00  0.00     0.099 A 
HETATM   31  C   UNL     1     -22.785  -3.771 -10.471  1.00  0.00     0.101 A 
HETATM   32  C   UNL     1     -22.725  -4.090  -9.133  1.00  0.00     0.047 A 
BRANCH  30  33
HETATM   33  O   UNL     1     -21.627  -3.442 -12.574  1.00  0.00    -0.358 OA
HETATM   34  H   UNL     1     -22.517  -3.129 -12.811  1.00  0.00     0.217 HD
ENDBRANCH  30  33
BRANCH  31  35
HETATM   35  O   UNL     1     -24.021  -3.324 -10.895  1.00  0.00    -0.353 OA
HETATM   36  C   UNL     1     -25.044  -3.250  -9.908  1.00  0.00     0.210 C 
ENDBRANCH  31  35
ENDBRANCH  26  27
ENDBRANCH  24  26
ENDBRANCH  23  24
ENDBRANCH  22  23
ENDBRANCH  12  22
BRANCH  14  37
HETATM   37  O   UNL     1     -22.709  -7.978  -3.054  1.00  0.00    -0.382 OA
HETATM   38  H   UNL     1     -23.343  -8.342  -2.403  1.00  0.00     0.211 HD
ENDBRANCH  14  37
BRANCH   1  39
HETATM   39  C   UNL     1     -18.765 -14.344  -2.691  1.00  0.00    -0.056 C 
HETATM   40  C   UNL     1     -17.848 -14.259  -1.655  1.00  0.00     0.017 C 
HETATM   41  C   UNL     1     -19.055 -15.773  -3.035  1.00  0.00     0.046 C 
ENDBRANCH   1  39
BRANCH   7  42
HETATM   42  C   UNL     1     -16.668 -11.067  -3.386  1.00  0.00     0.140 C 
BRANCH  42  43
HETATM   43  C   UNL     1     -15.394 -11.731  -3.732  1.00  0.00    -0.051 A 
HETATM   44  C   UNL     1     -14.444 -12.434  -2.986  1.00  0.00     0.007 A 
HETATM   45  C   UNL     1     -13.301 -12.888  -3.663  1.00  0.00     0.001 A 
HETATM   46  C   UNL     1     -13.087 -12.629  -5.012  1.00  0.00     0.000 A 
HETATM   47  C   UNL     1     -14.017 -11.892  -5.738  1.00  0.00     0.001 A 
HETATM   48  C   UNL     1     -15.162 -11.434  -5.100  1.00  0.00     0.007 A 
ENDBRANCH  42  43
ENDBRANCH   7  42
TORSDOF 11
ENDMDL
MODEL 4
REMARK VINA RESULT:     -10.1      2.219      5.364
REMARK  11 active torsions:
REMARK  status: ('A' for Active; 'I' for Inactive)
REMARK    1  A    between atoms: C_2  and  C_4 
REMARK    2  A    between atoms: C_10  and  C_11 
REMARK    3  A    between atoms: C_11  and  C_12 
REMARK    4  A    between atoms: C_22  and  C_23 
REMARK    5  A    between atoms: C_23  and  O_24 
REMARK    6  A    between atoms: O_24  and  C_25 
REMARK    7  A    between atoms: C_25  and  C_27 
REMARK    8  A    between atoms: C_27  and  C_28 
REMARK    9  A    between atoms: C_31  and  O_32 
REMARK   10  A    between atoms: C_33  and  O_34 
REMARK   11  A    between atoms: C_38  and  O_39 
ROOT
HETATM    1  C   UNL     1     -22.278 -11.706   0.039  1.00  0.00     0.116 C 
HETATM    2  C   UNL     1     -20.809 -11.274   0.281  1.00  0.00     0.053 C 
HETATM    3  C   UNL     1     -19.806 -11.526  -0.813  1.00  0.00     0.020 C 
HETATM    4  C   UNL     1     -19.170 -12.948  -0.813  1.00  0.00     0.013 C 
HETATM    5  C   UNL     1     -20.417 -11.220  -2.216  1.00  0.00     0.083 C 
HETATM    6  O   UNL     1     -21.137 -12.441  -2.553  1.00  0.00    -0.320 OA
HETATM    7  C   UNL     1     -22.558 -12.578  -2.118  1.00  0.00     0.288 C 
HETATM    8  O   UNL     1     -23.407 -11.488  -2.300  1.00  0.00    -0.323 OA
HETATM    9  C   UNL     1     -22.698 -10.640  -1.386  1.00  0.00     0.173 C 
HETATM   10  C   UNL     1     -21.526 -10.179  -2.349  1.00  0.00     0.054 C 
HETATM   11  C   UNL     1     -21.912 -10.304  -3.919  1.00  0.00     0.017 C 
HETATM   12  C   UNL     1     -21.429  -9.499  -4.867  1.00  0.00     0.014 C 
HETATM   13  C   UNL     1     -20.102  -9.938  -5.443  1.00  0.00     0.053 C 
HETATM   14  C   UNL     1     -19.094  -9.738  -4.306  1.00  0.00     0.125 C 
HETATM   15  C   UNL     1     -17.653  -9.911  -4.766  1.00  0.00     0.165 C 
HETATM   16  O   UNL     1     -17.169  -9.379  -5.737  1.00  0.00    -0.294 OA
HETATM   17  C   UNL     1     -16.846 -10.642  -3.731  1.00  0.00     0.055 C 
HETATM   18  C   UNL     1     -16.104  -9.574  -2.931  1.00  0.00     0.018 C 
HETATM   19  C   UNL     1     -17.812 -11.415  -3.178  1.00  0.00     0.023 C 
HETATM   20  C   UNL     1     -19.125 -10.653  -3.041  1.00  0.00     0.064 C 
HETATM   21  O   UNL     1     -22.729 -12.770  -0.780  1.00  0.00    -0.314 OA
ENDROOT
BRANCH  12  22
HETATM   22  C   UNL     1     -21.713  -8.020  -4.874  1.00  0.00     0.183 C 
BRANCH  22  23
HETATM   23  O   UNL     1     -21.415  -7.563  -6.201  1.00  0.00    -0.321 OA
BRANCH  23  24
HETATM   24  C   UNL     1     -20.735  -6.380  -6.302  1.00  0.00     0.263 C 
HETATM   25  O   UNL     1     -19.568  -6.224  -6.136  1.00  0.00    -0.265 OA
BRANCH  24  26
HETATM   26  C   UNL     1     -21.708  -5.269  -6.670  1.00  0.00     0.149 C 
BRANCH  26  27
HETATM   27  C   UNL     1     -21.612  -4.800  -8.106  1.00  0.00    -0.046 A 
HETATM   28  C   UNL     1     -20.406  -4.879  -8.807  1.00  0.00     0.010 A 
HETATM   29  C   UNL     1     -20.308  -4.386 -10.111  1.00  0.00     0.040 A 
HETATM   30  C   UNL     1     -21.438  -3.851 -10.740  1.00  0.00     0.099 A 
HETATM   31  C   UNL     1     -22.668  -3.845 -10.058  1.00  0.00     0.101 A 
HETATM   32  C   UNL     1     -22.740  -4.284  -8.755  1.00  0.00     0.047 A 
BRANCH  30  33
HETATM   33  O   UNL     1     -21.307  -3.324 -11.994  1.00  0.00    -0.358 OA
HETATM   34  H   UNL     1     -20.465  -3.623 -12.379  1.00  0.00     0.217 HD
ENDBRANCH  30  33
BRANCH  31  35
HETATM   35  O   UNL     1     -23.860  -3.364 -10.563  1.00  0.00    -0.353 OA
HETATM   36  C   UNL     1     -24.947  -3.270  -9.650  1.00  0.00     0.210 C 
ENDBRANCH  31  35
ENDBRANCH  26  27
ENDBRANCH  24  26
ENDBRANCH  23  24
ENDBRANCH  22  23
ENDBRANCH  12  22
BRANCH  14  37
HETATM   37  O   UNL     1     -19.114  -8.341  -3.879  1.00  0.00    -0.382 OA
HETATM   38  H   UNL     1     -19.902  -7.939  -4.298  1.00  0.00     0.211 HD
ENDBRANCH  14  37
BRANCH   1  39
HETATM   39  C   UNL     1     -22.217 -13.097   1.018  1.00  0.00    -0.056 C 
HETATM   40  C   UNL     1     -21.203 -14.009   1.263  1.00  0.00     0.017 C 
HETATM   41  C   UNL     1     -23.445 -13.436   1.806  1.00  0.00     0.046 C 
ENDBRANCH   1  39
BRANCH   7  42
HETATM   42  C   UNL     1     -23.003 -13.804  -2.790  1.00  0.00     0.140 C 
BRANCH  42  43
HETATM   43  C   UNL     1     -22.967 -14.342  -4.166  1.00  0.00    -0.051 A 
HETATM   44  C   UNL     1     -22.436 -13.866  -5.368  1.00  0.00     0.007 A 
HETATM   45  C   UNL     1     -22.646 -14.647  -6.517  1.00  0.00     0.001 A 
HETATM   46  C   UNL     1     -23.378 -15.828  -6.487  1.00  0.00     0.000 A 
HETATM   47  C   UNL     1     -23.938 -16.272  -5.295  1.00  0.00     0.001 A 
HETATM   48  C   UNL     1     -23.745 -15.528  -4.138  1.00  0.00     0.007 A 
ENDBRANCH  42  43
ENDBRANCH   7  42
TORSDOF 11
ENDMDL
MODEL 5
REMARK VINA RESULT:      -9.6      2.968      8.819
REMARK  11 active torsions:
REMARK  status: ('A' for Active; 'I' for Inactive)
REMARK    1  A    between atoms: C_2  and  C_4 
REMARK    2  A    between atoms: C_10  and  C_11 
REMARK    3  A    between atoms: C_11  and  C_12 
REMARK    4  A    between atoms: C_22  and  C_23 
REMARK    5  A    between atoms: C_23  and  O_24 
REMARK    6  A    between atoms: O_24  and  C_25 
REMARK    7  A    between atoms: C_25  and  C_27 
REMARK    8  A    between atoms: C_27  and  C_28 
REMARK    9  A    between atoms: C_31  and  O_32 
REMARK   10  A    between atoms: C_33  and  O_34 
REMARK   11  A    between atoms: C_38  and  O_39 
ROOT
HETATM    1  C   UNL     1     -20.285  -9.105  -1.168  1.00  0.00     0.116 C 
HETATM    2  C   UNL     1     -20.816 -10.550  -0.980  1.00  0.00     0.053 C 
HETATM    3  C   UNL     1     -21.635 -11.155  -2.090  1.00  0.00     0.020 C 
HETATM    4  C   UNL     1     -23.155 -10.812  -2.053  1.00  0.00     0.013 C 
HETATM    5  C   UNL     1     -21.044 -10.789  -3.486  1.00  0.00     0.083 C 
HETATM    6  O   UNL     1     -21.594  -9.469  -3.760  1.00  0.00    -0.320 OA
HETATM    7  C   UNL     1     -20.845  -8.269  -3.284  1.00  0.00     0.288 C 
HETATM    8  O   UNL     1     -19.466  -8.233  -3.484  1.00  0.00    -0.323 OA
HETATM    9  C   UNL     1     -19.201  -9.348  -2.620  1.00  0.00     0.173 C 
HETATM   10  C   UNL     1     -19.548 -10.520  -3.629  1.00  0.00     0.054 C 
HETATM   11  C   UNL     1     -19.439 -10.069  -5.183  1.00  0.00     0.017 C 
HETATM   12  C   UNL     1     -19.097 -10.897  -6.172  1.00  0.00     0.014 C 
HETATM   13  C   UNL     1     -20.253 -11.672  -6.766  1.00  0.00     0.053 C 
HETATM   14  C   UNL     1     -20.681 -12.646  -5.663  1.00  0.00     0.125 C 
HETATM   15  C   UNL     1     -21.690 -13.676  -6.153  1.00  0.00     0.165 C 
HETATM   16  O   UNL     1     -21.568 -14.340  -7.155  1.00  0.00    -0.294 OA
HETATM   17  C   UNL     1     -22.744 -13.928  -5.113  1.00  0.00     0.055 C 
HETATM   18  C   UNL     1     -22.323 -15.194  -4.372  1.00  0.00     0.018 C 
HETATM   19  C   UNL     1     -22.775 -12.716  -4.507  1.00  0.00     0.023 C 
HETATM   20  C   UNL     1     -21.376 -12.128  -4.365  1.00  0.00     0.064 C 
HETATM   21  O   UNL     1     -20.877  -8.074  -1.936  1.00  0.00    -0.314 OA
ENDROOT
BRANCH  12  22
HETATM   22  C   UNL     1     -17.744 -11.556  -6.227  1.00  0.00     0.183 C 
BRANCH  22  23
HETATM   23  O   UNL     1     -16.787 -10.528  -5.938  1.00  0.00    -0.321 OA
BRANCH  23  24
HETATM   24  C   UNL     1     -15.618 -10.928  -5.349  1.00  0.00     0.263 C 
HETATM   25  O   UNL     1     -14.757 -11.569  -5.861  1.00  0.00    -0.265 OA
BRANCH  24  26
HETATM   26  C   UNL     1     -15.575 -10.418  -3.915  1.00  0.00     0.149 C 
BRANCH  26  27
HETATM   27  C   UNL     1     -16.084 -11.403  -2.884  1.00  0.00    -0.046 A 
HETATM   28  C   UNL     1     -16.697 -12.596  -3.273  1.00  0.00     0.010 A 
HETATM   29  C   UNL     1     -17.221 -13.470  -2.317  1.00  0.00     0.040 A 
HETATM   30  C   UNL     1     -17.091 -13.174  -0.956  1.00  0.00     0.099 A 
HETATM   31  C   UNL     1     -16.404 -12.009  -0.567  1.00  0.00     0.101 A 
HETATM   32  C   UNL     1     -15.940 -11.129  -1.519  1.00  0.00     0.047 A 
BRANCH  30  33
HETATM   33  O   UNL     1     -17.659 -14.014  -0.040  1.00  0.00    -0.358 OA
HETATM   34  H   UNL     1     -17.044 -14.136   0.704  1.00  0.00     0.217 HD
ENDBRANCH  30  33
BRANCH  31  35
HETATM   35  O   UNL     1     -16.189 -11.605   0.736  1.00  0.00    -0.353 OA
HETATM   36  C   UNL     1     -15.196 -12.313   1.467  1.00  0.00     0.210 C 
ENDBRANCH  31  35
ENDBRANCH  26  27
ENDBRANCH  24  26
ENDBRANCH  23  24
ENDBRANCH  22  23
ENDBRANCH  12  22
BRANCH  14  37
HETATM   37  O   UNL     1     -19.545 -13.484  -5.287  1.00  0.00    -0.382 OA
HETATM   38  H   UNL     1     -19.920 -14.352  -5.029  1.00  0.00     0.211 HD
ENDBRANCH  14  37
BRANCH   1  39
HETATM   39  C   UNL     1     -21.420  -8.364  -0.141  1.00  0.00    -0.056 C 
HETATM   40  C   UNL     1     -22.576  -7.648  -0.407  1.00  0.00     0.017 C 
HETATM   41  C   UNL     1     -21.200  -8.497   1.335  1.00  0.00     0.046 C 
ENDBRANCH   1  39
BRANCH   7  42
HETATM   42  C   UNL     1     -21.569  -7.150  -3.899  1.00  0.00     0.140 C 
BRANCH  42  43
HETATM   43  C   UNL     1     -21.294  -6.148  -4.950  1.00  0.00    -0.051 A 
HETATM   44  C   UNL     1     -20.203  -5.320  -5.224  1.00  0.00     0.007 A 
HETATM   45  C   UNL     1     -20.324  -4.434  -6.308  1.00  0.00     0.001 A 
HETATM   46  C   UNL     1     -21.485  -4.345  -7.066  1.00  0.00     0.000 A 
HETATM   47  C   UNL     1     -22.582  -5.144  -6.760  1.00  0.00     0.001 A 
HETATM   48  C   UNL     1     -22.494  -6.035  -5.699  1.00  0.00     0.007 A 
ENDBRANCH  42  43
ENDBRANCH   7  42
TORSDOF 11
ENDMDL
MODEL 6
REMARK VINA RESULT:      -9.6      2.233      4.151
REMARK  11 active torsions:
REMARK  status: ('A' for Active; 'I' for Inactive)
REMARK    1  A    between atoms: C_2  and  C_4 
REMARK    2  A    between atoms: C_10  and  C_11 
REMARK    3  A    between atoms: C_11  and  C_12 
REMARK    4  A    between atoms: C_22  and  C_23 
REMARK    5  A    between atoms: C_23  and  O_24 
REMARK    6  A    between atoms: O_24  and  C_25 
REMARK    7  A    between atoms: C_25  and  C_27 
REMARK    8  A    between atoms: C_27  and  C_28 
REMARK    9  A    between atoms: C_31  and  O_32 
REMARK   10  A    between atoms: C_33  and  O_34 
REMARK   11  A    between atoms: C_38  and  O_39 
ROOT
HETATM    1  C   UNL     1     -22.561 -13.192  -3.067  1.00  0.00     0.116 C 
HETATM    2  C   UNL     1     -21.454 -13.098  -1.984  1.00  0.00     0.053 C 
HETATM    3  C   UNL     1     -20.021 -13.019  -2.440  1.00  0.00     0.020 C 
HETATM    4  C   UNL     1     -19.339 -14.391  -2.722  1.00  0.00     0.013 C 
HETATM    5  C   UNL     1     -19.879 -12.090  -3.685  1.00  0.00     0.083 C 
HETATM    6  O   UNL     1     -20.217 -12.959  -4.805  1.00  0.00    -0.320 OA
HETATM    7  C   UNL     1     -21.647 -13.067  -5.221  1.00  0.00     0.288 C 
HETATM    8  O   UNL     1     -22.391 -11.893  -5.320  1.00  0.00    -0.323 OA
HETATM    9  C   UNL     1     -22.313 -11.593  -3.919  1.00  0.00     0.173 C 
HETATM   10  C   UNL     1     -20.867 -10.945  -3.894  1.00  0.00     0.054 C 
HETATM   11  C   UNL     1     -20.407 -10.369  -5.338  1.00  0.00     0.017 C 
HETATM   12  C   UNL     1     -19.595  -9.323  -5.494  1.00  0.00     0.014 C 
HETATM   13  C   UNL     1     -18.121  -9.665  -5.472  1.00  0.00     0.053 C 
HETATM   14  C   UNL     1     -17.837 -10.083  -4.025  1.00  0.00     0.125 C 
HETATM   15  C   UNL     1     -16.349 -10.247  -3.747  1.00  0.00     0.165 C 
HETATM   16  O   UNL     1     -15.499  -9.439  -4.033  1.00  0.00    -0.294 OA
HETATM   17  C   UNL     1     -16.100 -11.438  -2.865  1.00  0.00     0.055 C 
HETATM   18  C   UNL     1     -15.958 -10.898  -1.444  1.00  0.00     0.018 C 
HETATM   19  C   UNL     1     -17.135 -12.230  -3.234  1.00  0.00     0.023 C 
HETATM   20  C   UNL     1     -18.407 -11.418  -3.451  1.00  0.00     0.064 C 
HETATM   21  O   UNL     1     -22.442 -13.760  -4.358  1.00  0.00    -0.314 OA
ENDROOT
BRANCH  12  22
HETATM   22  C   UNL     1     -19.974  -7.944  -5.021  1.00  0.00     0.183 C 
BRANCH  22  23
HETATM   23  O   UNL     1     -20.244  -7.177  -6.202  1.00  0.00    -0.321 OA
BRANCH  23  24
HETATM   24  C   UNL     1     -21.132  -6.144  -6.071  1.00  0.00     0.263 C 
HETATM   25  O   UNL     1     -22.180  -6.184  -5.510  1.00  0.00    -0.265 OA
BRANCH  24  26
HETATM   26  C   UNL     1     -20.571  -4.906  -6.758  1.00  0.00     0.149 C 
BRANCH  26  27
HETATM   27  C   UNL     1     -20.957  -4.768  -8.216  1.00  0.00    -0.046 A 
HETATM   28  C   UNL     1     -19.981  -4.704  -9.213  1.00  0.00     0.010 A 
HETATM   29  C   UNL     1     -20.343  -4.513 -10.549  1.00  0.00     0.040 A 
HETATM   30  C   UNL     1     -21.694  -4.432 -10.901  1.00  0.00     0.099 A 
HETATM   31  C   UNL     1     -22.675  -4.576  -9.903  1.00  0.00     0.101 A 
HETATM   32  C   UNL     1     -22.306  -4.710  -8.583  1.00  0.00     0.047 A 
BRANCH  30  33
HETATM   33  O   UNL     1     -22.024  -4.191 -12.204  1.00  0.00    -0.358 OA
HETATM   34  H   UNL     1     -22.993  -4.209 -12.297  1.00  0.00     0.217 HD
ENDBRANCH  30  33
BRANCH  31  35
HETATM   35  O   UNL     1     -24.040  -4.534 -10.111  1.00  0.00    -0.353 OA
HETATM   36  C   UNL     1     -24.711  -3.349  -9.695  1.00  0.00     0.210 C 
ENDBRANCH  31  35
ENDBRANCH  26  27
ENDBRANCH  24  26
ENDBRANCH  23  24
ENDBRANCH  22  23
ENDBRANCH  12  22
BRANCH  14  37
HETATM   37  O   UNL     1     -18.198  -8.990  -3.124  1.00  0.00    -0.382 OA
HETATM   38  H   UNL     1     -17.495  -8.955  -2.443  1.00  0.00     0.211 HD
ENDBRANCH  14  37
BRANCH   1  39
HETATM   39  C   UNL     1     -22.864 -14.854  -2.866  1.00  0.00    -0.056 C 
HETATM   40  C   UNL     1     -22.184 -15.976  -3.311  1.00  0.00     0.017 C 
HETATM   41  C   UNL     1     -24.057 -15.239  -2.045  1.00  0.00     0.046 C 
ENDBRANCH   1  39
BRANCH   7  42
HETATM   42  C   UNL     1     -21.581 -13.843  -6.465  1.00  0.00     0.140 C 
BRANCH  42  43
HETATM   43  C   UNL     1     -20.514 -14.380  -7.334  1.00  0.00    -0.051 A 
HETATM   44  C   UNL     1     -19.863 -15.616  -7.403  1.00  0.00     0.007 A 
HETATM   45  C   UNL     1     -18.833 -15.749  -8.349  1.00  0.00     0.001 A 
HETATM   46  C   UNL     1     -18.439 -14.697  -9.167  1.00  0.00     0.000 A 
HETATM   47  C   UNL     1     -19.063 -13.458  -9.063  1.00  0.00     0.001 A 
HETATM   48  C   UNL     1     -20.090 -13.295  -8.142  1.00  0.00     0.007 A 
ENDBRANCH  42  43
ENDBRANCH   7  42
TORSDOF 11
ENDMDL
MODEL 7
REMARK VINA RESULT:      -9.2      3.596      8.356
REMARK  11 active torsions:
REMARK  status: ('A' for Active; 'I' for Inactive)
REMARK    1  A    between atoms: C_2  and  C_4 
REMARK    2  A    between atoms: C_10  and  C_11 
REMARK    3  A    between atoms: C_11  and  C_12 
REMARK    4  A    between atoms: C_22  and  C_23 
REMARK    5  A    between atoms: C_23  and  O_24 
REMARK    6  A    between atoms: O_24  and  C_25 
REMARK    7  A    between atoms: C_25  and  C_27 
REMARK    8  A    between atoms: C_27  and  C_28 
REMARK    9  A    between atoms: C_31  and  O_32 
REMARK   10  A    between atoms: C_33  and  O_34 
REMARK   11  A    between atoms: C_38  and  O_39 
ROOT
HETATM    1  C   UNL     1     -20.770 -10.714   0.218  1.00  0.00     0.116 C 
HETATM    2  C   UNL     1     -21.940 -11.721   0.076  1.00  0.00     0.053 C 
HETATM    3  C   UNL     1     -22.315 -12.182  -1.308  1.00  0.00     0.020 C 
HETATM    4  C   UNL     1     -23.300 -11.247  -2.072  1.00  0.00     0.013 C 
HETATM    5  C   UNL     1     -21.046 -12.438  -2.177  1.00  0.00     0.083 C 
HETATM    6  O   UNL     1     -20.698 -11.115  -2.680  1.00  0.00    -0.320 OA
HETATM    7  C   UNL     1     -19.794 -10.254  -1.862  1.00  0.00     0.288 C 
HETATM    8  O   UNL     1     -18.658 -10.837  -1.306  1.00  0.00    -0.323 OA
HETATM    9  C   UNL     1     -19.396 -11.720  -0.448  1.00  0.00     0.173 C 
HETATM   10  C   UNL     1     -19.738 -12.850  -1.506  1.00  0.00     0.054 C 
HETATM   11  C   UNL     1     -18.713 -12.870  -2.762  1.00  0.00     0.017 C 
HETATM   12  C   UNL     1     -18.388 -13.975  -3.436  1.00  0.00     0.014 C 
HETATM   13  C   UNL     1     -19.337 -14.324  -4.561  1.00  0.00     0.053 C 
HETATM   14  C   UNL     1     -20.636 -14.741  -3.864  1.00  0.00     0.125 C 
HETATM   15  C   UNL     1     -21.646 -15.349  -4.828  1.00  0.00     0.165 C 
HETATM   16  O   UNL     1     -21.401 -16.223  -5.625  1.00  0.00    -0.294 OA
HETATM   17  C   UNL     1     -23.039 -14.888  -4.503  1.00  0.00     0.055 C 
HETATM   18  C   UNL     1     -23.676 -15.998  -3.671  1.00  0.00     0.018 C 
HETATM   19  C   UNL     1     -22.770 -13.664  -3.987  1.00  0.00     0.023 C 
HETATM   20  C   UNL     1     -21.517 -13.688  -3.120  1.00  0.00     0.064 C 
HETATM   21  O   UNL     1     -20.359  -9.747  -0.731  1.00  0.00    -0.314 OA
ENDROOT
BRANCH  12  22
HETATM   22  C   UNL     1     -17.668 -15.124  -2.779  1.00  0.00     0.183 C 
BRANCH  22  23
HETATM   23  O   UNL     1     -16.702 -14.539  -1.896  1.00  0.00    -0.321 OA
BRANCH  23  24
HETATM   24  C   UNL     1     -15.396 -14.585  -2.300  1.00  0.00     0.263 C 
HETATM   25  O   UNL     1     -14.821 -15.541  -2.713  1.00  0.00    -0.265 OA
BRANCH  24  26
HETATM   26  C   UNL     1     -14.771 -13.205  -2.146  1.00  0.00     0.149 C 
BRANCH  26  27
HETATM   27  C   UNL     1     -15.199 -12.200  -3.194  1.00  0.00    -0.046 A 
HETATM   28  C   UNL     1     -15.559 -10.900  -2.835  1.00  0.00     0.010 A 
HETATM   29  C   UNL     1     -16.014  -9.997  -3.801  1.00  0.00     0.040 A 
HETATM   30  C   UNL     1     -16.067 -10.381  -5.145  1.00  0.00     0.099 A 
HETATM   31  C   UNL     1     -15.629 -11.667  -5.511  1.00  0.00     0.101 A 
HETATM   32  C   UNL     1     -15.234 -12.565  -4.545  1.00  0.00     0.047 A 
BRANCH  30  33
HETATM   33  O   UNL     1     -16.567  -9.503  -6.064  1.00  0.00    -0.358 OA
HETATM   34  H   UNL     1     -16.363  -9.827  -6.958  1.00  0.00     0.217 HD
ENDBRANCH  30  33
BRANCH  31  35
HETATM   35  O   UNL     1     -15.612 -12.170  -6.797  1.00  0.00    -0.353 OA
HETATM   36  C   UNL     1     -16.761 -12.900  -7.211  1.00  0.00     0.210 C 
ENDBRANCH  31  35
ENDBRANCH  26  27
ENDBRANCH  24  26
ENDBRANCH  23  24
ENDBRANCH  22  23
ENDBRANCH  12  22
BRANCH  14  37
HETATM   37  O   UNL     1     -20.367 -15.855  -2.959  1.00  0.00    -0.382 OA
HETATM   38  H   UNL     1     -20.688 -15.575  -2.078  1.00  0.00     0.211 HD
ENDBRANCH  14  37
BRANCH   1  39
HETATM   39  C   UNL     1     -21.744  -9.349   0.504  1.00  0.00    -0.056 C 
HETATM   40  C   UNL     1     -22.978  -8.973  -0.003  1.00  0.00     0.017 C 
HETATM   41  C   UNL     1     -21.244  -8.345   1.497  1.00  0.00     0.046 C 
ENDBRANCH   1  39
BRANCH   7  42
HETATM   42  C   UNL     1     -19.512  -9.119  -2.749  1.00  0.00     0.140 C 
BRANCH  42  43
HETATM   43  C   UNL     1     -20.282  -8.288  -3.699  1.00  0.00    -0.051 A 
HETATM   44  C   UNL     1     -20.292  -8.184  -5.093  1.00  0.00     0.007 A 
HETATM   45  C   UNL     1     -21.142  -7.219  -5.659  1.00  0.00     0.001 A 
HETATM   46  C   UNL     1     -21.923  -6.372  -4.882  1.00  0.00     0.000 A 
HETATM   47  C   UNL     1     -21.875  -6.454  -3.495  1.00  0.00     0.001 A 
HETATM   48  C   UNL     1     -21.049  -7.400  -2.902  1.00  0.00     0.007 A 
ENDBRANCH  42  43
ENDBRANCH   7  42
TORSDOF 11
ENDMDL
MODEL 8
REMARK VINA RESULT:      -9.2      1.927      2.491
REMARK  11 active torsions:
REMARK  status: ('A' for Active; 'I' for Inactive)
REMARK    1  A    between atoms: C_2  and  C_4 
REMARK    2  A    between atoms: C_10  and  C_11 
REMARK    3  A    between atoms: C_11  and  C_12 
REMARK    4  A    between atoms: C_22  and  C_23 
REMARK    5  A    between atoms: C_23  and  O_24 
REMARK    6  A    between atoms: O_24  and  C_25 
REMARK    7  A    between atoms: C_25  and  C_27 
REMARK    8  A    between atoms: C_27  and  C_28 
REMARK    9  A    between atoms: C_31  and  O_32 
REMARK   10  A    between atoms: C_33  and  O_34 
REMARK   11  A    between atoms: C_38  and  O_39 
ROOT
HETATM    1  C   UNL     1     -18.334 -12.230  -4.895  1.00  0.00     0.116 C 
HETATM    2  C   UNL     1     -19.743 -12.798  -4.581  1.00  0.00     0.053 C 
HETATM    3  C   UNL     1     -20.293 -12.602  -3.193  1.00  0.00     0.020 C 
HETATM    4  C   UNL     1     -19.855 -13.673  -2.149  1.00  0.00     0.013 C 
HETATM    5  C   UNL     1     -19.965 -11.175  -2.656  1.00  0.00     0.083 C 
HETATM    6  O   UNL     1     -18.611 -11.304  -2.132  1.00  0.00    -0.320 OA
HETATM    7  C   UNL     1     -17.462 -11.070  -3.055  1.00  0.00     0.288 C 
HETATM    8  O   UNL     1     -17.514  -9.964  -3.901  1.00  0.00    -0.323 OA
HETATM    9  C   UNL     1     -18.644 -10.446  -4.643  1.00  0.00     0.173 C 
HETATM   10  C   UNL     1     -19.790 -10.017  -3.636  1.00  0.00     0.054 C 
HETATM   11  C   UNL     1     -19.346  -8.810  -2.649  1.00  0.00     0.017 C 
HETATM   12  C   UNL     1     -20.193  -7.901  -2.163  1.00  0.00     0.014 C 
HETATM   13  C   UNL     1     -20.893  -8.315  -0.888  1.00  0.00     0.053 C 
HETATM   14  C   UNL     1     -21.839  -9.446  -1.308  1.00  0.00     0.125 C 
HETATM   15  C   UNL     1     -22.802  -9.844  -0.198  1.00  0.00     0.165 C 
HETATM   16  O   UNL     1     -23.471  -9.072   0.446  1.00  0.00    -0.294 OA
HETATM   17  C   UNL     1     -22.987 -11.334  -0.161  1.00  0.00     0.055 C 
HETATM   18  C   UNL     1     -24.278 -11.626  -0.921  1.00  0.00     0.018 C 
HETATM   19  C   UNL     1     -21.776 -11.736  -0.618  1.00  0.00     0.023 C 
HETATM   20  C   UNL     1     -21.278 -10.836  -1.743  1.00  0.00     0.064 C 
HETATM   21  O   UNL     1     -17.266 -12.049  -3.983  1.00  0.00    -0.314 OA
ENDROOT
BRANCH  12  22
HETATM   22  C   UNL     1     -20.936  -6.946  -3.061  1.00  0.00     0.183 C 
BRANCH  22  23
HETATM   23  O   UNL     1     -21.109  -7.625  -4.311  1.00  0.00    -0.321 OA
BRANCH  23  24
HETATM   24  C   UNL     1     -20.549  -7.034  -5.411  1.00  0.00     0.263 C 
HETATM   25  O   UNL     1     -19.786  -7.540  -6.169  1.00  0.00    -0.265 OA
BRANCH  24  26
HETATM   26  C   UNL     1     -21.060  -5.604  -5.530  1.00  0.00     0.149 C 
BRANCH  26  27
HETATM   27  C   UNL     1     -21.044  -5.046  -6.937  1.00  0.00    -0.046 A 
HETATM   28  C   UNL     1     -19.860  -5.002  -7.677  1.00  0.00     0.010 A 
HETATM   29  C   UNL     1     -19.841  -4.427  -8.951  1.00  0.00     0.040 A 
HETATM   30  C   UNL     1     -21.024  -3.935  -9.513  1.00  0.00     0.099 A 
HETATM   31  C   UNL     1     -22.228  -4.054  -8.795  1.00  0.00     0.101 A 
HETATM   32  C   UNL     1     -22.226  -4.572  -7.520  1.00  0.00     0.047 A 
BRANCH  30  33
HETATM   33  O   UNL     1     -20.972  -3.329 -10.736  1.00  0.00    -0.358 OA
HETATM   34  H   UNL     1     -20.945  -4.011 -11.429  1.00  0.00     0.217 HD
ENDBRANCH  30  33
BRANCH  31  35
HETATM   35  O   UNL     1     -23.466  -3.628  -9.234  1.00  0.00    -0.353 OA
HETATM   36  C   UNL     1     -24.346  -4.630  -9.729  1.00  0.00     0.210 C 
ENDBRANCH  31  35
ENDBRANCH  26  27
ENDBRANCH  24  26
ENDBRANCH  23  24
ENDBRANCH  22  23
ENDBRANCH  12  22
BRANCH  14  37
HETATM   37  O   UNL     1     -22.748  -8.959  -2.343  1.00  0.00    -0.382 OA
HETATM   38  H   UNL     1     -23.650  -9.027  -1.968  1.00  0.00     0.211 HD
ENDBRANCH  14  37
BRANCH   1  39
HETATM   39  C   UNL     1     -17.523 -13.724  -4.837  1.00  0.00    -0.056 C 
HETATM   40  C   UNL     1     -17.266 -14.594  -3.789  1.00  0.00     0.017 C 
HETATM   41  C   UNL     1     -16.989 -14.266  -6.127  1.00  0.00     0.046 C 
ENDBRANCH   1  39
BRANCH   7  42
HETATM   42  C   UNL     1     -16.298 -11.087  -2.160  1.00  0.00     0.140 C 
BRANCH  42  43
HETATM   43  C   UNL     1     -15.643 -12.076  -1.279  1.00  0.00    -0.051 A 
HETATM   44  C   UNL     1     -14.870 -13.215  -1.522  1.00  0.00     0.007 A 
HETATM   45  C   UNL     1     -14.452 -13.958  -0.406  1.00  0.00     0.001 A 
HETATM   46  C   UNL     1     -14.809 -13.612   0.891  1.00  0.00     0.000 A 
HETATM   47  C   UNL     1     -15.613 -12.500   1.122  1.00  0.00     0.001 A 
HETATM   48  C   UNL     1     -16.039 -11.740   0.041  1.00  0.00     0.007 A 
ENDBRANCH  42  43
ENDBRANCH   7  42
TORSDOF 11
ENDMDL
MODEL 9
REMARK VINA RESULT:      -9.1      1.689      2.538
REMARK  11 active torsions:
REMARK  status: ('A' for Active; 'I' for Inactive)
REMARK    1  A    between atoms: C_2  and  C_4 
REMARK    2  A    between atoms: C_10  and  C_11 
REMARK    3  A    between atoms: C_11  and  C_12 
REMARK    4  A    between atoms: C_22  and  C_23 
REMARK    5  A    between atoms: C_23  and  O_24 
REMARK    6  A    between atoms: O_24  and  C_25 
REMARK    7  A    between atoms: C_25  and  C_27 
REMARK    8  A    between atoms: C_27  and  C_28 
REMARK    9  A    between atoms: C_31  and  O_32 
REMARK   10  A    between atoms: C_33  and  O_34 
REMARK   11  A    between atoms: C_38  and  O_39 
ROOT
HETATM    1  C   UNL     1     -19.094 -11.387  -6.616  1.00  0.00     0.116 C 
HETATM    2  C   UNL     1     -20.401 -12.149  -6.275  1.00  0.00     0.053 C 
HETATM    3  C   UNL     1     -20.543 -12.730  -4.893  1.00  0.00     0.020 C 
HETATM    4  C   UNL     1     -19.914 -14.142  -4.699  1.00  0.00     0.013 C 
HETATM    5  C   UNL     1     -19.988 -11.750  -3.813  1.00  0.00     0.083 C 
HETATM    6  O   UNL     1     -18.556 -12.016  -3.809  1.00  0.00    -0.320 OA
HETATM    7  C   UNL     1     -17.684 -11.253  -4.749  1.00  0.00     0.288 C 
HETATM    8  O   UNL     1     -17.887  -9.880  -4.865  1.00  0.00    -0.323 OA
HETATM    9  C   UNL     1     -19.204 -10.009  -5.419  1.00  0.00     0.173 C 
HETATM   10  C   UNL     1     -20.007 -10.246  -4.073  1.00  0.00     0.054 C 
HETATM   11  C   UNL     1     -19.234  -9.674  -2.767  1.00  0.00     0.017 C 
HETATM   12  C   UNL     1     -19.857  -9.209  -1.682  1.00  0.00     0.014 C 
HETATM   13  C   UNL     1     -20.214 -10.269  -0.664  1.00  0.00     0.053 C 
HETATM   14  C   UNL     1     -21.311 -11.104  -1.333  1.00  0.00     0.125 C 
HETATM   15  C   UNL     1     -21.965 -12.087  -0.372  1.00  0.00     0.165 C 
HETATM   16  O   UNL     1     -22.384 -11.806   0.726  1.00  0.00    -0.294 OA
HETATM   17  C   UNL     1     -22.233 -13.400  -1.051  1.00  0.00     0.055 C 
HETATM   18  C   UNL     1     -23.697 -13.371  -1.481  1.00  0.00     0.018 C 
HETATM   19  C   UNL     1     -21.219 -13.414  -1.951  1.00  0.00     0.023 C 
HETATM   20  C   UNL     1     -20.983 -12.031  -2.546  1.00  0.00     0.064 C 
HETATM   21  O   UNL     1     -17.811 -11.606  -6.059  1.00  0.00    -0.314 OA
ENDROOT
BRANCH  12  22
HETATM   22  C   UNL     1     -20.748  -7.996  -1.735  1.00  0.00     0.183 C 
BRANCH  22  23
HETATM   23  O   UNL     1     -21.130  -7.840  -3.108  1.00  0.00    -0.321 OA
BRANCH  23  24
HETATM   24  C   UNL     1     -21.897  -6.748  -3.409  1.00  0.00     0.263 C 
HETATM   25  O   UNL     1     -22.167  -5.854  -2.673  1.00  0.00    -0.265 OA
BRANCH  24  26
HETATM   26  C   UNL     1     -22.362  -6.842  -4.857  1.00  0.00     0.149 C 
BRANCH  26  27
HETATM   27  C   UNL     1     -21.577  -5.983  -5.825  1.00  0.00    -0.046 A 
HETATM   28  C   UNL     1     -20.240  -5.661  -5.576  1.00  0.00     0.010 A 
HETATM   29  C   UNL     1     -19.541  -4.815  -6.442  1.00  0.00     0.040 A 
HETATM   30  C   UNL     1     -20.166  -4.324  -7.593  1.00  0.00     0.099 A 
HETATM   31  C   UNL     1     -21.487  -4.715  -7.879  1.00  0.00     0.101 A 
HETATM   32  C   UNL     1     -22.184  -5.504  -6.992  1.00  0.00     0.047 A 
BRANCH  30  33
HETATM   33  O   UNL     1     -19.483  -3.456  -8.396  1.00  0.00    -0.358 OA
HETATM   34  H   UNL     1     -18.623  -3.253  -7.988  1.00  0.00     0.217 HD
ENDBRANCH  30  33
BRANCH  31  35
HETATM   35  O   UNL     1     -22.217  -4.319  -8.983  1.00  0.00    -0.353 OA
HETATM   36  C   UNL     1     -23.586  -4.001  -8.761  1.00  0.00     0.210 C 
ENDBRANCH  31  35
ENDBRANCH  26  27
ENDBRANCH  24  26
ENDBRANCH  23  24
ENDBRANCH  22  23
ENDBRANCH  12  22
BRANCH  14  37
HETATM   37  O   UNL     1     -22.430 -10.236  -1.693  1.00  0.00    -0.382 OA
HETATM   38  H   UNL     1     -22.943 -10.719  -2.372  1.00  0.00     0.211 HD
ENDBRANCH  14  37
BRANCH   1  39
HETATM   39  C   UNL     1     -18.399 -12.633  -7.543  1.00  0.00    -0.056 C 
HETATM   40  C   UNL     1     -17.608 -13.714  -7.191  1.00  0.00     0.017 C 
HETATM   41  C   UNL     1     -18.679 -12.630  -9.015  1.00  0.00     0.046 C 
ENDBRANCH   1  39
BRANCH   7  42
HETATM   42  C   UNL     1     -16.326 -11.626  -4.332  1.00  0.00     0.140 C 
BRANCH  42  43
HETATM   43  C   UNL     1     -15.181 -12.338  -4.937  1.00  0.00    -0.051 A 
HETATM   44  C   UNL     1     -14.242 -11.991  -5.912  1.00  0.00     0.007 A 
HETATM   45  C   UNL     1     -13.305 -12.971  -6.281  1.00  0.00     0.001 A 
HETATM   46  C   UNL     1     -13.317 -14.249  -5.735  1.00  0.00     0.000 A 
HETATM   47  C   UNL     1     -14.281 -14.599  -4.796  1.00  0.00     0.001 A 
HETATM   48  C   UNL     1     -15.219 -13.652  -4.405  1.00  0.00     0.007 A 
ENDBRANCH  42  43
ENDBRANCH   7  42
TORSDOF 11
ENDMDL
