MODEL 1
REMARK VINA RESULT:      -6.1      0.000      0.000
REMARK  2 active torsions:
REMARK  status: ('A' for Active; 'I' for Inactive)
REMARK    1  A    between atoms: C_2  and  N_11 
REMARK    2  A    between atoms: N_3  and  O_10 
ROOT
HETATM    1  C   UNL     1     -22.902  -3.866 -10.366  1.00  0.00     0.062 C 
HETATM    2  C   UNL     1     -24.010  -3.391 -10.970  1.00  0.00     0.126 C 
HETATM    3  N   UNL     1     -23.945  -3.139 -12.333  1.00  0.00    -0.042 N 
HETATM    4  C   UNL     1     -22.772  -3.277 -13.061  1.00  0.00     0.703 C 
HETATM    5  N   UNL     1     -22.640  -2.892 -14.290  1.00  0.00    -0.232 N 
ATOM      6  HN  UNL     1     -21.816  -2.974 -14.884  1.00  0.00     0.174 HD
HETATM    7  N   UNL     1     -21.653  -3.842 -12.506  1.00  0.00    -0.200 N 
ATOM      8  HN  UNL     1     -20.816  -4.042 -13.053  1.00  0.00     0.183 HD
HETATM    9  C   UNL     1     -21.732  -4.105 -11.244  1.00  0.00     0.109 C 
HETATM   10  H   UNL     1     -23.551  -2.483 -14.531  1.00  0.00     0.174 HD
ENDROOT
BRANCH   2  11
HETATM   11  N   UNL     1     -25.170  -3.155 -10.234  1.00  0.00    -0.286 NA
HETATM   12  H   UNL     1     -25.468  -3.965  -9.693  1.00  0.00     0.125 HD
HETATM   13  H   UNL     1     -25.935  -2.855 -10.834  1.00  0.00     0.125 HD
ENDBRANCH   2  11
BRANCH   3  14
HETATM   14  O   UNL     1     -24.968  -2.447 -12.994  1.00  0.00    -0.268 OA
HETATM   15  H   UNL     1     -25.575  -3.159 -13.258  1.00  0.00     0.246 HD
ENDBRANCH   3  14
TORSDOF 2
ENDMDL
MODEL 2
REMARK VINA RESULT:      -6.0      1.970      3.182
REMARK  2 active torsions:
REMARK  status: ('A' for Active; 'I' for Inactive)
REMARK    1  A    between atoms: C_2  and  N_11 
REMARK    2  A    between atoms: N_3  and  O_10 
ROOT
HETATM    1  C   UNL     1     -22.898  -3.493 -11.938  1.00  0.00     0.062 C 
HETATM    2  C   UNL     1     -24.174  -3.241 -11.582  1.00  0.00     0.126 C 
HETATM    3  N   UNL     1     -24.500  -3.334 -10.237  1.00  0.00    -0.042 N 
HETATM    4  C   UNL     1     -23.590  -3.752  -9.277  1.00  0.00     0.703 C 
HETATM    5  N   UNL     1     -23.909  -4.008  -8.048  1.00  0.00    -0.232 N 
ATOM      6  HN  UNL     1     -23.292  -4.305  -7.292  1.00  0.00     0.174 HD
HETATM    7  N   UNL     1     -22.265  -3.928  -9.581  1.00  0.00    -0.200 N 
ATOM      8  HN  UNL     1     -21.566  -4.139  -8.869  1.00  0.00     0.183 HD
HETATM    9  C   UNL     1     -21.963  -3.808 -10.831  1.00  0.00     0.109 C 
HETATM   10  H   UNL     1     -24.922  -3.845  -8.006  1.00  0.00     0.174 HD
ENDROOT
BRANCH   2  11
HETATM   11  N   UNL     1     -25.124  -2.912 -12.547  1.00  0.00    -0.286 NA
HETATM   12  H   UNL     1     -25.966  -2.499 -12.150  1.00  0.00     0.125 HD
HETATM   13  H   UNL     1     -25.381  -3.723 -13.106  1.00  0.00     0.125 HD
ENDBRANCH   2  11
BRANCH   3  14
HETATM   14  O   UNL     1     -25.834  -3.303  -9.807  1.00  0.00    -0.268 OA
HETATM   15  H   UNL     1     -26.327  -3.505 -10.621  1.00  0.00     0.246 HD
ENDBRANCH   3  14
TORSDOF 2
ENDMDL
MODEL 3
REMARK VINA RESULT:      -5.8      1.295      3.216
REMARK  2 active torsions:
REMARK  status: ('A' for Active; 'I' for Inactive)
REMARK    1  A    between atoms: C_2  and  N_11 
REMARK    2  A    between atoms: N_3  and  O_10 
ROOT
HETATM    1  C   UNL     1     -21.932  -3.979 -10.156  1.00  0.00     0.062 C 
HETATM    2  C   UNL     1     -22.647  -3.642 -11.249  1.00  0.00     0.126 C 
HETATM    3  N   UNL     1     -23.996  -3.367 -11.079  1.00  0.00    -0.042 N 
HETATM    4  C   UNL     1     -24.637  -3.508  -9.857  1.00  0.00     0.703 C 
HETATM    5  N   UNL     1     -25.920  -3.422  -9.704  1.00  0.00    -0.232 N 
ATOM      6  HN  UNL     1     -26.452  -3.502  -8.838  1.00  0.00     0.174 HD
HETATM    7  N   UNL     1     -23.932  -3.758  -8.708  1.00  0.00    -0.200 N 
ATOM      8  HN  UNL     1     -24.373  -3.767  -7.789  1.00  0.00     0.183 HD
HETATM    9  C   UNL     1     -22.670  -3.981  -8.870  1.00  0.00     0.109 C 
HETATM   10  H   UNL     1     -26.281  -3.255 -10.651  1.00  0.00     0.174 HD
ENDROOT
BRANCH   2  11
HETATM   11  N   UNL     1     -22.038  -3.589 -12.502  1.00  0.00    -0.286 NA
HETATM   12  H   UNL     1     -22.523  -2.973 -13.152  1.00  0.00     0.125 HD
HETATM   13  H   UNL     1     -21.960  -4.515 -12.915  1.00  0.00     0.125 HD
ENDBRANCH   2  11
BRANCH   3  14
HETATM   14  O   UNL     1     -24.854  -3.223 -12.178  1.00  0.00    -0.268 OA
HETATM   15  H   UNL     1     -25.114  -2.287 -12.128  1.00  0.00     0.246 HD
ENDBRANCH   3  14
TORSDOF 2
ENDMDL
MODEL 4
REMARK VINA RESULT:      -5.7      1.830      2.467
REMARK  2 active torsions:
REMARK  status: ('A' for Active; 'I' for Inactive)
REMARK    1  A    between atoms: C_2  and  N_11 
REMARK    2  A    between atoms: N_3  and  O_10 
ROOT
HETATM    1  C   UNL     1     -24.520  -3.114 -12.505  1.00  0.00     0.062 C 
HETATM    2  C   UNL     1     -24.176  -3.211 -11.204  1.00  0.00     0.126 C 
HETATM    3  N   UNL     1     -22.827  -3.322 -10.900  1.00  0.00    -0.042 N 
HETATM    4  C   UNL     1     -21.848  -3.420 -11.877  1.00  0.00     0.703 C 
HETATM    5  N   UNL     1     -20.607  -3.691 -11.627  1.00  0.00    -0.232 N 
ATOM      6  HN  UNL     1     -19.837  -3.764 -12.292  1.00  0.00     0.174 HD
HETATM    7  N   UNL     1     -22.144  -3.233 -13.203  1.00  0.00    -0.200 N 
ATOM      8  HN  UNL     1     -21.423  -3.203 -13.924  1.00  0.00     0.183 HD
HETATM    9  C   UNL     1     -23.399  -3.097 -13.476  1.00  0.00     0.109 C 
HETATM   10  H   UNL     1     -20.572  -3.816 -10.608  1.00  0.00     0.174 HD
ENDROOT
BRANCH   2  11
HETATM   11  N   UNL     1     -25.156  -3.211 -10.213  1.00  0.00    -0.286 NA
HETATM   12  H   UNL     1     -24.789  -3.444  -9.293  1.00  0.00     0.125 HD
HETATM   13  H   UNL     1     -25.914  -3.851 -10.442  1.00  0.00     0.125 HD
ENDBRANCH   2  11
BRANCH   3  14
HETATM   14  O   UNL     1     -22.398  -3.644  -9.605  1.00  0.00    -0.268 OA
HETATM   15  H   UNL     1     -21.429  -3.609  -9.684  1.00  0.00     0.246 HD
ENDBRANCH   3  14
TORSDOF 2
ENDMDL
MODEL 5
REMARK VINA RESULT:      -5.7      1.729      2.238
REMARK  2 active torsions:
REMARK  status: ('A' for Active; 'I' for Inactive)
REMARK    1  A    between atoms: C_2  and  N_11 
REMARK    2  A    between atoms: N_3  and  O_10 
ROOT
HETATM    1  C   UNL     1     -22.176  -4.045  -9.594  1.00  0.00     0.062 C 
HETATM    2  C   UNL     1     -23.456  -3.916  -9.189  1.00  0.00     0.126 C 
HETATM    3  N   UNL     1     -24.418  -3.667 -10.158  1.00  0.00    -0.042 N 
HETATM    4  C   UNL     1     -24.097  -3.467 -11.492  1.00  0.00     0.703 C 
HETATM    5  N   UNL     1     -24.947  -3.070 -12.384  1.00  0.00    -0.232 N 
ATOM      6  HN  UNL     1     -24.783  -2.916 -13.379  1.00  0.00     0.174 HD
HETATM    7  N   UNL     1     -22.825  -3.680 -11.958  1.00  0.00    -0.200 N 
ATOM      8  HN  UNL     1     -22.594  -3.634 -12.951  1.00  0.00     0.183 HD
HETATM    9  C   UNL     1     -21.941  -3.944 -11.054  1.00  0.00     0.109 C 
HETATM   10  H   UNL     1     -25.824  -2.944 -11.865  1.00  0.00     0.174 HD
ENDROOT
BRANCH   2  11
HETATM   11  N   UNL     1     -23.783  -4.019  -7.838  1.00  0.00    -0.286 NA
HETATM   12  H   UNL     1     -24.170  -3.158  -7.457  1.00  0.00     0.125 HD
HETATM   13  H   UNL     1     -22.978  -4.298  -7.282  1.00  0.00     0.125 HD
ENDBRANCH   2  11
BRANCH   3  14
HETATM   14  O   UNL     1     -25.726  -3.305  -9.808  1.00  0.00    -0.268 OA
HETATM   15  H   UNL     1     -25.815  -2.418 -10.196  1.00  0.00     0.246 HD
ENDBRANCH   3  14
TORSDOF 2
ENDMDL
MODEL 6
REMARK VINA RESULT:      -5.5      2.553      3.703
REMARK  2 active torsions:
REMARK  status: ('A' for Active; 'I' for Inactive)
REMARK    1  A    between atoms: C_2  and  N_11 
REMARK    2  A    between atoms: N_3  and  O_10 
ROOT
HETATM    1  C   UNL     1     -22.107  -3.476 -11.011  1.00  0.00     0.062 C 
HETATM    2  C   UNL     1     -22.297  -3.835  -9.725  1.00  0.00     0.126 C 
HETATM    3  N   UNL     1     -23.604  -3.938  -9.271  1.00  0.00    -0.042 N 
HETATM    4  C   UNL     1     -24.696  -3.608 -10.059  1.00  0.00     0.703 C 
HETATM    5  N   UNL     1     -25.909  -3.534  -9.613  1.00  0.00    -0.232 N 
ATOM      6  HN  UNL     1     -26.755  -3.311 -10.137  1.00  0.00     0.174 HD
HETATM    7  N   UNL     1     -24.552  -3.330 -11.394  1.00  0.00    -0.200 N 
ATOM      8  HN  UNL     1     -25.351  -3.182 -12.010  1.00  0.00     0.183 HD
HETATM    9  C   UNL     1     -23.333  -3.267 -11.818  1.00  0.00     0.109 C 
HETATM   10  H   UNL     1     -25.829  -3.750  -8.612  1.00  0.00     0.174 HD
ENDROOT
BRANCH   2  11
HETATM   11  N   UNL     1     -21.208  -4.077  -8.891  1.00  0.00    -0.286 NA
HETATM   12  H   UNL     1     -21.351  -4.873  -8.272  1.00  0.00     0.125 HD
HETATM   13  H   UNL     1     -20.979  -3.258  -8.332  1.00  0.00     0.125 HD
ENDBRANCH   2  11
BRANCH   3  14
HETATM   14  O   UNL     1     -23.890  -4.090  -7.906  1.00  0.00    -0.268 OA
HETATM   15  H   UNL     1     -24.184  -3.200  -7.647  1.00  0.00     0.246 HD
ENDBRANCH   3  14
TORSDOF 2
ENDMDL
MODEL 7
REMARK VINA RESULT:      -5.4     10.906     11.502
REMARK  2 active torsions:
REMARK  status: ('A' for Active; 'I' for Inactive)
REMARK    1  A    between atoms: C_2  and  N_11 
REMARK    2  A    between atoms: N_3  and  O_10 
ROOT
HETATM    1  C   UNL     1     -33.656  -3.268 -11.980  1.00  0.00     0.062 C 
HETATM    2  C   UNL     1     -34.292  -3.957 -12.950  1.00  0.00     0.126 C 
HETATM    3  N   UNL     1     -34.756  -5.227 -12.641  1.00  0.00    -0.042 N 
HETATM    4  C   UNL     1     -34.515  -5.832 -11.416  1.00  0.00     0.703 C 
HETATM    5  N   UNL     1     -34.787  -7.072 -11.160  1.00  0.00    -0.232 N 
ATOM      6  HN  UNL     1     -34.649  -7.573 -10.283  1.00  0.00     0.174 HD
HETATM    7  N   UNL     1     -33.955  -5.135 -10.377  1.00  0.00    -0.200 N 
ATOM      8  HN  UNL     1     -33.861  -5.532  -9.442  1.00  0.00     0.183 HD
HETATM    9  C   UNL     1     -33.555  -3.941 -10.662  1.00  0.00     0.109 C 
HETATM   10  H   UNL     1     -35.173  -7.436 -12.039  1.00  0.00     0.174 HD
ENDROOT
BRANCH   2  11
HETATM   11  N   UNL     1     -34.459  -3.401 -14.217  1.00  0.00    -0.286 NA
HETATM   12  H   UNL     1     -33.839  -2.612 -14.389  1.00  0.00     0.125 HD
HETATM   13  H   UNL     1     -35.422  -3.108 -14.368  1.00  0.00     0.125 HD
ENDBRANCH   2  11
BRANCH   3  14
HETATM   14  O   UNL     1     -35.230  -6.091 -13.638  1.00  0.00    -0.268 OA
HETATM   15  H   UNL     1     -34.836  -5.722 -14.448  1.00  0.00     0.246 HD
ENDBRANCH   3  14
TORSDOF 2
ENDMDL
MODEL 8
REMARK VINA RESULT:      -5.3     10.396     10.908
REMARK  2 active torsions:
REMARK  status: ('A' for Active; 'I' for Inactive)
REMARK    1  A    between atoms: C_2  and  N_11 
REMARK    2  A    between atoms: N_3  and  O_10 
ROOT
HETATM    1  C   UNL     1     -33.764  -3.019 -10.643  1.00  0.00     0.062 C 
HETATM    2  C   UNL     1     -34.417  -2.225 -11.517  1.00  0.00     0.126 C 
HETATM    3  N   UNL     1     -34.549  -2.674 -12.823  1.00  0.00    -0.042 N 
HETATM    4  C   UNL     1     -33.966  -3.851 -13.270  1.00  0.00     0.703 C 
HETATM    5  N   UNL     1     -33.929  -4.208 -14.513  1.00  0.00    -0.232 N 
ATOM      6  HN  UNL     1     -33.531  -5.060 -14.907  1.00  0.00     0.174 HD
HETATM    7  N   UNL     1     -33.374  -4.727 -12.397  1.00  0.00    -0.200 N 
ATOM      8  HN  UNL     1     -33.029  -5.641 -12.692  1.00  0.00     0.183 HD
HETATM    9  C   UNL     1     -33.285  -4.317 -11.175  1.00  0.00     0.109 C 
HETATM   10  H   UNL     1     -34.391  -3.440 -15.015  1.00  0.00     0.174 HD
ENDROOT
BRANCH   2  11
HETATM   11  N   UNL     1     -34.927  -0.995 -11.107  1.00  0.00    -0.286 NA
HETATM   12  H   UNL     1     -35.378  -0.481 -11.862  1.00  0.00     0.125 HD
HETATM   13  H   UNL     1     -34.202  -0.412 -10.695  1.00  0.00     0.125 HD
ENDBRANCH   2  11
BRANCH   3  14
HETATM   14  O   UNL     1     -35.016  -1.828 -13.839  1.00  0.00    -0.268 OA
HETATM   15  H   UNL     1     -34.219  -1.674 -14.374  1.00  0.00     0.246 HD
ENDBRANCH   3  14
TORSDOF 2
ENDMDL
MODEL 9
REMARK VINA RESULT:      -5.3      1.517      2.850
REMARK  2 active torsions:
REMARK  status: ('A' for Active; 'I' for Inactive)
REMARK    1  A    between atoms: C_2  and  N_11 
REMARK    2  A    between atoms: N_3  and  O_10 
ROOT
HETATM    1  C   UNL     1     -21.789  -3.877  -9.926  1.00  0.00     0.062 C 
HETATM    2  C   UNL     1     -21.472  -3.652 -11.218  1.00  0.00     0.126 C 
HETATM    3  N   UNL     1     -22.500  -3.306 -12.083  1.00  0.00    -0.042 N 
HETATM    4  C   UNL     1     -23.829  -3.271 -11.687  1.00  0.00     0.703 C 
HETATM    5  N   UNL     1     -24.820  -3.117 -12.506  1.00  0.00    -0.232 N 
ATOM      6  HN  UNL     1     -25.814  -3.070 -12.281  1.00  0.00     0.174 HD
HETATM    7  N   UNL     1     -24.182  -3.403 -10.368  1.00  0.00    -0.200 N 
ATOM      8  HN  UNL     1     -25.142  -3.281 -10.046  1.00  0.00     0.183 HD
HETATM    9  C   UNL     1     -23.214  -3.692  -9.563  1.00  0.00     0.109 C 
HETATM   10  H   UNL     1     -24.381  -3.056 -13.432  1.00  0.00     0.174 HD
ENDROOT
BRANCH   2  11
HETATM   11  N   UNL     1     -20.155  -3.776 -11.654  1.00  0.00    -0.286 NA
HETATM   12  H   UNL     1     -19.590  -4.366 -11.046  1.00  0.00     0.125 HD
HETATM   13  H   UNL     1     -19.708  -2.867 -11.747  1.00  0.00     0.125 HD
ENDBRANCH   2  11
BRANCH   3  14
HETATM   14  O   UNL     1     -22.301  -3.267 -13.471  1.00  0.00    -0.268 OA
HETATM   15  H   UNL     1     -22.409  -2.323 -13.677  1.00  0.00     0.246 HD
ENDBRANCH   3  14
TORSDOF 2
ENDMDL
