MODEL 1
REMARK VINA RESULT:      -7.5      0.000      0.000
REMARK  1 active torsions:
REMARK  status: ('A' for Active; 'I' for Inactive)
REMARK    1  A    between atoms: C_5  and  C_8 
ROOT
HETATM    1  C   UNL     1     -20.779  -8.813  -0.994  1.00  0.00     0.022 C 
HETATM    2  C   UNL     1     -21.279 -10.041  -0.823  1.00  0.00    -0.006 C 
HETATM    3  C   UNL     1     -22.106 -10.944  -1.716  1.00  0.00     0.031 C 
HETATM    4  C   UNL     1     -21.153 -12.084  -2.151  1.00  0.00     0.011 C 
HETATM    5  C   UNL     1     -20.985 -12.928  -0.862  1.00  0.00     0.018 C 
HETATM    6  C   UNL     1     -21.874 -12.184   0.166  1.00  0.00     0.029 C 
HETATM    7  C   UNL     1     -21.125 -10.874   0.423  1.00  0.00     0.165 C 
HETATM    8  O   UNL     1     -20.490 -10.558   1.413  1.00  0.00    -0.292 OA
HETATM    9  C   UNL     1     -23.054 -11.647  -0.698  1.00  0.00    -0.025 C 
HETATM   10  C   UNL     1     -23.939 -12.735  -1.338  1.00  0.00     0.016 C 
HETATM   11  C   UNL     1     -24.009 -10.692   0.053  1.00  0.00     0.016 C 
HETATM   12  C   UNL     1     -22.216 -12.993   1.397  1.00  0.00     0.025 C 
ENDROOT
BRANCH   1  13
HETATM   13  C   UNL     1     -20.924  -8.038  -2.229  1.00  0.00    -0.036 A 
HETATM   14  C   UNL     1     -20.271  -8.438  -3.398  1.00  0.00     0.012 A 
HETATM   15  C   UNL     1     -20.450  -7.725  -4.590  1.00  0.00     0.007 A 
HETATM   16  C   UNL     1     -21.282  -6.599  -4.628  1.00  0.00    -0.062 A 
HETATM   17  C   UNL     1     -21.478  -5.829  -5.902  1.00  0.00     0.048 C 
HETATM   18  C   UNL     1     -21.917  -6.188  -3.451  1.00  0.00     0.007 A 
HETATM   19  C   UNL     1     -21.742  -6.905  -2.261  1.00  0.00     0.012 A 
ENDBRANCH   1  13
TORSDOF 1
ENDMDL
MODEL 2
REMARK VINA RESULT:      -7.4      1.670      2.807
REMARK  1 active torsions:
REMARK  status: ('A' for Active; 'I' for Inactive)
REMARK    1  A    between atoms: C_5  and  C_8 
ROOT
HETATM    1  C   UNL     1     -21.947  -9.682  -3.593  1.00  0.00     0.022 C 
HETATM    2  C   UNL     1     -21.991  -9.937  -2.281  1.00  0.00    -0.006 C 
HETATM    3  C   UNL     1     -21.523  -9.159  -1.069  1.00  0.00     0.031 C 
HETATM    4  C   UNL     1     -22.812  -8.664  -0.369  1.00  0.00     0.011 C 
HETATM    5  C   UNL     1     -23.405  -9.954   0.254  1.00  0.00     0.018 C 
HETATM    6  C   UNL     1     -22.378 -11.043  -0.147  1.00  0.00     0.029 C 
HETATM    7  C   UNL     1     -22.563 -11.185  -1.660  1.00  0.00     0.165 C 
HETATM    8  O   UNL     1     -23.098 -12.098  -2.265  1.00  0.00    -0.292 OA
HETATM    9  C   UNL     1     -21.017 -10.286  -0.119  1.00  0.00    -0.025 C 
HETATM   10  C   UNL     1     -20.589  -9.769   1.269  1.00  0.00     0.016 C 
HETATM   11  C   UNL     1     -19.825 -11.100  -0.669  1.00  0.00     0.016 C 
HETATM   12  C   UNL     1     -22.486 -12.325   0.647  1.00  0.00     0.025 C 
ENDROOT
BRANCH   1  13
HETATM   13  C   UNL     1     -21.407  -8.446  -4.164  1.00  0.00    -0.036 A 
HETATM   14  C   UNL     1     -20.325  -8.486  -5.048  1.00  0.00     0.012 A 
HETATM   15  C   UNL     1     -19.840  -7.309  -5.632  1.00  0.00     0.007 A 
HETATM   16  C   UNL     1     -20.430  -6.074  -5.337  1.00  0.00    -0.062 A 
HETATM   17  C   UNL     1     -19.916  -4.807  -5.959  1.00  0.00     0.048 C 
HETATM   18  C   UNL     1     -21.500  -6.033  -4.436  1.00  0.00     0.007 A 
HETATM   19  C   UNL     1     -21.986  -7.211  -3.856  1.00  0.00     0.012 A 
ENDBRANCH   1  13
TORSDOF 1
ENDMDL
MODEL 3
REMARK VINA RESULT:      -7.2      3.633      5.735
REMARK  1 active torsions:
REMARK  status: ('A' for Active; 'I' for Inactive)
REMARK    1  A    between atoms: C_5  and  C_8 
ROOT
HETATM    1  C   UNL     1     -19.781  -8.748  -3.970  1.00  0.00     0.022 C 
HETATM    2  C   UNL     1     -18.769  -9.623  -3.996  1.00  0.00    -0.006 C 
HETATM    3  C   UNL     1     -18.232 -10.599  -2.969  1.00  0.00     0.031 C 
HETATM    4  C   UNL     1     -18.622 -12.004  -3.487  1.00  0.00     0.011 C 
HETATM    5  C   UNL     1     -17.678 -12.219  -4.698  1.00  0.00     0.018 C 
HETATM    6  C   UNL     1     -16.841 -10.915  -4.728  1.00  0.00     0.029 C 
HETATM    7  C   UNL     1     -17.844  -9.843  -5.164  1.00  0.00     0.165 C 
HETATM    8  O   UNL     1     -17.923  -9.289  -6.246  1.00  0.00    -0.292 OA
HETATM    9  C   UNL     1     -16.695 -10.543  -3.223  1.00  0.00    -0.025 C 
HETATM   10  C   UNL     1     -15.899 -11.556  -2.377  1.00  0.00     0.016 C 
HETATM   11  C   UNL     1     -16.054  -9.161  -2.969  1.00  0.00     0.016 C 
HETATM   12  C   UNL     1     -15.579 -11.003  -5.556  1.00  0.00     0.025 C 
ENDROOT
BRANCH   1  13
HETATM   13  C   UNL     1     -20.680  -8.576  -2.826  1.00  0.00    -0.036 A 
HETATM   14  C   UNL     1     -21.196  -9.688  -2.155  1.00  0.00     0.012 A 
HETATM   15  C   UNL     1     -22.016  -9.523  -1.033  1.00  0.00     0.007 A 
HETATM   16  C   UNL     1     -22.335  -8.241  -0.567  1.00  0.00    -0.062 A 
HETATM   17  C   UNL     1     -23.214  -8.056   0.637  1.00  0.00     0.048 C 
HETATM   18  C   UNL     1     -21.834  -7.129  -1.253  1.00  0.00     0.007 A 
HETATM   19  C   UNL     1     -21.011  -7.295  -2.373  1.00  0.00     0.012 A 
ENDBRANCH   1  13
TORSDOF 1
ENDMDL
MODEL 4
REMARK VINA RESULT:      -7.2      2.835      4.003
REMARK  1 active torsions:
REMARK  status: ('A' for Active; 'I' for Inactive)
REMARK    1  A    between atoms: C_5  and  C_8 
ROOT
HETATM    1  C   UNL     1     -19.422  -8.820  -2.659  1.00  0.00     0.022 C 
HETATM    2  C   UNL     1     -20.277  -9.576  -1.962  1.00  0.00    -0.006 C 
HETATM    3  C   UNL     1     -20.380 -11.072  -1.745  1.00  0.00     0.031 C 
HETATM    4  C   UNL     1     -19.964 -11.309  -0.273  1.00  0.00     0.011 C 
HETATM    5  C   UNL     1     -21.165 -10.756   0.537  1.00  0.00     0.018 C 
HETATM    6  C   UNL     1     -22.143 -10.277  -0.565  1.00  0.00     0.029 C 
HETATM    7  C   UNL     1     -21.448  -9.055  -1.170  1.00  0.00     0.165 C 
HETATM    8  O   UNL     1     -21.740  -7.881  -1.026  1.00  0.00    -0.292 OA
HETATM    9  C   UNL     1     -21.921 -11.303  -1.716  1.00  0.00    -0.025 C 
HETATM   10  C   UNL     1     -22.316 -12.754  -1.379  1.00  0.00     0.016 C 
HETATM   11  C   UNL     1     -22.647 -10.947  -3.033  1.00  0.00     0.016 C 
HETATM   12  C   UNL     1     -23.560 -10.053  -0.087  1.00  0.00     0.025 C 
ENDROOT
BRANCH   1  13
HETATM   13  C   UNL     1     -18.276  -9.356  -3.398  1.00  0.00    -0.036 A 
HETATM   14  C   UNL     1     -17.063  -9.598  -2.747  1.00  0.00     0.012 A 
HETATM   15  C   UNL     1     -15.983 -10.156  -3.443  1.00  0.00     0.007 A 
HETATM   16  C   UNL     1     -16.101 -10.476  -4.801  1.00  0.00    -0.062 A 
HETATM   17  C   UNL     1     -14.948 -11.075  -5.555  1.00  0.00     0.048 C 
HETATM   18  C   UNL     1     -17.310 -10.214  -5.455  1.00  0.00     0.007 A 
HETATM   19  C   UNL     1     -18.391  -9.660  -4.757  1.00  0.00     0.012 A 
ENDBRANCH   1  13
TORSDOF 1
ENDMDL
MODEL 5
REMARK VINA RESULT:      -6.9     16.556     19.193
REMARK  1 active torsions:
REMARK  status: ('A' for Active; 'I' for Inactive)
REMARK    1  A    between atoms: C_5  and  C_8 
ROOT
HETATM    1  C   UNL     1     -25.001   8.838   0.614  1.00  0.00     0.022 C 
HETATM    2  C   UNL     1     -24.677   8.320  -0.575  1.00  0.00    -0.006 C 
HETATM    3  C   UNL     1     -23.348   7.958  -1.208  1.00  0.00     0.031 C 
HETATM    4  C   UNL     1     -23.309   6.411  -1.237  1.00  0.00     0.011 C 
HETATM    5  C   UNL     1     -24.332   6.043  -2.342  1.00  0.00     0.018 C 
HETATM    6  C   UNL     1     -24.833   7.425  -2.833  1.00  0.00     0.029 C 
HETATM    7  C   UNL     1     -25.658   7.958  -1.659  1.00  0.00     0.165 C 
HETATM    8  O   UNL     1     -26.871   8.046  -1.577  1.00  0.00    -0.292 OA
HETATM    9  C   UNL     1     -23.574   8.333  -2.703  1.00  0.00    -0.025 C 
HETATM   10  C   UNL     1     -22.394   7.944  -3.616  1.00  0.00     0.016 C 
HETATM   11  C   UNL     1     -23.844   9.834  -2.954  1.00  0.00     0.016 C 
HETATM   12  C   UNL     1     -25.542   7.393  -4.168  1.00  0.00     0.025 C 
ENDROOT
BRANCH   1  13
HETATM   13  C   UNL     1     -24.024   9.156   1.658  1.00  0.00    -0.036 A 
HETATM   14  C   UNL     1     -24.437   9.725   2.867  1.00  0.00     0.012 A 
HETATM   15  C   UNL     1     -23.509   9.983   3.883  1.00  0.00     0.007 A 
HETATM   16  C   UNL     1     -22.153   9.680   3.703  1.00  0.00    -0.062 A 
HETATM   17  C   UNL     1     -21.152   9.955   4.789  1.00  0.00     0.048 C 
HETATM   18  C   UNL     1     -21.739   9.131   2.485  1.00  0.00     0.007 A 
HETATM   19  C   UNL     1     -22.669   8.868   1.471  1.00  0.00     0.012 A 
ENDBRANCH   1  13
TORSDOF 1
ENDMDL
MODEL 6
REMARK VINA RESULT:      -6.8     17.016     19.197
REMARK  1 active torsions:
REMARK  status: ('A' for Active; 'I' for Inactive)
REMARK    1  A    between atoms: C_5  and  C_8 
ROOT
HETATM    1  C   UNL     1     -25.001   7.204  -0.686  1.00  0.00     0.022 C 
HETATM    2  C   UNL     1     -25.133   7.528  -1.977  1.00  0.00    -0.006 C 
HETATM    3  C   UNL     1     -25.437   8.836  -2.678  1.00  0.00     0.031 C 
HETATM    4  C   UNL     1     -24.115   9.258  -3.365  1.00  0.00     0.011 C 
HETATM    5  C   UNL     1     -23.981   8.255  -4.540  1.00  0.00     0.018 C 
HETATM    6  C   UNL     1     -25.252   7.380  -4.403  1.00  0.00     0.029 C 
HETATM    7  C   UNL     1     -25.005   6.567  -3.129  1.00  0.00     0.165 C 
HETATM    8  O   UNL     1     -24.723   5.385  -3.040  1.00  0.00    -0.292 OA
HETATM    9  C   UNL     1     -26.325   8.378  -3.875  1.00  0.00    -0.025 C 
HETATM   10  C   UNL     1     -26.682   9.522  -4.844  1.00  0.00     0.016 C 
HETATM   11  C   UNL     1     -27.661   7.718  -3.466  1.00  0.00     0.016 C 
HETATM   12  C   UNL     1     -25.589   6.573  -5.637  1.00  0.00     0.025 C 
ENDROOT
BRANCH   1  13
HETATM   13  C   UNL     1     -25.105   8.168   0.412  1.00  0.00    -0.036 A 
HETATM   14  C   UNL     1     -26.357   8.578   0.879  1.00  0.00     0.012 A 
HETATM   15  C   UNL     1     -26.456   9.463   1.960  1.00  0.00     0.007 A 
HETATM   16  C   UNL     1     -25.303   9.952   2.587  1.00  0.00    -0.062 A 
HETATM   17  C   UNL     1     -25.402  10.901   3.747  1.00  0.00     0.048 C 
HETATM   18  C   UNL     1     -24.051   9.556   2.104  1.00  0.00     0.007 A 
HETATM   19  C   UNL     1     -23.953   8.668   1.026  1.00  0.00     0.012 A 
ENDBRANCH   1  13
TORSDOF 1
ENDMDL
MODEL 7
REMARK VINA RESULT:      -6.6     16.984     19.284
REMARK  1 active torsions:
REMARK  status: ('A' for Active; 'I' for Inactive)
REMARK    1  A    between atoms: C_5  and  C_8 
ROOT
HETATM    1  C   UNL     1     -23.381   9.066   1.490  1.00  0.00     0.022 C 
HETATM    2  C   UNL     1     -23.799   8.637   0.294  1.00  0.00    -0.006 C 
HETATM    3  C   UNL     1     -23.074   8.360  -1.007  1.00  0.00     0.031 C 
HETATM    4  C   UNL     1     -23.075   6.820  -1.164  1.00  0.00     0.011 C 
HETATM    5  C   UNL     1     -24.550   6.492  -1.511  1.00  0.00     0.018 C 
HETATM    6  C   UNL     1     -25.226   7.886  -1.529  1.00  0.00     0.029 C 
HETATM    7  C   UNL     1     -25.228   8.314  -0.059  1.00  0.00     0.165 C 
HETATM    8  O   UNL     1     -26.176   8.358   0.706  1.00  0.00    -0.292 OA
HETATM    9  C   UNL     1     -24.109   8.824  -2.075  1.00  0.00    -0.025 C 
HETATM   10  C   UNL     1     -23.666   8.533  -3.522  1.00  0.00     0.016 C 
HETATM   11  C   UNL     1     -24.458  10.329  -2.018  1.00  0.00     0.016 C 
HETATM   12  C   UNL     1     -26.571   7.918  -2.220  1.00  0.00     0.025 C 
ENDROOT
BRANCH   1  13
HETATM   13  C   UNL     1     -21.979   9.346   1.810  1.00  0.00    -0.036 A 
HETATM   14  C   UNL     1     -21.205   8.404   2.493  1.00  0.00     0.012 A 
HETATM   15  C   UNL     1     -19.852   8.653   2.755  1.00  0.00     0.007 A 
HETATM   16  C   UNL     1     -19.256   9.850   2.342  1.00  0.00    -0.062 A 
HETATM   17  C   UNL     1     -17.805  10.124   2.620  1.00  0.00     0.048 C 
HETATM   18  C   UNL     1     -20.038  10.801   1.677  1.00  0.00     0.007 A 
HETATM   19  C   UNL     1     -21.389  10.550   1.411  1.00  0.00     0.012 A 
ENDBRANCH   1  13
TORSDOF 1
ENDMDL
MODEL 8
REMARK VINA RESULT:      -6.4      3.837      5.734
REMARK  1 active torsions:
REMARK  status: ('A' for Active; 'I' for Inactive)
REMARK    1  A    between atoms: C_5  and  C_8 
ROOT
HETATM    1  C   UNL     1     -19.587 -10.995  -2.933  1.00  0.00     0.022 C 
HETATM    2  C   UNL     1     -18.339 -11.056  -3.408  1.00  0.00    -0.006 C 
HETATM    3  C   UNL     1     -17.341  -9.989  -3.807  1.00  0.00     0.031 C 
HETATM    4  C   UNL     1     -16.246 -10.013  -2.713  1.00  0.00     0.011 C 
HETATM    5  C   UNL     1     -15.479 -11.330  -2.997  1.00  0.00     0.018 C 
HETATM    6  C   UNL     1     -16.213 -11.906  -4.234  1.00  0.00     0.029 C 
HETATM    7  C   UNL     1     -17.580 -12.327  -3.689  1.00  0.00     0.165 C 
HETATM    8  O   UNL     1     -17.986 -13.457  -3.479  1.00  0.00    -0.292 OA
HETATM    9  C   UNL     1     -16.628 -10.635  -5.033  1.00  0.00    -0.025 C 
HETATM   10  C   UNL     1     -15.455  -9.793  -5.571  1.00  0.00     0.016 C 
HETATM   11  C   UNL     1     -17.554 -10.915  -6.238  1.00  0.00     0.016 C 
HETATM   12  C   UNL     1     -15.445 -12.980  -4.971  1.00  0.00     0.025 C 
ENDROOT
BRANCH   1  13
HETATM   13  C   UNL     1     -20.289  -9.742  -2.645  1.00  0.00    -0.036 A 
HETATM   14  C   UNL     1     -20.394  -9.273  -1.333  1.00  0.00     0.012 A 
HETATM   15  C   UNL     1     -21.022  -8.050  -1.064  1.00  0.00     0.007 A 
HETATM   16  C   UNL     1     -21.558  -7.282  -2.104  1.00  0.00    -0.062 A 
HETATM   17  C   UNL     1     -22.234  -5.970  -1.824  1.00  0.00     0.048 C 
HETATM   18  C   UNL     1     -21.471  -7.764  -3.415  1.00  0.00     0.007 A 
HETATM   19  C   UNL     1     -20.838  -8.984  -3.684  1.00  0.00     0.012 A 
ENDBRANCH   1  13
TORSDOF 1
ENDMDL
MODEL 9
REMARK VINA RESULT:      -6.4     16.540     19.508
REMARK  1 active torsions:
REMARK  status: ('A' for Active; 'I' for Inactive)
REMARK    1  A    between atoms: C_5  and  C_8 
ROOT
HETATM    1  C   UNL     1     -26.238   7.911  -5.057  1.00  0.00     0.022 C 
HETATM    2  C   UNL     1     -25.532   7.958  -3.923  1.00  0.00    -0.006 C 
HETATM    3  C   UNL     1     -25.019   9.108  -3.080  1.00  0.00     0.031 C 
HETATM    4  C   UNL     1     -25.883   9.100  -1.796  1.00  0.00     0.011 C 
HETATM    5  C   UNL     1     -25.376   7.853  -1.026  1.00  0.00     0.018 C 
HETATM    6  C   UNL     1     -24.266   7.294  -1.952  1.00  0.00     0.029 C 
HETATM    7  C   UNL     1     -25.032   6.756  -3.163  1.00  0.00     0.165 C 
HETATM    8  O   UNL     1     -25.243   5.592  -3.458  1.00  0.00    -0.292 OA
HETATM    9  C   UNL     1     -23.642   8.574  -2.583  1.00  0.00    -0.025 C 
HETATM   10  C   UNL     1     -22.946   9.519  -1.583  1.00  0.00     0.016 C 
HETATM   11  C   UNL     1     -22.619   8.296  -3.707  1.00  0.00     0.016 C 
HETATM   12  C   UNL     1     -23.331   6.313  -1.282  1.00  0.00     0.025 C 
ENDROOT
BRANCH   1  13
HETATM   13  C   UNL     1     -26.732   9.099  -5.759  1.00  0.00    -0.036 A 
HETATM   14  C   UNL     1     -26.054   9.596  -6.875  1.00  0.00     0.012 A 
HETATM   15  C   UNL     1     -26.553  10.702  -7.574  1.00  0.00     0.007 A 
HETATM   16  C   UNL     1     -27.737  11.328  -7.164  1.00  0.00    -0.062 A 
HETATM   17  C   UNL     1     -28.279  12.515  -7.909  1.00  0.00     0.048 C 
HETATM   18  C   UNL     1     -28.402  10.841  -6.033  1.00  0.00     0.007 A 
HETATM   19  C   UNL     1     -27.905   9.733  -5.338  1.00  0.00     0.012 A 
ENDBRANCH   1  13
TORSDOF 1
ENDMDL
