MODEL 1
REMARK VINA RESULT:      -6.0      0.000      0.000
REMARK  24 active torsions:
REMARK  status: ('A' for Active; 'I' for Inactive)
REMARK    1  A    between atoms: C_2  and  C_3 
REMARK    2  A    between atoms: C_3  and  C_4 
REMARK    3  A    between atoms: C_4  and  C_5 
REMARK    4  A    between atoms: C_5  and  C_6 
REMARK    5  A    between atoms: C_6  and  C_7 
REMARK    6  A    between atoms: C_7  and  C_8 
REMARK    7  A    between atoms: C_8  and  C_9 
REMARK    8  A    between atoms: C_9  and  C_10 
REMARK    9  A    between atoms: C_10  and  C_11 
REMARK   10  A    between atoms: C_11  and  C_12 
REMARK   11  A    between atoms: C_12  and  O_14 
REMARK   12  A    between atoms: O_14  and  C_15 
REMARK   13  A    between atoms: C_15  and  C_26 
REMARK   14  A    between atoms: C_16  and  O_25 
REMARK   15  A    between atoms: C_17  and  O_24 
REMARK   16  A    between atoms: C_18  and  O_23 
REMARK   17  A    between atoms: C_19  and  C_21 
REMARK   18  A    between atoms: C_21  and  O_22 
REMARK   19  A    between atoms: C_26  and  C_35 
REMARK   20  A    between atoms: C_27  and  O_34 
REMARK   21  A    between atoms: C_28  and  O_33 
REMARK   22  A    between atoms: C_29  and  C_31 
REMARK   23  A    between atoms: C_31  and  O_32 
REMARK   24  A    between atoms: C_35  and  O_36 
ROOT
HETATM    1  C   UNL     1     -19.714 -10.166  -2.839  1.00  0.00     0.238 C 
HETATM    2  C   UNL     1     -20.868 -11.091  -3.346  1.00  0.00     0.215 C 
HETATM    3  C   UNL     1     -22.227 -10.483  -2.929  1.00  0.00     0.183 C 
HETATM    4  C   UNL     1     -22.318 -10.329  -1.402  1.00  0.00     0.180 C 
HETATM    5  C   UNL     1     -21.089  -9.563  -0.896  1.00  0.00     0.180 C 
HETATM    6  O   UNL     1     -19.858 -10.161  -1.374  1.00  0.00    -0.340 OA
ENDROOT
BRANCH   1   7
HETATM    7  O   UNL     1     -19.771  -8.771  -3.275  1.00  0.00    -0.277 OA
BRANCH   7   8
HETATM    8  C   UNL     1     -20.315  -8.399  -4.461  1.00  0.00     0.261 C 
HETATM    9  O   UNL     1     -19.897  -8.743  -5.558  1.00  0.00    -0.265 OA
BRANCH   8  10
HETATM   10  C   UNL     1     -21.537  -7.539  -4.272  1.00  0.00     0.111 C 
BRANCH  10  11
HETATM   11  C   UNL     1     -21.239  -6.041  -4.289  1.00  0.00     0.010 C 
BRANCH  11  12
HETATM   12  C   UNL     1     -21.261  -5.511  -5.727  1.00  0.00     0.000 C 
BRANCH  12  13
HETATM   13  C   UNL     1     -19.920  -4.907  -6.151  1.00  0.00     0.000 C 
BRANCH  13  14
HETATM   14  C   UNL     1     -20.088  -4.022  -7.391  1.00  0.00     0.000 C 
BRANCH  14  15
HETATM   15  C   UNL     1     -21.561  -3.755  -7.702  1.00  0.00     0.000 C 
BRANCH  15  16
HETATM   16  C   UNL     1     -21.902  -4.154  -9.139  1.00  0.00     0.000 C 
BRANCH  16  17
HETATM   17  C   UNL     1     -20.643  -4.329  -9.989  1.00  0.00     0.000 C 
BRANCH  17  18
HETATM   18  C   UNL     1     -20.914  -3.977 -11.452  1.00  0.00    -0.000 C 
BRANCH  18  19
HETATM   19  C   UNL     1     -22.406  -4.035 -11.775  1.00  0.00    -0.005 C 
HETATM   20  C   UNL     1     -22.859  -2.785 -12.512  1.00  0.00     0.005 C 
ENDBRANCH  18  19
ENDBRANCH  17  18
ENDBRANCH  16  17
ENDBRANCH  15  16
ENDBRANCH  14  15
ENDBRANCH  13  14
ENDBRANCH  12  13
ENDBRANCH  11  12
ENDBRANCH  10  11
ENDBRANCH   8  10
ENDBRANCH   7   8
ENDBRANCH   1   7
BRANCH   1  21
HETATM   21  C   UNL     1     -18.233 -10.722  -3.117  1.00  0.00     0.170 C 
HETATM   22  C   UNL     1     -17.271  -9.663  -3.714  1.00  0.00     0.192 C 
HETATM   23  C   UNL     1     -16.650 -10.262  -4.970  1.00  0.00     0.181 C 
HETATM   24  C   UNL     1     -17.074 -11.716  -4.956  1.00  0.00     0.177 C 
HETATM   25  O   UNL     1     -18.221 -11.835  -4.076  1.00  0.00    -0.359 OA
BRANCH  22  26
HETATM   26  O   UNL     1     -16.256  -9.201  -2.816  1.00  0.00    -0.390 OA
HETATM   27  H   UNL     1     -15.449  -9.010  -3.347  1.00  0.00     0.210 HD
ENDBRANCH  22  26
BRANCH  23  28
HETATM   28  O   UNL     1     -15.243 -10.067  -5.039  1.00  0.00    -0.390 OA
HETATM   29  H   UNL     1     -14.836 -10.777  -4.499  1.00  0.00     0.210 HD
ENDBRANCH  23  28
BRANCH  24  30
HETATM   30  C   UNL     1     -15.908 -12.668  -4.619  1.00  0.00     0.198 C 
BRANCH  30  31
HETATM   31  O   UNL     1     -16.324 -13.763  -3.800  1.00  0.00    -0.398 OA
HETATM   32  H   UNL     1     -15.641 -13.908  -3.132  1.00  0.00     0.209 HD
ENDBRANCH  30  31
ENDBRANCH  24  30
BRANCH  21  33
HETATM   33  C   UNL     1     -17.749 -11.304  -1.755  1.00  0.00     0.210 C 
BRANCH  33  34
HETATM   34  O   UNL     1     -18.103 -12.675  -1.591  1.00  0.00    -0.398 OA
HETATM   35  H   UNL     1     -18.712 -12.710  -0.822  1.00  0.00     0.209 HD
ENDBRANCH  33  34
ENDBRANCH  21  33
ENDBRANCH   1  21
BRANCH   2  36
HETATM   36  O   UNL     1     -20.786 -12.412  -2.750  1.00  0.00    -0.387 OA
HETATM   37  H   UNL     1     -20.096 -12.918  -3.230  1.00  0.00     0.210 HD
ENDBRANCH   2  36
BRANCH   3  38
HETATM   38  O   UNL     1     -23.303 -11.302  -3.397  1.00  0.00    -0.390 OA
HETATM   39  H   UNL     1     -24.047 -10.690  -3.566  1.00  0.00     0.210 HD
ENDBRANCH   3  38
BRANCH   5  40
HETATM   40  C   UNL     1     -21.043  -9.542   0.638  1.00  0.00     0.198 C 
BRANCH  40  41
HETATM   41  O   UNL     1     -20.341 -10.691   1.115  1.00  0.00    -0.398 OA
HETATM   42  H   UNL     1     -20.728 -10.894   1.985  1.00  0.00     0.209 HD
ENDBRANCH  40  41
ENDBRANCH   5  40
BRANCH   4  43
HETATM   43  O   UNL     1     -22.401 -11.617  -0.772  1.00  0.00    -0.390 OA
HETATM   44  H   UNL     1     -23.042 -12.149  -1.289  1.00  0.00     0.210 HD
ENDBRANCH   4  43
TORSDOF 24
ENDMDL
MODEL 2
REMARK VINA RESULT:      -6.0      1.803      4.537
REMARK  24 active torsions:
REMARK  status: ('A' for Active; 'I' for Inactive)
REMARK    1  A    between atoms: C_2  and  C_3 
REMARK    2  A    between atoms: C_3  and  C_4 
REMARK    3  A    between atoms: C_4  and  C_5 
REMARK    4  A    between atoms: C_5  and  C_6 
REMARK    5  A    between atoms: C_6  and  C_7 
REMARK    6  A    between atoms: C_7  and  C_8 
REMARK    7  A    between atoms: C_8  and  C_9 
REMARK    8  A    between atoms: C_9  and  C_10 
REMARK    9  A    between atoms: C_10  and  C_11 
REMARK   10  A    between atoms: C_11  and  C_12 
REMARK   11  A    between atoms: C_12  and  O_14 
REMARK   12  A    between atoms: O_14  and  C_15 
REMARK   13  A    between atoms: C_15  and  C_26 
REMARK   14  A    between atoms: C_16  and  O_25 
REMARK   15  A    between atoms: C_17  and  O_24 
REMARK   16  A    between atoms: C_18  and  O_23 
REMARK   17  A    between atoms: C_19  and  C_21 
REMARK   18  A    between atoms: C_21  and  O_22 
REMARK   19  A    between atoms: C_26  and  C_35 
REMARK   20  A    between atoms: C_27  and  O_34 
REMARK   21  A    between atoms: C_28  and  O_33 
REMARK   22  A    between atoms: C_29  and  C_31 
REMARK   23  A    between atoms: C_31  and  O_32 
REMARK   24  A    between atoms: C_35  and  O_36 
ROOT
HETATM    1  C   UNL     1     -20.835 -10.453  -3.510  1.00  0.00     0.238 C 
HETATM    2  C   UNL     1     -19.301 -10.189  -3.660  1.00  0.00     0.215 C 
HETATM    3  C   UNL     1     -18.968  -9.962  -5.152  1.00  0.00     0.183 C 
HETATM    4  C   UNL     1     -19.371 -11.180  -6.000  1.00  0.00     0.180 C 
HETATM    5  C   UNL     1     -20.836 -11.533  -5.715  1.00  0.00     0.180 C 
HETATM    6  O   UNL     1     -21.080 -11.674  -4.294  1.00  0.00    -0.340 OA
ENDROOT
BRANCH   1   7
HETATM    7  O   UNL     1     -21.720  -9.420  -4.049  1.00  0.00    -0.277 OA
BRANCH   7   8
HETATM    8  C   UNL     1     -21.422  -8.098  -3.982  1.00  0.00     0.261 C 
HETATM    9  O   UNL     1     -21.212  -7.483  -2.946  1.00  0.00    -0.265 OA
BRANCH   8  10
HETATM   10  C   UNL     1     -21.334  -7.473  -5.349  1.00  0.00     0.111 C 
BRANCH  10  11
HETATM   11  C   UNL     1     -21.675  -5.984  -5.364  1.00  0.00     0.010 C 
BRANCH  11  12
HETATM   12  C   UNL     1     -20.395  -5.147  -5.449  1.00  0.00     0.000 C 
BRANCH  12  13
HETATM   13  C   UNL     1     -20.202  -4.506  -6.825  1.00  0.00     0.000 C 
BRANCH  13  14
HETATM   14  C   UNL     1     -21.452  -3.725  -7.245  1.00  0.00     0.000 C 
BRANCH  14  15
HETATM   15  C   UNL     1     -21.894  -4.083  -8.665  1.00  0.00     0.000 C 
BRANCH  15  16
HETATM   16  C   UNL     1     -20.693  -4.440  -9.543  1.00  0.00     0.000 C 
BRANCH  16  17
HETATM   17  C   UNL     1     -20.638  -3.571 -10.800  1.00  0.00     0.000 C 
BRANCH  17  18
HETATM   18  C   UNL     1     -21.608  -4.084 -11.865  1.00  0.00    -0.000 C 
BRANCH  18  19
HETATM   19  C   UNL     1     -22.529  -2.973 -12.365  1.00  0.00    -0.005 C 
HETATM   20  C   UNL     1     -23.885  -3.031 -11.679  1.00  0.00     0.005 C 
ENDBRANCH  18  19
ENDBRANCH  17  18
ENDBRANCH  16  17
ENDBRANCH  15  16
ENDBRANCH  14  15
ENDBRANCH  13  14
ENDBRANCH  12  13
ENDBRANCH  11  12
ENDBRANCH  10  11
ENDBRANCH   8  10
ENDBRANCH   7   8
ENDBRANCH   1   7
BRANCH   1  21
HETATM   21  C   UNL     1     -21.317 -10.802  -2.018  1.00  0.00     0.170 C 
HETATM   22  C   UNL     1     -20.753  -9.841  -0.940  1.00  0.00     0.192 C 
HETATM   23  C   UNL     1     -20.105 -10.696   0.143  1.00  0.00     0.181 C 
HETATM   24  C   UNL     1     -20.499 -12.118  -0.198  1.00  0.00     0.177 C 
HETATM   25  O   UNL     1     -20.900 -12.145  -1.592  1.00  0.00    -0.359 OA
BRANCH  22  26
HETATM   26  O   UNL     1     -21.715  -8.945  -0.372  1.00  0.00    -0.390 OA
HETATM   27  H   UNL     1     -22.611  -9.304  -0.565  1.00  0.00     0.210 HD
ENDBRANCH  22  26
BRANCH  23  28
HETATM   28  O   UNL     1     -20.468 -10.292   1.458  1.00  0.00    -0.390 OA
HETATM   29  H   UNL     1     -21.060 -10.989   1.811  1.00  0.00     0.210 HD
ENDBRANCH  23  28
BRANCH  24  30
HETATM   30  C   UNL     1     -21.545 -12.692   0.779  1.00  0.00     0.198 C 
BRANCH  30  31
HETATM   31  O   UNL     1     -22.405 -13.646   0.151  1.00  0.00    -0.398 OA
HETATM   32  H   UNL     1     -23.014 -13.981   0.822  1.00  0.00     0.209 HD
ENDBRANCH  30  31
ENDBRANCH  24  30
BRANCH  21  33
HETATM   33  C   UNL     1     -22.874 -10.820  -2.082  1.00  0.00     0.210 C 
BRANCH  33  34
HETATM   34  O   UNL     1     -23.398 -12.137  -2.232  1.00  0.00    -0.398 OA
HETATM   35  H   UNL     1     -24.245 -12.040  -2.717  1.00  0.00     0.209 HD
ENDBRANCH  33  34
ENDBRANCH  21  33
ENDBRANCH   1  21
BRANCH   2  36
HETATM   36  O   UNL     1     -18.524 -11.331  -3.213  1.00  0.00    -0.387 OA
HETATM   37  H   UNL     1     -18.751 -12.094  -3.787  1.00  0.00     0.210 HD
ENDBRANCH   2  36
BRANCH   3  38
HETATM   38  O   UNL     1     -17.571  -9.700  -5.316  1.00  0.00    -0.390 OA
HETATM   39  H   UNL     1     -17.138 -10.067  -4.520  1.00  0.00     0.210 HD
ENDBRANCH   3  38
BRANCH   5  40
HETATM   40  C   UNL     1     -21.231 -12.849  -6.399  1.00  0.00     0.198 C 
BRANCH  40  41
HETATM   41  O   UNL     1     -20.579 -12.948  -7.666  1.00  0.00    -0.398 OA
HETATM   42  H   UNL     1     -19.636 -13.086  -7.467  1.00  0.00     0.209 HD
ENDBRANCH  40  41
ENDBRANCH   5  40
BRANCH   4  43
HETATM   43  O   UNL     1     -18.519 -12.298  -5.707  1.00  0.00    -0.390 OA
HETATM   44  H   UNL     1     -18.071 -12.103  -4.857  1.00  0.00     0.210 HD
ENDBRANCH   4  43
TORSDOF 24
ENDMDL
MODEL 3
REMARK VINA RESULT:      -5.8      1.915      5.159
REMARK  24 active torsions:
REMARK  status: ('A' for Active; 'I' for Inactive)
REMARK    1  A    between atoms: C_2  and  C_3 
REMARK    2  A    between atoms: C_3  and  C_4 
REMARK    3  A    between atoms: C_4  and  C_5 
REMARK    4  A    between atoms: C_5  and  C_6 
REMARK    5  A    between atoms: C_6  and  C_7 
REMARK    6  A    between atoms: C_7  and  C_8 
REMARK    7  A    between atoms: C_8  and  C_9 
REMARK    8  A    between atoms: C_9  and  C_10 
REMARK    9  A    between atoms: C_10  and  C_11 
REMARK   10  A    between atoms: C_11  and  C_12 
REMARK   11  A    between atoms: C_12  and  O_14 
REMARK   12  A    between atoms: O_14  and  C_15 
REMARK   13  A    between atoms: C_15  and  C_26 
REMARK   14  A    between atoms: C_16  and  O_25 
REMARK   15  A    between atoms: C_17  and  O_24 
REMARK   16  A    between atoms: C_18  and  O_23 
REMARK   17  A    between atoms: C_19  and  C_21 
REMARK   18  A    between atoms: C_21  and  O_22 
REMARK   19  A    between atoms: C_26  and  C_35 
REMARK   20  A    between atoms: C_27  and  O_34 
REMARK   21  A    between atoms: C_28  and  O_33 
REMARK   22  A    between atoms: C_29  and  C_31 
REMARK   23  A    between atoms: C_31  and  O_32 
REMARK   24  A    between atoms: C_35  and  O_36 
ROOT
HETATM    1  C   UNL     1     -19.533  -9.101  -3.714  1.00  0.00     0.238 C 
HETATM    2  C   UNL     1     -18.308  -9.529  -2.842  1.00  0.00     0.215 C 
HETATM    3  C   UNL     1     -17.099  -9.805  -3.765  1.00  0.00     0.183 C 
HETATM    4  C   UNL     1     -17.423 -10.911  -4.784  1.00  0.00     0.180 C 
HETATM    5  C   UNL     1     -18.724 -10.559  -5.516  1.00  0.00     0.180 C 
HETATM    6  O   UNL     1     -19.792 -10.259  -4.584  1.00  0.00    -0.340 OA
ENDROOT
BRANCH   1   7
HETATM    7  O   UNL     1     -19.325  -7.950  -4.593  1.00  0.00    -0.277 OA
BRANCH   7   8
HETATM    8  C   UNL     1     -20.220  -7.589  -5.546  1.00  0.00     0.261 C 
HETATM    9  O   UNL     1     -21.004  -8.354  -6.091  1.00  0.00    -0.265 OA
BRANCH   8  10
HETATM   10  C   UNL     1     -20.171  -6.111  -5.832  1.00  0.00     0.111 C 
BRANCH  10  11
HETATM   11  C   UNL     1     -19.880  -5.781  -7.294  1.00  0.00     0.010 C 
BRANCH  11  12
HETATM   12  C   UNL     1     -21.162  -5.331  -8.003  1.00  0.00     0.000 C 
BRANCH  12  13
HETATM   13  C   UNL     1     -20.958  -4.068  -8.842  1.00  0.00     0.000 C 
BRANCH  13  14
HETATM   14  C   UNL     1     -20.121  -4.371 -10.090  1.00  0.00     0.000 C 
BRANCH  14  15
HETATM   15  C   UNL     1     -20.970  -4.345 -11.362  1.00  0.00     0.000 C 
BRANCH  15  16
HETATM   16  C   UNL     1     -21.587  -2.963 -11.585  1.00  0.00     0.000 C 
BRANCH  16  17
HETATM   17  C   UNL     1     -23.112  -3.034 -11.670  1.00  0.00     0.000 C 
BRANCH  17  18
HETATM   18  C   UNL     1     -23.606  -4.470 -11.484  1.00  0.00    -0.000 C 
BRANCH  18  19
HETATM   19  C   UNL     1     -24.293  -4.655 -10.132  1.00  0.00    -0.005 C 
HETATM   20  C   UNL     1     -24.679  -3.317  -9.522  1.00  0.00     0.005 C 
ENDBRANCH  18  19
ENDBRANCH  17  18
ENDBRANCH  16  17
ENDBRANCH  15  16
ENDBRANCH  14  15
ENDBRANCH  13  14
ENDBRANCH  12  13
ENDBRANCH  11  12
ENDBRANCH  10  11
ENDBRANCH   8  10
ENDBRANCH   7   8
ENDBRANCH   1   7
BRANCH   1  21
HETATM   21  C   UNL     1     -20.896  -8.872  -2.895  1.00  0.00     0.170 C 
HETATM   22  C   UNL     1     -21.326  -7.385  -2.805  1.00  0.00     0.192 C 
HETATM   23  C   UNL     1     -21.565  -7.066  -1.333  1.00  0.00     0.181 C 
HETATM   24  C   UNL     1     -21.498  -8.405  -0.630  1.00  0.00     0.177 C 
HETATM   25  O   UNL     1     -20.800  -9.330  -1.504  1.00  0.00    -0.359 OA
BRANCH  22  26
HETATM   26  O   UNL     1     -22.472  -7.042  -3.591  1.00  0.00    -0.390 OA
HETATM   27  H   UNL     1     -22.225  -6.285  -4.170  1.00  0.00     0.210 HD
ENDBRANCH  22  26
BRANCH  23  28
HETATM   28  O   UNL     1     -22.775  -6.353  -1.111  1.00  0.00    -0.390 OA
HETATM   29  H   UNL     1     -22.532  -5.406  -1.036  1.00  0.00     0.210 HD
ENDBRANCH  23  28
BRANCH  24  30
HETATM   30  C   UNL     1     -22.881  -8.894  -0.156  1.00  0.00     0.198 C 
BRANCH  30  31
HETATM   31  O   UNL     1     -23.421  -8.068   0.878  1.00  0.00    -0.398 OA
HETATM   32  H   UNL     1     -24.310  -7.802   0.610  1.00  0.00     0.209 HD
ENDBRANCH  30  31
ENDBRANCH  24  30
BRANCH  21  33
HETATM   33  C   UNL     1     -21.952  -9.783  -3.592  1.00  0.00     0.210 C 
BRANCH  33  34
HETATM   34  O   UNL     1     -22.089 -11.048  -2.949  1.00  0.00    -0.398 OA
HETATM   35  H   UNL     1     -22.792 -10.937  -2.275  1.00  0.00     0.209 HD
ENDBRANCH  33  34
ENDBRANCH  21  33
ENDBRANCH   1  21
BRANCH   2  36
HETATM   36  O   UNL     1     -18.582 -10.754  -2.112  1.00  0.00    -0.387 OA
HETATM   37  H   UNL     1     -19.324 -10.577  -1.495  1.00  0.00     0.210 HD
ENDBRANCH   2  36
BRANCH   3  38
HETATM   38  O   UNL     1     -15.957 -10.182  -2.990  1.00  0.00    -0.390 OA
HETATM   39  H   UNL     1     -16.309 -10.675  -2.223  1.00  0.00     0.210 HD
ENDBRANCH   3  38
BRANCH   5  40
HETATM   40  C   UNL     1     -19.185 -11.717  -6.412  1.00  0.00     0.198 C 
BRANCH  40  41
HETATM   41  O   UNL     1     -18.055 -12.306  -7.058  1.00  0.00    -0.398 OA
HETATM   42  H   UNL     1     -18.355 -13.178  -7.370  1.00  0.00     0.209 HD
ENDBRANCH  40  41
ENDBRANCH   5  40
BRANCH   4  43
HETATM   43  O   UNL     1     -17.547 -12.180  -4.123  1.00  0.00    -0.390 OA
HETATM   44  H   UNL     1     -17.257 -12.866  -4.761  1.00  0.00     0.210 HD
ENDBRANCH   4  43
TORSDOF 24
ENDMDL
MODEL 4
REMARK VINA RESULT:      -5.8      1.294      1.943
REMARK  24 active torsions:
REMARK  status: ('A' for Active; 'I' for Inactive)
REMARK    1  A    between atoms: C_2  and  C_3 
REMARK    2  A    between atoms: C_3  and  C_4 
REMARK    3  A    between atoms: C_4  and  C_5 
REMARK    4  A    between atoms: C_5  and  C_6 
REMARK    5  A    between atoms: C_6  and  C_7 
REMARK    6  A    between atoms: C_7  and  C_8 
REMARK    7  A    between atoms: C_8  and  C_9 
REMARK    8  A    between atoms: C_9  and  C_10 
REMARK    9  A    between atoms: C_10  and  C_11 
REMARK   10  A    between atoms: C_11  and  C_12 
REMARK   11  A    between atoms: C_12  and  O_14 
REMARK   12  A    between atoms: O_14  and  C_15 
REMARK   13  A    between atoms: C_15  and  C_26 
REMARK   14  A    between atoms: C_16  and  O_25 
REMARK   15  A    between atoms: C_17  and  O_24 
REMARK   16  A    between atoms: C_18  and  O_23 
REMARK   17  A    between atoms: C_19  and  C_21 
REMARK   18  A    between atoms: C_21  and  O_22 
REMARK   19  A    between atoms: C_26  and  C_35 
REMARK   20  A    between atoms: C_27  and  O_34 
REMARK   21  A    between atoms: C_28  and  O_33 
REMARK   22  A    between atoms: C_29  and  C_31 
REMARK   23  A    between atoms: C_31  and  O_32 
REMARK   24  A    between atoms: C_35  and  O_36 
ROOT
HETATM    1  C   UNL     1     -19.577  -9.983  -2.844  1.00  0.00     0.238 C 
HETATM    2  C   UNL     1     -20.702 -10.999  -3.228  1.00  0.00     0.215 C 
HETATM    3  C   UNL     1     -22.075 -10.294  -3.141  1.00  0.00     0.183 C 
HETATM    4  C   UNL     1     -22.328  -9.749  -1.725  1.00  0.00     0.180 C 
HETATM    5  C   UNL     1     -21.135  -8.887  -1.294  1.00  0.00     0.180 C 
HETATM    6  O   UNL     1     -19.882  -9.597  -1.457  1.00  0.00    -0.340 OA
ENDROOT
BRANCH   1   7
HETATM    7  O   UNL     1     -19.535  -8.747  -3.627  1.00  0.00    -0.277 OA
BRANCH   7   8
HETATM    8  C   UNL     1     -19.807  -8.717  -4.956  1.00  0.00     0.261 C 
HETATM    9  O   UNL     1     -19.176  -9.322  -5.811  1.00  0.00    -0.265 OA
BRANCH   8  10
HETATM   10  C   UNL     1     -21.020  -7.876  -5.260  1.00  0.00     0.111 C 
BRANCH  10  11
HETATM   11  C   UNL     1     -21.098  -6.594  -4.432  1.00  0.00     0.010 C 
BRANCH  11  12
HETATM   12  C   UNL     1     -20.699  -5.386  -5.286  1.00  0.00     0.000 C 
BRANCH  12  13
HETATM   13  C   UNL     1     -21.114  -5.538  -6.751  1.00  0.00     0.000 C 
BRANCH  13  14
HETATM   14  C   UNL     1     -19.917  -5.329  -7.684  1.00  0.00     0.000 C 
BRANCH  14  15
HETATM   15  C   UNL     1     -20.092  -4.088  -8.562  1.00  0.00     0.000 C 
BRANCH  15  16
HETATM   16  C   UNL     1     -20.375  -4.476 -10.014  1.00  0.00     0.000 C 
BRANCH  16  17
HETATM   17  C   UNL     1     -21.534  -3.667 -10.598  1.00  0.00     0.000 C 
BRANCH  17  18
HETATM   18  C   UNL     1     -22.796  -3.825  -9.749  1.00  0.00    -0.000 C 
BRANCH  18  19
HETATM   19  C   UNL     1     -24.060  -3.578 -10.571  1.00  0.00    -0.005 C 
HETATM   20  C   UNL     1     -23.730  -2.929 -11.906  1.00  0.00     0.005 C 
ENDBRANCH  18  19
ENDBRANCH  17  18
ENDBRANCH  16  17
ENDBRANCH  15  16
ENDBRANCH  14  15
ENDBRANCH  13  14
ENDBRANCH  12  13
ENDBRANCH  11  12
ENDBRANCH  10  11
ENDBRANCH   8  10
ENDBRANCH   7   8
ENDBRANCH   1   7
BRANCH   1  21
HETATM   21  C   UNL     1     -18.096 -10.602  -2.797  1.00  0.00     0.170 C 
HETATM   22  C   UNL     1     -17.805 -11.611  -3.938  1.00  0.00     0.192 C 
HETATM   23  C   UNL     1     -17.278 -12.889  -3.296  1.00  0.00     0.181 C 
HETATM   24  C   UNL     1     -17.054 -12.529  -1.842  1.00  0.00     0.177 C 
HETATM   25  O   UNL     1     -17.834 -11.340  -1.554  1.00  0.00    -0.359 OA
BRANCH  22  26
HETATM   26  O   UNL     1     -16.902 -11.137  -4.943  1.00  0.00    -0.390 OA
HETATM   27  H   UNL     1     -16.707 -10.192  -4.751  1.00  0.00     0.210 HD
ENDBRANCH  22  26
BRANCH  23  28
HETATM   28  O   UNL     1     -16.125 -13.402  -3.952  1.00  0.00    -0.390 OA
HETATM   29  H   UNL     1     -15.692 -12.641  -4.392  1.00  0.00     0.210 HD
ENDBRANCH  23  28
BRANCH  24  30
HETATM   30  C   UNL     1     -15.559 -12.415  -1.485  1.00  0.00     0.198 C 
BRANCH  30  31
HETATM   31  O   UNL     1     -14.947 -13.694  -1.303  1.00  0.00    -0.398 OA
HETATM   32  H   UNL     1     -15.644 -14.361  -1.332  1.00  0.00     0.209 HD
ENDBRANCH  30  31
ENDBRANCH  24  30
BRANCH  21  33
HETATM   33  C   UNL     1     -17.136  -9.373  -2.795  1.00  0.00     0.210 C 
BRANCH  33  34
HETATM   34  O   UNL     1     -15.768  -9.750  -2.924  1.00  0.00    -0.398 OA
HETATM   35  H   UNL     1     -15.397  -9.193  -3.641  1.00  0.00     0.209 HD
ENDBRANCH  33  34
ENDBRANCH  21  33
ENDBRANCH   1  21
BRANCH   2  36
HETATM   36  O   UNL     1     -20.734 -12.121  -2.307  1.00  0.00    -0.387 OA
HETATM   37  H   UNL     1     -20.404 -11.808  -1.437  1.00  0.00     0.210 HD
ENDBRANCH   2  36
BRANCH   3  38
HETATM   38  O   UNL     1     -23.122 -11.199  -3.505  1.00  0.00    -0.390 OA
HETATM   39  H   UNL     1     -23.530 -10.822  -4.309  1.00  0.00     0.210 HD
ENDBRANCH   3  38
BRANCH   5  40
HETATM   40  C   UNL     1     -21.257  -8.469   0.178  1.00  0.00     0.198 C 
BRANCH  40  41
HETATM   41  O   UNL     1     -22.624  -8.193   0.488  1.00  0.00    -0.398 OA
HETATM   42  H   UNL     1     -22.739  -8.447   1.421  1.00  0.00     0.209 HD
ENDBRANCH  40  41
ENDBRANCH   5  40
BRANCH   4  43
HETATM   43  O   UNL     1     -22.527 -10.830  -0.801  1.00  0.00    -0.390 OA
HETATM   44  H   UNL     1     -22.941 -10.449   0.002  1.00  0.00     0.210 HD
ENDBRANCH   4  43
TORSDOF 24
ENDMDL
MODEL 5
REMARK VINA RESULT:      -5.7      2.115      4.085
REMARK  24 active torsions:
REMARK  status: ('A' for Active; 'I' for Inactive)
REMARK    1  A    between atoms: C_2  and  C_3 
REMARK    2  A    between atoms: C_3  and  C_4 
REMARK    3  A    between atoms: C_4  and  C_5 
REMARK    4  A    between atoms: C_5  and  C_6 
REMARK    5  A    between atoms: C_6  and  C_7 
REMARK    6  A    between atoms: C_7  and  C_8 
REMARK    7  A    between atoms: C_8  and  C_9 
REMARK    8  A    between atoms: C_9  and  C_10 
REMARK    9  A    between atoms: C_10  and  C_11 
REMARK   10  A    between atoms: C_11  and  C_12 
REMARK   11  A    between atoms: C_12  and  O_14 
REMARK   12  A    between atoms: O_14  and  C_15 
REMARK   13  A    between atoms: C_15  and  C_26 
REMARK   14  A    between atoms: C_16  and  O_25 
REMARK   15  A    between atoms: C_17  and  O_24 
REMARK   16  A    between atoms: C_18  and  O_23 
REMARK   17  A    between atoms: C_19  and  C_21 
REMARK   18  A    between atoms: C_21  and  O_22 
REMARK   19  A    between atoms: C_26  and  C_35 
REMARK   20  A    between atoms: C_27  and  O_34 
REMARK   21  A    between atoms: C_28  and  O_33 
REMARK   22  A    between atoms: C_29  and  C_31 
REMARK   23  A    between atoms: C_31  and  O_32 
REMARK   24  A    between atoms: C_35  and  O_36 
ROOT
HETATM    1  C   UNL     1     -19.440 -11.543  -2.634  1.00  0.00     0.238 C 
HETATM    2  C   UNL     1     -20.197 -12.907  -2.740  1.00  0.00     0.215 C 
HETATM    3  C   UNL     1     -20.806 -13.259  -1.363  1.00  0.00     0.183 C 
HETATM    4  C   UNL     1     -19.714 -13.354  -0.284  1.00  0.00     0.180 C 
HETATM    5  C   UNL     1     -18.870 -12.073  -0.305  1.00  0.00     0.180 C 
HETATM    6  O   UNL     1     -18.383 -11.781  -1.638  1.00  0.00    -0.340 OA
ENDROOT
BRANCH   1   7
HETATM    7  O   UNL     1     -20.227 -10.408  -2.151  1.00  0.00    -0.277 OA
BRANCH   7   8
HETATM    8  C   UNL     1     -21.538 -10.245  -2.461  1.00  0.00     0.261 C 
HETATM    9  O   UNL     1     -21.993 -10.269  -3.596  1.00  0.00    -0.265 OA
BRANCH   8  10
HETATM   10  C   UNL     1     -22.389 -10.074  -1.230  1.00  0.00     0.111 C 
BRANCH  10  11
HETATM   11  C   UNL     1     -21.640  -9.455  -0.051  1.00  0.00     0.010 C 
BRANCH  11  12
HETATM   12  C   UNL     1     -21.256  -8.005  -0.368  1.00  0.00     0.000 C 
BRANCH  12  13
HETATM   13  C   UNL     1     -22.476  -7.115  -0.614  1.00  0.00     0.000 C 
BRANCH  13  14
HETATM   14  C   UNL     1     -22.287  -6.264  -1.874  1.00  0.00     0.000 C 
BRANCH  14  15
HETATM   15  C   UNL     1     -21.099  -6.744  -2.709  1.00  0.00     0.000 C 
BRANCH  15  16
HETATM   16  C   UNL     1     -21.445  -6.766  -4.199  1.00  0.00     0.000 C 
BRANCH  16  17
HETATM   17  C   UNL     1     -20.863  -5.557  -4.932  1.00  0.00     0.000 C 
BRANCH  17  18
HETATM   18  C   UNL     1     -20.350  -5.949  -6.318  1.00  0.00    -0.000 C 
BRANCH  18  19
HETATM   19  C   UNL     1     -21.142  -5.255  -7.425  1.00  0.00    -0.005 C 
HETATM   20  C   UNL     1     -21.174  -3.749  -7.219  1.00  0.00     0.005 C 
ENDBRANCH  18  19
ENDBRANCH  17  18
ENDBRANCH  16  17
ENDBRANCH  15  16
ENDBRANCH  14  15
ENDBRANCH  13  14
ENDBRANCH  12  13
ENDBRANCH  11  12
ENDBRANCH  10  11
ENDBRANCH   8  10
ENDBRANCH   7   8
ENDBRANCH   1   7
BRANCH   1  21
HETATM   21  C   UNL     1     -18.672 -11.092  -3.970  1.00  0.00     0.170 C 
HETATM   22  C   UNL     1     -19.476 -11.352  -5.270  1.00  0.00     0.192 C 
HETATM   23  C   UNL     1     -18.576 -12.138  -6.216  1.00  0.00     0.181 C 
HETATM   24  C   UNL     1     -17.212 -12.121  -5.558  1.00  0.00     0.177 C 
HETATM   25  O   UNL     1     -17.400 -11.805  -4.155  1.00  0.00    -0.359 OA
BRANCH  22  26
HETATM   26  O   UNL     1     -19.980 -10.175  -5.909  1.00  0.00    -0.390 OA
HETATM   27  H   UNL     1     -20.785  -9.888  -5.419  1.00  0.00     0.210 HD
ENDBRANCH  22  26
BRANCH  23  28
HETATM   28  O   UNL     1     -18.588 -11.626  -7.543  1.00  0.00    -0.390 OA
HETATM   29  H   UNL     1     -17.762 -11.109  -7.650  1.00  0.00     0.210 HD
ENDBRANCH  23  28
BRANCH  24  30
HETATM   30  C   UNL     1     -16.214 -11.203  -6.292  1.00  0.00     0.198 C 
BRANCH  30  31
HETATM   31  O   UNL     1     -15.370 -11.929  -7.189  1.00  0.00    -0.398 OA
HETATM   32  H   UNL     1     -15.919 -12.570  -7.657  1.00  0.00     0.209 HD
ENDBRANCH  30  31
ENDBRANCH  24  30
BRANCH  21  33
HETATM   33  C   UNL     1     -18.312  -9.591  -3.751  1.00  0.00     0.210 C 
BRANCH  33  34
HETATM   34  O   UNL     1     -17.372  -9.404  -2.697  1.00  0.00    -0.398 OA
HETATM   35  H   UNL     1     -17.425 -10.208  -2.137  1.00  0.00     0.209 HD
ENDBRANCH  33  34
ENDBRANCH  21  33
ENDBRANCH   1  21
BRANCH   2  36
HETATM   36  O   UNL     1     -19.293 -13.985  -3.100  1.00  0.00    -0.387 OA
HETATM   37  H   UNL     1     -19.795 -14.827  -3.057  1.00  0.00     0.210 HD
ENDBRANCH   2  36
BRANCH   3  38
HETATM   38  O   UNL     1     -21.521 -14.496  -1.437  1.00  0.00    -0.390 OA
HETATM   39  H   UNL     1     -22.467 -14.253  -1.484  1.00  0.00     0.210 HD
ENDBRANCH   3  38
BRANCH   5  40
HETATM   40  C   UNL     1     -17.658 -12.195   0.629  1.00  0.00     0.198 C 
BRANCH  40  41
HETATM   41  O   UNL     1     -16.478 -11.770  -0.056  1.00  0.00    -0.398 OA
HETATM   42  H   UNL     1     -16.714 -11.751  -1.000  1.00  0.00     0.209 HD
ENDBRANCH  40  41
ENDBRANCH   5  40
BRANCH   4  43
HETATM   43  O   UNL     1     -18.886 -14.505  -0.509  1.00  0.00    -0.390 OA
HETATM   44  H   UNL     1     -17.961 -14.187  -0.569  1.00  0.00     0.210 HD
ENDBRANCH   4  43
TORSDOF 24
ENDMDL
MODEL 6
REMARK VINA RESULT:      -5.5      4.507      6.949
REMARK  24 active torsions:
REMARK  status: ('A' for Active; 'I' for Inactive)
REMARK    1  A    between atoms: C_2  and  C_3 
REMARK    2  A    between atoms: C_3  and  C_4 
REMARK    3  A    between atoms: C_4  and  C_5 
REMARK    4  A    between atoms: C_5  and  C_6 
REMARK    5  A    between atoms: C_6  and  C_7 
REMARK    6  A    between atoms: C_7  and  C_8 
REMARK    7  A    between atoms: C_8  and  C_9 
REMARK    8  A    between atoms: C_9  and  C_10 
REMARK    9  A    between atoms: C_10  and  C_11 
REMARK   10  A    between atoms: C_11  and  C_12 
REMARK   11  A    between atoms: C_12  and  O_14 
REMARK   12  A    between atoms: O_14  and  C_15 
REMARK   13  A    between atoms: C_15  and  C_26 
REMARK   14  A    between atoms: C_16  and  O_25 
REMARK   15  A    between atoms: C_17  and  O_24 
REMARK   16  A    between atoms: C_18  and  O_23 
REMARK   17  A    between atoms: C_19  and  C_21 
REMARK   18  A    between atoms: C_21  and  O_22 
REMARK   19  A    between atoms: C_26  and  C_35 
REMARK   20  A    between atoms: C_27  and  O_34 
REMARK   21  A    between atoms: C_28  and  O_33 
REMARK   22  A    between atoms: C_29  and  C_31 
REMARK   23  A    between atoms: C_31  and  O_32 
REMARK   24  A    between atoms: C_35  and  O_36 
ROOT
HETATM    1  C   UNL     1     -18.245 -12.234  -4.296  1.00  0.00     0.238 C 
HETATM    2  C   UNL     1     -18.438 -10.848  -4.993  1.00  0.00     0.215 C 
HETATM    3  C   UNL     1     -19.914 -10.409  -4.852  1.00  0.00     0.183 C 
HETATM    4  C   UNL     1     -20.860 -11.444  -5.483  1.00  0.00     0.180 C 
HETATM    5  C   UNL     1     -20.545 -12.832  -4.913  1.00  0.00     0.180 C 
HETATM    6  O   UNL     1     -19.136 -13.146  -5.031  1.00  0.00    -0.340 OA
ENDROOT
BRANCH   1   7
HETATM    7  O   UNL     1     -18.636 -12.305  -2.888  1.00  0.00    -0.277 OA
BRANCH   7   8
HETATM    8  C   UNL     1     -18.449 -11.273  -2.027  1.00  0.00     0.261 C 
HETATM    9  O   UNL     1     -17.393 -10.676  -1.874  1.00  0.00    -0.265 OA
BRANCH   8  10
HETATM   10  C   UNL     1     -19.719 -10.911  -1.303  1.00  0.00     0.111 C 
BRANCH  10  11
HETATM   11  C   UNL     1     -19.884 -11.626   0.037  1.00  0.00     0.010 C 
BRANCH  11  12
HETATM   12  C   UNL     1     -20.946 -12.725  -0.075  1.00  0.00     0.000 C 
BRANCH  12  13
HETATM   13  C   UNL     1     -21.713 -12.937   1.232  1.00  0.00     0.000 C 
BRANCH  13  14
HETATM   14  C   UNL     1     -23.223 -12.987   0.977  1.00  0.00     0.000 C 
BRANCH  14  15
HETATM   15  C   UNL     1     -23.597 -12.320  -0.347  1.00  0.00     0.000 C 
BRANCH  15  16
HETATM   16  C   UNL     1     -24.100 -10.892  -0.122  1.00  0.00     0.000 C 
BRANCH  16  17
HETATM   17  C   UNL     1     -23.112  -9.856  -0.660  1.00  0.00     0.000 C 
BRANCH  17  18
HETATM   18  C   UNL     1     -22.966  -8.682   0.309  1.00  0.00    -0.000 C 
BRANCH  18  19
HETATM   19  C   UNL     1     -21.835  -7.745  -0.112  1.00  0.00    -0.005 C 
HETATM   20  C   UNL     1     -22.306  -6.749  -1.159  1.00  0.00     0.005 C 
ENDBRANCH  18  19
ENDBRANCH  17  18
ENDBRANCH  16  17
ENDBRANCH  15  16
ENDBRANCH  14  15
ENDBRANCH  13  14
ENDBRANCH  12  13
ENDBRANCH  11  12
ENDBRANCH  10  11
ENDBRANCH   8  10
ENDBRANCH   7   8
ENDBRANCH   1   7
BRANCH   1  21
HETATM   21  C   UNL     1     -16.775 -12.865  -4.445  1.00  0.00     0.170 C 
HETATM   22  C   UNL     1     -15.637 -11.813  -4.387  1.00  0.00     0.192 C 
HETATM   23  C   UNL     1     -14.760 -12.020  -5.616  1.00  0.00     0.181 C 
HETATM   24  C   UNL     1     -15.255 -13.311  -6.234  1.00  0.00     0.177 C 
HETATM   25  O   UNL     1     -16.590 -13.564  -5.723  1.00  0.00    -0.359 OA
BRANCH  22  26
HETATM   26  O   UNL     1     -14.851 -11.844  -3.191  1.00  0.00    -0.390 OA
HETATM   27  H   UNL     1     -15.334 -11.335  -2.500  1.00  0.00     0.210 HD
ENDBRANCH  22  26
BRANCH  23  28
HETATM   28  O   UNL     1     -13.371 -12.018  -5.311  1.00  0.00    -0.390 OA
HETATM   29  H   UNL     1     -12.958 -12.700  -5.880  1.00  0.00     0.210 HD
ENDBRANCH  23  28
BRANCH  24  30
HETATM   30  C   UNL     1     -14.265 -14.477  -6.039  1.00  0.00     0.198 C 
BRANCH  30  31
HETATM   31  O   UNL     1     -14.926 -15.696  -5.691  1.00  0.00    -0.398 OA
HETATM   32  H   UNL     1     -14.766 -15.861  -4.753  1.00  0.00     0.209 HD
ENDBRANCH  30  31
ENDBRANCH  24  30
BRANCH  21  33
HETATM   33  C   UNL     1     -16.678 -13.947  -3.328  1.00  0.00     0.210 C 
BRANCH  33  34
HETATM   34  O   UNL     1     -17.342 -15.157  -3.682  1.00  0.00    -0.398 OA
HETATM   35  H   UNL     1     -18.203 -14.892  -4.072  1.00  0.00     0.209 HD
ENDBRANCH  33  34
ENDBRANCH  21  33
ENDBRANCH   1  21
BRANCH   2  36
HETATM   36  O   UNL     1     -18.145 -10.926  -6.413  1.00  0.00    -0.387 OA
HETATM   37  H   UNL     1     -17.427 -10.286  -6.608  1.00  0.00     0.210 HD
ENDBRANCH   2  36
BRANCH   3  38
HETATM   38  O   UNL     1     -20.114  -9.132  -5.466  1.00  0.00    -0.390 OA
HETATM   39  H   UNL     1     -20.852  -9.254  -6.096  1.00  0.00     0.210 HD
ENDBRANCH   3  38
BRANCH   5  40
HETATM   40  C   UNL     1     -21.339 -13.924  -5.644  1.00  0.00     0.198 C 
BRANCH  40  41
HETATM   41  O   UNL     1     -22.642 -13.436  -5.969  1.00  0.00    -0.398 OA
HETATM   42  H   UNL     1     -23.265 -14.104  -5.633  1.00  0.00     0.209 HD
ENDBRANCH  40  41
ENDBRANCH   5  40
BRANCH   4  43
HETATM   43  O   UNL     1     -20.720 -11.444  -6.913  1.00  0.00    -0.390 OA
HETATM   44  H   UNL     1     -20.612 -12.378  -7.191  1.00  0.00     0.210 HD
ENDBRANCH   4  43
TORSDOF 24
ENDMDL
MODEL 7
REMARK VINA RESULT:      -5.4      1.464      2.223
REMARK  24 active torsions:
REMARK  status: ('A' for Active; 'I' for Inactive)
REMARK    1  A    between atoms: C_2  and  C_3 
REMARK    2  A    between atoms: C_3  and  C_4 
REMARK    3  A    between atoms: C_4  and  C_5 
REMARK    4  A    between atoms: C_5  and  C_6 
REMARK    5  A    between atoms: C_6  and  C_7 
REMARK    6  A    between atoms: C_7  and  C_8 
REMARK    7  A    between atoms: C_8  and  C_9 
REMARK    8  A    between atoms: C_9  and  C_10 
REMARK    9  A    between atoms: C_10  and  C_11 
REMARK   10  A    between atoms: C_11  and  C_12 
REMARK   11  A    between atoms: C_12  and  O_14 
REMARK   12  A    between atoms: O_14  and  C_15 
REMARK   13  A    between atoms: C_15  and  C_26 
REMARK   14  A    between atoms: C_16  and  O_25 
REMARK   15  A    between atoms: C_17  and  O_24 
REMARK   16  A    between atoms: C_18  and  O_23 
REMARK   17  A    between atoms: C_19  and  C_21 
REMARK   18  A    between atoms: C_21  and  O_22 
REMARK   19  A    between atoms: C_26  and  C_35 
REMARK   20  A    between atoms: C_27  and  O_34 
REMARK   21  A    between atoms: C_28  and  O_33 
REMARK   22  A    between atoms: C_29  and  C_31 
REMARK   23  A    between atoms: C_31  and  O_32 
REMARK   24  A    between atoms: C_35  and  O_36 
ROOT
HETATM    1  C   UNL     1     -19.974 -10.748  -2.092  1.00  0.00     0.238 C 
HETATM    2  C   UNL     1     -21.286 -11.580  -2.271  1.00  0.00     0.215 C 
HETATM    3  C   UNL     1     -22.507 -10.644  -2.124  1.00  0.00     0.183 C 
HETATM    4  C   UNL     1     -22.512  -9.955  -0.748  1.00  0.00     0.180 C 
HETATM    5  C   UNL     1     -21.154  -9.282  -0.514  1.00  0.00     0.180 C 
HETATM    6  O   UNL     1     -20.060 -10.209  -0.726  1.00  0.00    -0.340 OA
ENDROOT
BRANCH   1   7
HETATM    7  O   UNL     1     -19.814  -9.603  -2.989  1.00  0.00    -0.277 OA
BRANCH   7   8
HETATM    8  C   UNL     1     -20.325  -9.584  -4.246  1.00  0.00     0.261 C 
HETATM    9  O   UNL     1     -20.048 -10.391  -5.123  1.00  0.00    -0.265 OA
BRANCH   8  10
HETATM   10  C   UNL     1     -21.321  -8.469  -4.429  1.00  0.00     0.111 C 
BRANCH  10  11
HETATM   11  C   UNL     1     -20.682  -7.139  -4.823  1.00  0.00     0.010 C 
BRANCH  11  12
HETATM   12  C   UNL     1     -21.149  -6.719  -6.221  1.00  0.00     0.000 C 
BRANCH  12  13
HETATM   13  C   UNL     1     -20.790  -5.268  -6.550  1.00  0.00     0.000 C 
BRANCH  13  14
HETATM   14  C   UNL     1     -22.007  -4.515  -7.097  1.00  0.00     0.000 C 
BRANCH  14  15
HETATM   15  C   UNL     1     -21.695  -3.823  -8.426  1.00  0.00     0.000 C 
BRANCH  15  16
HETATM   16  C   UNL     1     -20.300  -4.198  -8.928  1.00  0.00     0.000 C 
BRANCH  16  17
HETATM   17  C   UNL     1     -20.301  -4.493 -10.428  1.00  0.00     0.000 C 
BRANCH  17  18
HETATM   18  C   UNL     1     -20.843  -3.303 -11.221  1.00  0.00    -0.000 C 
BRANCH  18  19
HETATM   19  C   UNL     1     -22.014  -3.710 -12.114  1.00  0.00    -0.005 C 
HETATM   20  C   UNL     1     -23.060  -2.609 -12.186  1.00  0.00     0.005 C 
ENDBRANCH  18  19
ENDBRANCH  17  18
ENDBRANCH  16  17
ENDBRANCH  15  16
ENDBRANCH  14  15
ENDBRANCH  13  14
ENDBRANCH  12  13
ENDBRANCH  11  12
ENDBRANCH  10  11
ENDBRANCH   8  10
ENDBRANCH   7   8
ENDBRANCH   1   7
BRANCH   1  21
HETATM   21  C   UNL     1     -18.619 -11.609  -2.125  1.00  0.00     0.170 C 
HETATM   22  C   UNL     1     -18.176 -12.128  -0.733  1.00  0.00     0.192 C 
HETATM   23  C   UNL     1     -16.724 -11.711  -0.530  1.00  0.00     0.181 C 
HETATM   24  C   UNL     1     -16.283 -11.172  -1.874  1.00  0.00     0.177 C 
HETATM   25  O   UNL     1     -17.475 -10.838  -2.631  1.00  0.00    -0.359 OA
BRANCH  22  26
HETATM   26  O   UNL     1     -18.331 -13.538  -0.540  1.00  0.00    -0.390 OA
HETATM   27  H   UNL     1     -18.186 -13.978  -1.408  1.00  0.00     0.210 HD
ENDBRANCH  22  26
BRANCH  23  28
HETATM   28  O   UNL     1     -15.910 -12.766  -0.031  1.00  0.00    -0.390 OA
HETATM   29  H   UNL     1     -15.177 -12.879  -0.671  1.00  0.00     0.210 HD
ENDBRANCH  23  28
BRANCH  24  30
HETATM   30  C   UNL     1     -15.309 -12.120  -2.601  1.00  0.00     0.198 C 
BRANCH  30  31
HETATM   31  O   UNL     1     -15.427 -12.031  -4.023  1.00  0.00    -0.398 OA
HETATM   32  H   UNL     1     -15.169 -11.139  -4.285  1.00  0.00     0.209 HD
ENDBRANCH  30  31
ENDBRANCH  24  30
BRANCH  21  33
HETATM   33  C   UNL     1     -18.880 -12.747  -3.158  1.00  0.00     0.210 C 
BRANCH  33  34
HETATM   34  O   UNL     1     -18.295 -12.474  -4.429  1.00  0.00    -0.398 OA
HETATM   35  H   UNL     1     -17.530 -11.884  -4.257  1.00  0.00     0.209 HD
ENDBRANCH  33  34
ENDBRANCH  21  33
ENDBRANCH   1  21
BRANCH   2  36
HETATM   36  O   UNL     1     -21.402 -12.606  -1.249  1.00  0.00    -0.387 OA
HETATM   37  H   UNL     1     -20.964 -12.273  -0.436  1.00  0.00     0.210 HD
ENDBRANCH   2  36
BRANCH   3  38
HETATM   38  O   UNL     1     -23.722 -11.379  -2.301  1.00  0.00    -0.390 OA
HETATM   39  H   UNL     1     -24.401 -10.892  -1.794  1.00  0.00     0.210 HD
ENDBRANCH   3  38
BRANCH   5  40
HETATM   40  C   UNL     1     -21.046  -8.737   0.917  1.00  0.00     0.198 C 
BRANCH  40  41
HETATM   41  O   UNL     1     -22.232  -8.012   1.247  1.00  0.00    -0.398 OA
HETATM   42  H   UNL     1     -22.042  -7.082   1.028  1.00  0.00     0.209 HD
ENDBRANCH  40  41
ENDBRANCH   5  40
BRANCH   4  43
HETATM   43  O   UNL     1     -22.785 -10.910   0.289  1.00  0.00    -0.390 OA
HETATM   44  H   UNL     1     -23.706 -11.220   0.159  1.00  0.00     0.210 HD
ENDBRANCH   4  43
TORSDOF 24
ENDMDL
MODEL 8
REMARK VINA RESULT:      -5.4     17.087     19.686
REMARK  24 active torsions:
REMARK  status: ('A' for Active; 'I' for Inactive)
REMARK    1  A    between atoms: C_2  and  C_3 
REMARK    2  A    between atoms: C_3  and  C_4 
REMARK    3  A    between atoms: C_4  and  C_5 
REMARK    4  A    between atoms: C_5  and  C_6 
REMARK    5  A    between atoms: C_6  and  C_7 
REMARK    6  A    between atoms: C_7  and  C_8 
REMARK    7  A    between atoms: C_8  and  C_9 
REMARK    8  A    between atoms: C_9  and  C_10 
REMARK    9  A    between atoms: C_10  and  C_11 
REMARK   10  A    between atoms: C_11  and  C_12 
REMARK   11  A    between atoms: C_12  and  O_14 
REMARK   12  A    between atoms: O_14  and  C_15 
REMARK   13  A    between atoms: C_15  and  C_26 
REMARK   14  A    between atoms: C_16  and  O_25 
REMARK   15  A    between atoms: C_17  and  O_24 
REMARK   16  A    between atoms: C_18  and  O_23 
REMARK   17  A    between atoms: C_19  and  C_21 
REMARK   18  A    between atoms: C_21  and  O_22 
REMARK   19  A    between atoms: C_26  and  C_35 
REMARK   20  A    between atoms: C_27  and  O_34 
REMARK   21  A    between atoms: C_28  and  O_33 
REMARK   22  A    between atoms: C_29  and  C_31 
REMARK   23  A    between atoms: C_31  and  O_32 
REMARK   24  A    between atoms: C_35  and  O_36 
ROOT
HETATM    1  C   UNL     1     -25.268   9.800  -4.215  1.00  0.00     0.238 C 
HETATM    2  C   UNL     1     -24.795   8.457  -4.863  1.00  0.00     0.215 C 
HETATM    3  C   UNL     1     -26.010   7.745  -5.500  1.00  0.00     0.183 C 
HETATM    4  C   UNL     1     -27.097   7.460  -4.449  1.00  0.00     0.180 C 
HETATM    5  C   UNL     1     -27.432   8.758  -3.703  1.00  0.00     0.180 C 
HETATM    6  O   UNL     1     -26.238   9.394  -3.185  1.00  0.00    -0.340 OA
ENDROOT
BRANCH   1   7
HETATM    7  O   UNL     1     -25.962  10.732  -5.104  1.00  0.00    -0.277 OA
BRANCH   7   8
HETATM    8  C   UNL     1     -25.578  10.935  -6.390  1.00  0.00     0.261 C 
HETATM    9  O   UNL     1     -24.526  11.458  -6.729  1.00  0.00    -0.265 OA
BRANCH   8  10
HETATM   10  C   UNL     1     -26.589  10.395  -7.368  1.00  0.00     0.111 C 
BRANCH  10  11
HETATM   11  C   UNL     1     -26.018  10.150  -8.763  1.00  0.00     0.010 C 
BRANCH  11  12
HETATM   12  C   UNL     1     -26.732  11.034  -9.791  1.00  0.00     0.000 C 
BRANCH  12  13
HETATM   13  C   UNL     1     -26.461  10.596 -11.232  1.00  0.00     0.000 C 
BRANCH  13  14
HETATM   14  C   UNL     1     -25.036  10.966 -11.658  1.00  0.00     0.000 C 
BRANCH  14  15
HETATM   15  C   UNL     1     -24.327   9.795 -12.342  1.00  0.00     0.000 C 
BRANCH  15  16
HETATM   16  C   UNL     1     -23.551   8.953 -11.327  1.00  0.00     0.000 C 
BRANCH  16  17
HETATM   17  C   UNL     1     -23.810   7.458 -11.521  1.00  0.00     0.000 C 
BRANCH  17  18
HETATM   18  C   UNL     1     -25.283   7.192 -11.838  1.00  0.00    -0.000 C 
BRANCH  18  19
HETATM   19  C   UNL     1     -26.089   6.920 -10.569  1.00  0.00    -0.005 C 
HETATM   20  C   UNL     1     -25.511   5.748  -9.792  1.00  0.00     0.005 C 
ENDBRANCH  18  19
ENDBRANCH  17  18
ENDBRANCH  16  17
ENDBRANCH  15  16
ENDBRANCH  14  15
ENDBRANCH  13  14
ENDBRANCH  12  13
ENDBRANCH  11  12
ENDBRANCH  10  11
ENDBRANCH   8  10
ENDBRANCH   7   8
ENDBRANCH   1   7
BRANCH   1  21
HETATM   21  C   UNL     1     -24.125  10.608  -3.427  1.00  0.00     0.170 C 
HETATM   22  C   UNL     1     -22.740  10.565  -4.122  1.00  0.00     0.192 C 
HETATM   23  C   UNL     1     -21.722  10.100  -3.086  1.00  0.00     0.181 C 
HETATM   24  C   UNL     1     -22.476  10.105  -1.773  1.00  0.00     0.177 C 
HETATM   25  O   UNL     1     -23.895  10.083  -2.075  1.00  0.00    -0.359 OA
BRANCH  22  26
HETATM   26  O   UNL     1     -22.328  11.798  -4.720  1.00  0.00    -0.390 OA
HETATM   27  H   UNL     1     -23.139  12.301  -4.961  1.00  0.00     0.210 HD
ENDBRANCH  22  26
BRANCH  23  28
HETATM   28  O   UNL     1     -20.539  10.889  -3.080  1.00  0.00    -0.390 OA
HETATM   29  H   UNL     1     -20.552  11.416  -3.906  1.00  0.00     0.210 HD
ENDBRANCH  23  28
BRANCH  24  30
HETATM   30  C   UNL     1     -22.038  11.256  -0.845  1.00  0.00     0.198 C 
BRANCH  30  31
HETATM   31  O   UNL     1     -22.017  12.517  -1.519  1.00  0.00    -0.398 OA
HETATM   32  H   UNL     1     -21.550  12.396  -2.356  1.00  0.00     0.209 HD
ENDBRANCH  30  31
ENDBRANCH  24  30
BRANCH  21  33
HETATM   33  C   UNL     1     -24.688  12.051  -3.254  1.00  0.00     0.210 C 
BRANCH  33  34
HETATM   34  O   UNL     1     -25.862  12.085  -2.447  1.00  0.00    -0.398 OA
HETATM   35  H   UNL     1     -25.689  12.743  -1.740  1.00  0.00     0.209 HD
ENDBRANCH  33  34
ENDBRANCH  21  33
ENDBRANCH   1  21
BRANCH   2  36
HETATM   36  O   UNL     1     -24.241   7.558  -3.866  1.00  0.00    -0.387 OA
HETATM   37  H   UNL     1     -23.351   7.891  -3.621  1.00  0.00     0.210 HD
ENDBRANCH   2  36
BRANCH   3  38
HETATM   38  O   UNL     1     -25.601   6.520  -6.116  1.00  0.00    -0.390 OA
HETATM   39  H   UNL     1     -24.636   6.463  -5.976  1.00  0.00     0.210 HD
ENDBRANCH   3  38
BRANCH   5  40
HETATM   40  C   UNL     1     -28.378   8.490  -2.525  1.00  0.00     0.198 C 
BRANCH  40  41
HETATM   41  O   UNL     1     -27.618   8.305  -1.329  1.00  0.00    -0.398 OA
HETATM   42  H   UNL     1     -28.210   8.560  -0.599  1.00  0.00     0.209 HD
ENDBRANCH  40  41
ENDBRANCH   5  40
BRANCH   4  43
HETATM   43  O   UNL     1     -26.652   6.452  -3.529  1.00  0.00    -0.390 OA
HETATM   44  H   UNL     1     -25.961   5.928  -3.987  1.00  0.00     0.210 HD
ENDBRANCH   4  43
TORSDOF 24
ENDMDL
MODEL 9
REMARK VINA RESULT:      -5.3      3.431      6.795
REMARK  24 active torsions:
REMARK  status: ('A' for Active; 'I' for Inactive)
REMARK    1  A    between atoms: C_2  and  C_3 
REMARK    2  A    between atoms: C_3  and  C_4 
REMARK    3  A    between atoms: C_4  and  C_5 
REMARK    4  A    between atoms: C_5  and  C_6 
REMARK    5  A    between atoms: C_6  and  C_7 
REMARK    6  A    between atoms: C_7  and  C_8 
REMARK    7  A    between atoms: C_8  and  C_9 
REMARK    8  A    between atoms: C_9  and  C_10 
REMARK    9  A    between atoms: C_10  and  C_11 
REMARK   10  A    between atoms: C_11  and  C_12 
REMARK   11  A    between atoms: C_12  and  O_14 
REMARK   12  A    between atoms: O_14  and  C_15 
REMARK   13  A    between atoms: C_15  and  C_26 
REMARK   14  A    between atoms: C_16  and  O_25 
REMARK   15  A    between atoms: C_17  and  O_24 
REMARK   16  A    between atoms: C_18  and  O_23 
REMARK   17  A    between atoms: C_19  and  C_21 
REMARK   18  A    between atoms: C_21  and  O_22 
REMARK   19  A    between atoms: C_26  and  C_35 
REMARK   20  A    between atoms: C_27  and  O_34 
REMARK   21  A    between atoms: C_28  and  O_33 
REMARK   22  A    between atoms: C_29  and  C_31 
REMARK   23  A    between atoms: C_31  and  O_32 
REMARK   24  A    between atoms: C_35  and  O_36 
ROOT
HETATM    1  C   UNL     1     -17.637 -12.155  -3.908  1.00  0.00     0.238 C 
HETATM    2  C   UNL     1     -16.601 -10.989  -4.023  1.00  0.00     0.215 C 
HETATM    3  C   UNL     1     -16.391 -10.640  -5.514  1.00  0.00     0.183 C 
HETATM    4  C   UNL     1     -15.889 -11.861  -6.302  1.00  0.00     0.180 C 
HETATM    5  C   UNL     1     -16.824 -13.049  -6.046  1.00  0.00     0.180 C 
HETATM    6  O   UNL     1     -17.014 -13.277  -4.628  1.00  0.00    -0.340 OA
ENDROOT
BRANCH   1   7
HETATM    7  O   UNL     1     -18.938 -11.920  -4.536  1.00  0.00    -0.277 OA
BRANCH   7   8
HETATM    8  C   UNL     1     -19.315 -10.702  -5.000  1.00  0.00     0.261 C 
HETATM    9  O   UNL     1     -19.285 -10.365  -6.175  1.00  0.00    -0.265 OA
BRANCH   8  10
HETATM   10  C   UNL     1     -19.823  -9.814  -3.895  1.00  0.00     0.111 C 
BRANCH  10  11
HETATM   11  C   UNL     1     -20.049  -8.367  -4.330  1.00  0.00     0.010 C 
BRANCH  11  12
HETATM   12  C   UNL     1     -21.490  -8.177  -4.816  1.00  0.00     0.000 C 
BRANCH  12  13
HETATM   13  C   UNL     1     -22.033  -6.779  -4.513  1.00  0.00     0.000 C 
BRANCH  13  14
HETATM   14  C   UNL     1     -21.299  -6.153  -3.324  1.00  0.00     0.000 C 
BRANCH  14  15
HETATM   15  C   UNL     1     -22.146  -6.191  -2.050  1.00  0.00     0.000 C 
BRANCH  15  16
HETATM   16  C   UNL     1     -21.953  -7.511  -1.300  1.00  0.00     0.000 C 
BRANCH  16  17
HETATM   17  C   UNL     1     -22.441  -7.413   0.146  1.00  0.00     0.000 C 
BRANCH  17  18
HETATM   18  C   UNL     1     -23.304  -8.619   0.517  1.00  0.00    -0.000 C 
BRANCH  18  19
HETATM   19  C   UNL     1     -22.819  -9.890  -0.178  1.00  0.00    -0.005 C 
HETATM   20  C   UNL     1     -23.946 -10.899  -0.330  1.00  0.00     0.005 C 
ENDBRANCH  18  19
ENDBRANCH  17  18
ENDBRANCH  16  17
ENDBRANCH  15  16
ENDBRANCH  14  15
ENDBRANCH  13  14
ENDBRANCH  12  13
ENDBRANCH  11  12
ENDBRANCH  10  11
ENDBRANCH   8  10
ENDBRANCH   7   8
ENDBRANCH   1   7
BRANCH   1  21
HETATM   21  C   UNL     1     -17.886 -12.692  -2.415  1.00  0.00     0.170 C 
HETATM   22  C   UNL     1     -17.827 -11.582  -1.335  1.00  0.00     0.192 C 
HETATM   23  C   UNL     1     -16.845 -12.038  -0.262  1.00  0.00     0.181 C 
HETATM   24  C   UNL     1     -16.532 -13.478  -0.610  1.00  0.00     0.177 C 
HETATM   25  O   UNL     1     -16.886 -13.685  -2.002  1.00  0.00    -0.359 OA
BRANCH  22  26
HETATM   26  O   UNL     1     -19.091 -11.241  -0.755  1.00  0.00    -0.390 OA
HETATM   27  H   UNL     1     -18.916 -10.733   0.070  1.00  0.00     0.210 HD
ENDBRANCH  22  26
BRANCH  23  28
HETATM   28  O   UNL     1     -17.343 -11.854   1.057  1.00  0.00    -0.390 OA
HETATM   29  H   UNL     1     -18.311 -11.993   1.012  1.00  0.00     0.210 HD
ENDBRANCH  23  28
BRANCH  24  30
HETATM   30  C   UNL     1     -17.179 -14.477   0.370  1.00  0.00     0.198 C 
BRANCH  30  31
HETATM   31  O   UNL     1     -18.563 -14.197   0.592  1.00  0.00    -0.398 OA
HETATM   32  H   UNL     1     -18.620 -13.414   1.154  1.00  0.00     0.209 HD
ENDBRANCH  30  31
ENDBRANCH  24  30
BRANCH  21  33
HETATM   33  C   UNL     1     -19.255 -13.436  -2.469  1.00  0.00     0.210 C 
BRANCH  33  34
HETATM   34  O   UNL     1     -19.202 -14.620  -3.260  1.00  0.00    -0.398 OA
HETATM   35  H   UNL     1     -20.132 -14.852  -3.469  1.00  0.00     0.209 HD
ENDBRANCH  33  34
ENDBRANCH  21  33
ENDBRANCH   1  21
BRANCH   2  36
HETATM   36  O   UNL     1     -15.309 -11.378  -3.485  1.00  0.00    -0.387 OA
HETATM   37  H   UNL     1     -15.076 -10.744  -2.773  1.00  0.00     0.210 HD
ENDBRANCH   2  36
BRANCH   3  38
HETATM   38  O   UNL     1     -15.459  -9.562  -5.646  1.00  0.00    -0.390 OA
HETATM   39  H   UNL     1     -15.838  -8.821  -5.134  1.00  0.00     0.210 HD
ENDBRANCH   3  38
BRANCH   5  40
HETATM   40  C   UNL     1     -16.265 -14.337  -6.665  1.00  0.00     0.198 C 
BRANCH  40  41
HETATM   41  O   UNL     1     -15.370 -14.965  -5.745  1.00  0.00    -0.398 OA
HETATM   42  H   UNL     1     -14.516 -15.027  -6.209  1.00  0.00     0.209 HD
ENDBRANCH  40  41
ENDBRANCH   5  40
BRANCH   4  43
HETATM   43  O   UNL     1     -14.544 -12.188  -5.916  1.00  0.00    -0.390 OA
HETATM   44  H   UNL     1     -14.582 -12.514  -4.992  1.00  0.00     0.210 HD
ENDBRANCH   4  43
TORSDOF 24
ENDMDL
