MODEL 1
REMARK VINA RESULT:      -1.3      0.000      0.000
REMARK  2 active torsions:
REMARK  status: ('A' for Active; 'I' for Inactive)
REMARK    1  A    between atoms: C_3  and  C_4 
REMARK    2  A    between atoms: C_5  and  C_6 
ROOT
HETATM    1  K   UNL     2     -32.324  -8.576   4.529  1.00  0.00     0.000 K 
ENDROOT
TORSDOF 2
ENDMDL
MODEL 2
REMARK VINA RESULT:      -1.3     23.494     23.494
REMARK  2 active torsions:
REMARK  status: ('A' for Active; 'I' for Inactive)
REMARK    1  A    between atoms: C_3  and  C_4 
REMARK    2  A    between atoms: C_5  and  C_6 
ROOT
HETATM    1  K   UNL     2     -11.257   1.620   2.468  1.00  0.00     0.000 K 
ENDROOT
TORSDOF 2
ENDMDL
MODEL 3
REMARK VINA RESULT:      -1.2     19.033     19.033
REMARK  2 active torsions:
REMARK  status: ('A' for Active; 'I' for Inactive)
REMARK    1  A    between atoms: C_3  and  C_4 
REMARK    2  A    between atoms: C_5  and  C_6 
ROOT
HETATM    1  K   UNL     2     -27.015 -13.665 -13.026  1.00  0.00     0.000 K 
ENDROOT
TORSDOF 2
ENDMDL
MODEL 4
REMARK VINA RESULT:      -1.2     22.209     22.209
REMARK  2 active torsions:
REMARK  status: ('A' for Active; 'I' for Inactive)
REMARK    1  A    between atoms: C_3  and  C_4 
REMARK    2  A    between atoms: C_5  and  C_6 
ROOT
HETATM    1  K   UNL     2     -25.113   0.407 -14.459  1.00  0.00     0.000 K 
ENDROOT
TORSDOF 2
ENDMDL
MODEL 5
REMARK VINA RESULT:      -1.2     14.847     14.847
REMARK  2 active torsions:
REMARK  status: ('A' for Active; 'I' for Inactive)
REMARK    1  A    between atoms: C_3  and  C_4 
REMARK    2  A    between atoms: C_5  and  C_6 
ROOT
HETATM    1  K   UNL     2     -27.323  -5.636  -9.138  1.00  0.00     0.000 K 
ENDROOT
TORSDOF 2
ENDMDL
MODEL 6
REMARK VINA RESULT:      -1.2     34.909     34.909
REMARK  2 active torsions:
REMARK  status: ('A' for Active; 'I' for Inactive)
REMARK    1  A    between atoms: C_3  and  C_4 
REMARK    2  A    between atoms: C_5  and  C_6 
ROOT
HETATM    1  K   UNL     2      -9.118   5.886 -17.175  1.00  0.00     0.000 K 
ENDROOT
TORSDOF 2
ENDMDL
MODEL 7
REMARK VINA RESULT:      -1.1     12.330     12.330
REMARK  2 active torsions:
REMARK  status: ('A' for Active; 'I' for Inactive)
REMARK    1  A    between atoms: C_3  and  C_4 
REMARK    2  A    between atoms: C_5  and  C_6 
ROOT
HETATM    1  K   UNL     2     -25.223  -5.218  -4.975  1.00  0.00     0.000 K 
ENDROOT
TORSDOF 2
ENDMDL
MODEL 8
REMARK VINA RESULT:      -1.0     25.420     25.420
REMARK  2 active torsions:
REMARK  status: ('A' for Active; 'I' for Inactive)
REMARK    1  A    between atoms: C_3  and  C_4 
REMARK    2  A    between atoms: C_5  and  C_6 
ROOT
HETATM    1  K   UNL     2     -23.229   0.214 -17.521  1.00  0.00     0.000 K 
ENDROOT
TORSDOF 2
ENDMDL
MODEL 9
REMARK VINA RESULT:      -1.0     15.718     15.718
REMARK  2 active torsions:
REMARK  status: ('A' for Active; 'I' for Inactive)
REMARK    1  A    between atoms: C_3  and  C_4 
REMARK    2  A    between atoms: C_5  and  C_6 
ROOT
HETATM    1  K   UNL     2     -26.953  -3.578  -9.372  1.00  0.00     0.000 K 
ENDROOT
TORSDOF 2
ENDMDL
