MODEL 1
REMARK VINA RESULT:      -9.4      0.000      0.000
REMARK  0 active torsions:
REMARK  status: ('A' for Active; 'I' for Inactive)
ROOT
HETATM    1  C   UNL     1     -20.023  -4.826  -4.605  1.00  0.00     0.025 C 
HETATM    2  C   UNL     1     -20.845  -5.510  -5.673  1.00  0.00     0.110 C 
HETATM    3  C   UNL     1     -21.917  -4.960  -6.283  1.00  0.00     0.032 C 
HETATM    4  C   UNL     1     -21.823  -4.470  -7.646  1.00  0.00     0.015 C 
HETATM    5  C   UNL     1     -20.686  -4.295  -8.336  1.00  0.00     0.043 C 
HETATM    6  C   UNL     1     -20.793  -3.746  -9.640  1.00  0.00     0.008 A 
HETATM    7  C   UNL     1     -19.898  -3.382 -10.576  1.00  0.00     0.101 A 
HETATM    8  N   UNL     1     -20.537  -3.000 -11.741  1.00  0.00    -0.364 N 
HETATM    9  C   UNL     1     -21.900  -3.155 -11.640  1.00  0.00     0.054 A 
HETATM   10  C   UNL     1     -22.901  -3.050 -12.509  1.00  0.00     0.020 A 
HETATM   11  C   UNL     1     -24.283  -3.337 -11.981  1.00  0.00     0.230 A 
HETATM   12  O   UNL     1     -25.255  -3.260 -12.726  1.00  0.00    -0.283 OA
HETATM   13  C   UNL     1     -24.476  -3.735 -10.486  1.00  0.00     0.234 A 
HETATM   14  O   UNL     1     -25.588  -4.000 -10.045  1.00  0.00    -0.283 OA
HETATM   15  C   UNL     1     -23.260  -3.826  -9.639  1.00  0.00     0.044 A 
HETATM   16  C   UNL     1     -22.098  -3.571 -10.283  1.00  0.00     0.019 A 
HETATM   17  C   UNL     1     -23.147  -4.224  -8.232  1.00  0.00     0.008 C 
HETATM   18  C   UNL     1     -23.977  -4.562  -7.224  1.00  0.00     0.101 C 
HETATM   19  N   UNL     1     -23.277  -4.883  -6.031  1.00  0.00    -0.367 N 
HETATM   20  C   UNL     1     -22.728  -2.690 -13.944  1.00  0.00     0.055 C 
HETATM   21  C   UNL     1     -19.498  -4.895  -7.730  1.00  0.00     0.230 C 
HETATM   22  O   UNL     1     -18.345  -4.596  -7.963  1.00  0.00    -0.283 OA
HETATM   23  C   UNL     1     -19.881  -5.980  -6.723  1.00  0.00     0.209 C 
HETATM   24  O   UNL     1     -19.551  -7.144  -6.861  1.00  0.00    -0.288 OA
HETATM   25  H   UNL     1     -20.047  -2.907 -12.621  1.00  0.00     0.165 HD
HETATM   26  H   UNL     1     -23.701  -5.549  -5.388  1.00  0.00     0.165 HD
ENDROOT
TORSDOF 0
ENDMDL
MODEL 2
REMARK VINA RESULT:      -8.7      5.696      8.766
REMARK  0 active torsions:
REMARK  status: ('A' for Active; 'I' for Inactive)
ROOT
HETATM    1  C   UNL     1     -23.213 -11.986   0.726  1.00  0.00     0.025 C 
HETATM    2  C   UNL     1     -21.924 -11.578   0.049  1.00  0.00     0.110 C 
HETATM    3  C   UNL     1     -21.778 -11.418  -1.284  1.00  0.00     0.032 C 
HETATM    4  C   UNL     1     -21.692 -10.091  -1.865  1.00  0.00     0.015 C 
HETATM    5  C   UNL     1     -21.967  -8.942  -1.231  1.00  0.00     0.043 C 
HETATM    6  C   UNL     1     -21.885  -7.744  -1.987  1.00  0.00     0.008 A 
HETATM    7  C   UNL     1     -22.141  -6.451  -1.718  1.00  0.00     0.101 A 
HETATM    8  N   UNL     1     -21.785  -5.650  -2.787  1.00  0.00    -0.364 N 
HETATM    9  C   UNL     1     -21.216  -6.387  -3.799  1.00  0.00     0.054 A 
HETATM   10  C   UNL     1     -20.614  -6.066  -4.941  1.00  0.00     0.020 A 
HETATM   11  C   UNL     1     -20.094  -7.209  -5.772  1.00  0.00     0.230 A 
HETATM   12  O   UNL     1     -19.527  -6.988  -6.838  1.00  0.00    -0.283 OA
HETATM   13  C   UNL     1     -20.275  -8.676  -5.276  1.00  0.00     0.234 A 
HETATM   14  O   UNL     1     -19.833  -9.617  -5.923  1.00  0.00    -0.283 OA
HETATM   15  C   UNL     1     -20.955  -8.878  -3.972  1.00  0.00     0.044 A 
HETATM   16  C   UNL     1     -21.325  -7.741  -3.341  1.00  0.00     0.019 A 
HETATM   17  C   UNL     1     -21.208 -10.131  -3.251  1.00  0.00     0.008 C 
HETATM   18  C   UNL     1     -21.026 -11.451  -3.456  1.00  0.00     0.101 C 
HETATM   19  N   UNL     1     -21.465 -12.235  -2.358  1.00  0.00    -0.367 N 
HETATM   20  C   UNL     1     -20.417  -4.668  -5.417  1.00  0.00     0.055 C 
HETATM   21  C   UNL     1     -22.111  -9.056   0.220  1.00  0.00     0.230 C 
HETATM   22  O   UNL     1     -22.677  -8.270   0.950  1.00  0.00    -0.283 OA
HETATM   23  C   UNL     1     -21.449 -10.334   0.740  1.00  0.00     0.209 C 
HETATM   24  O   UNL     1     -20.521 -10.313   1.527  1.00  0.00    -0.288 OA
HETATM   25  H   UNL     1     -21.690  -4.647  -2.703  1.00  0.00     0.165 HD
HETATM   26  H   UNL     1     -21.004 -13.126  -2.186  1.00  0.00     0.165 HD
ENDROOT
TORSDOF 0
ENDMDL
MODEL 3
REMARK VINA RESULT:      -8.4      6.999      9.459
REMARK  0 active torsions:
REMARK  status: ('A' for Active; 'I' for Inactive)
ROOT
HETATM    1  C   UNL     1     -22.860  -7.435   1.476  1.00  0.00     0.025 C 
HETATM    2  C   UNL     1     -23.014  -7.914   0.050  1.00  0.00     0.110 C 
HETATM    3  C   UNL     1     -22.265  -7.481  -0.987  1.00  0.00     0.032 C 
HETATM    4  C   UNL     1     -21.224  -8.320  -1.550  1.00  0.00     0.015 C 
HETATM    5  C   UNL     1     -20.747  -9.447  -1.001  1.00  0.00     0.043 C 
HETATM    6  C   UNL     1     -19.681 -10.100  -1.672  1.00  0.00     0.008 A 
HETATM    7  C   UNL     1     -18.931 -11.183  -1.400  1.00  0.00     0.101 A 
HETATM    8  N   UNL     1     -18.082 -11.467  -2.454  1.00  0.00    -0.364 N 
HETATM    9  C   UNL     1     -18.284 -10.604  -3.507  1.00  0.00     0.054 A 
HETATM   10  C   UNL     1     -17.820 -10.553  -4.752  1.00  0.00     0.020 A 
HETATM   11  C   UNL     1     -18.328  -9.427  -5.613  1.00  0.00     0.230 A 
HETATM   12  O   UNL     1     -17.943  -9.317  -6.774  1.00  0.00    -0.283 OA
HETATM   13  C   UNL     1     -19.346  -8.401  -5.030  1.00  0.00     0.234 A 
HETATM   14  O   UNL     1     -19.793  -7.496  -5.724  1.00  0.00    -0.283 OA
HETATM   15  C   UNL     1     -19.785  -8.595  -3.626  1.00  0.00     0.044 A 
HETATM   16  C   UNL     1     -19.258  -9.678  -3.009  1.00  0.00     0.019 A 
HETATM   17  C   UNL     1     -20.762  -7.821  -2.851  1.00  0.00     0.008 C 
HETATM   18  C   UNL     1     -21.520  -6.719  -3.025  1.00  0.00     0.101 C 
HETATM   19  N   UNL     1     -22.325  -6.433  -1.892  1.00  0.00    -0.367 N 
HETATM   20  C   UNL     1     -16.862 -11.538  -5.328  1.00  0.00     0.055 C 
HETATM   21  C   UNL     1     -21.537  -9.973   0.112  1.00  0.00     0.230 C 
HETATM   22  O   UNL     1     -21.152 -10.746   0.964  1.00  0.00    -0.283 OA
HETATM   23  C   UNL     1     -22.961  -9.413   0.091  1.00  0.00     0.209 C 
HETATM   24  O   UNL     1     -23.940 -10.124  -0.035  1.00  0.00    -0.288 OA
HETATM   25  H   UNL     1     -17.605 -12.353  -2.540  1.00  0.00     0.165 HD
HETATM   26  H   UNL     1     -23.211  -5.954  -2.038  1.00  0.00     0.165 HD
ENDROOT
TORSDOF 0
ENDMDL
MODEL 4
REMARK VINA RESULT:      -8.4      5.772     10.155
REMARK  0 active torsions:
REMARK  status: ('A' for Active; 'I' for Inactive)
ROOT
HETATM    1  C   UNL     1     -20.156  -4.987  -5.301  1.00  0.00     0.025 C 
HETATM    2  C   UNL     1     -20.807  -6.350  -5.375  1.00  0.00     0.110 C 
HETATM    3  C   UNL     1     -20.182  -7.512  -5.087  1.00  0.00     0.032 C 
HETATM    4  C   UNL     1     -20.457  -8.214  -3.847  1.00  0.00     0.015 C 
HETATM    5  C   UNL     1     -21.133  -7.716  -2.801  1.00  0.00     0.043 C 
HETATM    6  C   UNL     1     -21.247  -8.534  -1.648  1.00  0.00     0.008 A 
HETATM    7  C   UNL     1     -21.781  -8.356  -0.426  1.00  0.00     0.101 A 
HETATM    8  N   UNL     1     -21.727  -9.528   0.306  1.00  0.00    -0.364 N 
HETATM    9  C   UNL     1     -21.201 -10.560  -0.437  1.00  0.00     0.054 A 
HETATM   10  C   UNL     1     -21.069 -11.866  -0.226  1.00  0.00     0.020 A 
HETATM   11  C   UNL     1     -20.445 -12.667  -1.339  1.00  0.00     0.230 A 
HETATM   12  O   UNL     1     -20.292 -13.879  -1.215  1.00  0.00    -0.283 OA
HETATM   13  C   UNL     1     -19.995 -11.956  -2.651  1.00  0.00     0.234 A 
HETATM   14  O   UNL     1     -19.512 -12.594  -3.578  1.00  0.00    -0.283 OA
HETATM   15  C   UNL     1     -20.220 -10.492  -2.747  1.00  0.00     0.044 A 
HETATM   16  C   UNL     1     -20.825  -9.937  -1.672  1.00  0.00     0.019 A 
HETATM   17  C   UNL     1     -19.946  -9.590  -3.872  1.00  0.00     0.008 C 
HETATM   18  C   UNL     1     -19.388  -9.670  -5.097  1.00  0.00     0.101 C 
HETATM   19  N   UNL     1     -19.409  -8.428  -5.783  1.00  0.00    -0.367 N 
HETATM   20  C   UNL     1     -21.512 -12.562   1.014  1.00  0.00     0.055 C 
HETATM   21  C   UNL     1     -21.849  -6.469  -3.068  1.00  0.00     0.230 C 
HETATM   22  O   UNL     1     -22.230  -5.669  -2.239  1.00  0.00    -0.283 OA
HETATM   23  C   UNL     1     -22.069  -6.268  -4.568  1.00  0.00     0.209 C 
HETATM   24  O   UNL     1     -23.180  -6.205  -5.062  1.00  0.00    -0.288 OA
HETATM   25  H   UNL     1     -22.267  -9.664   1.150  1.00  0.00     0.165 HD
HETATM   26  H   UNL     1     -19.449  -8.439  -6.800  1.00  0.00     0.165 HD
ENDROOT
TORSDOF 0
ENDMDL
MODEL 5
REMARK VINA RESULT:      -7.9      7.104      9.920
REMARK  0 active torsions:
REMARK  status: ('A' for Active; 'I' for Inactive)
ROOT
HETATM    1  C   UNL     1     -16.645 -12.416  -5.830  1.00  0.00     0.025 C 
HETATM    2  C   UNL     1     -16.708 -11.055  -5.175  1.00  0.00     0.110 C 
HETATM    3  C   UNL     1     -17.791 -10.249  -5.189  1.00  0.00     0.032 C 
HETATM    4  C   UNL     1     -18.612 -10.090  -4.003  1.00  0.00     0.015 C 
HETATM    5  C   UNL     1     -18.547 -10.850  -2.901  1.00  0.00     0.043 C 
HETATM    6  C   UNL     1     -19.478 -10.580  -1.865  1.00  0.00     0.008 A 
HETATM    7  C   UNL     1     -19.746 -11.153  -0.678  1.00  0.00     0.101 A 
HETATM    8  N   UNL     1     -20.693 -10.422   0.015  1.00  0.00    -0.364 N 
HETATM    9  C   UNL     1     -21.051  -9.285  -0.673  1.00  0.00     0.054 A 
HETATM   10  C   UNL     1     -21.804  -8.231  -0.373  1.00  0.00     0.020 A 
HETATM   11  C   UNL     1     -21.919  -7.164  -1.430  1.00  0.00     0.230 A 
HETATM   12  O   UNL     1     -22.597  -6.162  -1.221  1.00  0.00    -0.283 OA
HETATM   13  C   UNL     1     -21.174  -7.332  -2.788  1.00  0.00     0.234 A 
HETATM   14  O   UNL     1     -21.232  -6.462  -3.648  1.00  0.00    -0.283 OA
HETATM   15  C   UNL     1     -20.358  -8.558  -2.974  1.00  0.00     0.044 A 
HETATM   16  C   UNL     1     -20.335  -9.393  -1.910  1.00  0.00     0.019 A 
HETATM   17  C   UNL     1     -19.521  -8.942  -4.116  1.00  0.00     0.008 C 
HETATM   18  C   UNL     1     -19.228  -8.460  -5.341  1.00  0.00     0.101 C 
HETATM   19  N   UNL     1     -18.301  -9.278  -6.037  1.00  0.00    -0.367 N 
HETATM   20  C   UNL     1     -22.505  -8.048   0.929  1.00  0.00     0.055 C 
HETATM   21  C   UNL     1     -17.377 -11.725  -2.824  1.00  0.00     0.230 C 
HETATM   22  O   UNL     1     -17.266 -12.716  -2.133  1.00  0.00    -0.283 OA
HETATM   23  C   UNL     1     -16.263 -11.240  -3.754  1.00  0.00     0.209 C 
HETATM   24  O   UNL     1     -15.172 -10.895  -3.340  1.00  0.00    -0.288 OA
HETATM   25  H   UNL     1     -20.865 -10.557   1.002  1.00  0.00     0.165 HD
HETATM   26  H   UNL     1     -17.683  -8.838  -6.715  1.00  0.00     0.165 HD
ENDROOT
TORSDOF 0
ENDMDL
MODEL 6
REMARK VINA RESULT:      -7.3      5.493      8.066
REMARK  0 active torsions:
REMARK  status: ('A' for Active; 'I' for Inactive)
ROOT
HETATM    1  C   UNL     1     -19.158 -12.347   0.245  1.00  0.00     0.025 C 
HETATM    2  C   UNL     1     -20.320 -11.820  -0.566  1.00  0.00     0.110 C 
HETATM    3  C   UNL     1     -20.611 -10.510  -0.724  1.00  0.00     0.032 C 
HETATM    4  C   UNL     1     -20.328  -9.834  -1.976  1.00  0.00     0.015 C 
HETATM    5  C   UNL     1     -19.579 -10.323  -2.975  1.00  0.00     0.043 C 
HETATM    6  C   UNL     1     -19.364  -9.484  -4.100  1.00  0.00     0.008 A 
HETATM    7  C   UNL     1     -18.643  -9.605  -5.229  1.00  0.00     0.101 A 
HETATM    8  N   UNL     1     -18.866  -8.528  -6.068  1.00  0.00    -0.364 N 
HETATM    9  C   UNL     1     -19.806  -7.671  -5.544  1.00  0.00     0.054 A 
HETATM   10  C   UNL     1     -20.434  -6.598  -6.018  1.00  0.00     0.020 A 
HETATM   11  C   UNL     1     -21.438  -5.947  -5.104  1.00  0.00     0.230 A 
HETATM   12  O   UNL     1     -22.055  -4.953  -5.475  1.00  0.00    -0.283 OA
HETATM   13  C   UNL     1     -21.694  -6.539  -3.685  1.00  0.00     0.234 A 
HETATM   14  O   UNL     1     -22.527  -6.041  -2.938  1.00  0.00    -0.283 OA
HETATM   15  C   UNL     1     -20.928  -7.750  -3.300  1.00  0.00     0.044 A 
HETATM   16  C   UNL     1     -20.096  -8.225  -4.254  1.00  0.00     0.019 A 
HETATM   17  C   UNL     1     -21.008  -8.536  -2.063  1.00  0.00     0.008 C 
HETATM   18  C   UNL     1     -21.661  -8.471  -0.884  1.00  0.00     0.101 C 
HETATM   19  N   UNL     1     -21.349  -9.563  -0.033  1.00  0.00    -0.367 N 
HETATM   20  C   UNL     1     -20.213  -6.035  -7.379  1.00  0.00     0.055 C 
HETATM   21  C   UNL     1     -19.256 -11.745  -2.866  1.00  0.00     0.230 C 
HETATM   22  O   UNL     1     -18.347 -12.321  -3.427  1.00  0.00    -0.283 OA
HETATM   23  C   UNL     1     -20.224 -12.459  -1.920  1.00  0.00     0.209 C 
HETATM   24  O   UNL     1     -20.953 -13.361  -2.292  1.00  0.00    -0.288 OA
HETATM   25  H   UNL     1     -18.598  -8.538  -7.042  1.00  0.00     0.165 HD
HETATM   26  H   UNL     1     -22.054  -9.872   0.632  1.00  0.00     0.165 HD
ENDROOT
TORSDOF 0
ENDMDL
MODEL 7
REMARK VINA RESULT:      -7.3     15.211     16.655
REMARK  0 active torsions:
REMARK  status: ('A' for Active; 'I' for Inactive)
ROOT
HETATM    1  C   UNL     1     -25.456   6.443  -5.154  1.00  0.00     0.025 C 
HETATM    2  C   UNL     1     -25.856   7.723  -4.454  1.00  0.00     0.110 C 
HETATM    3  C   UNL     1     -26.612   7.779  -3.337  1.00  0.00     0.032 C 
HETATM    4  C   UNL     1     -26.012   8.079  -2.050  1.00  0.00     0.015 C 
HETATM    5  C   UNL     1     -24.697   8.099  -1.788  1.00  0.00     0.043 C 
HETATM    6  C   UNL     1     -24.303   8.353  -0.448  1.00  0.00     0.008 A 
HETATM    7  C   UNL     1     -23.117   8.389   0.184  1.00  0.00     0.101 A 
HETATM    8  N   UNL     1     -23.274   8.802   1.494  1.00  0.00    -0.364 N 
HETATM    9  C   UNL     1     -24.585   9.119   1.766  1.00  0.00     0.054 A 
HETATM   10  C   UNL     1     -25.197   9.669   2.811  1.00  0.00     0.020 A 
HETATM   11  C   UNL     1     -26.685   9.871   2.689  1.00  0.00     0.230 A 
HETATM   12  O   UNL     1     -27.316  10.374   3.614  1.00  0.00    -0.283 OA
HETATM   13  C   UNL     1     -27.422   9.444   1.384  1.00  0.00     0.234 A 
HETATM   14  O   UNL     1     -28.626   9.626   1.255  1.00  0.00    -0.283 OA
HETATM   15  C   UNL     1     -26.602   8.855   0.296  1.00  0.00     0.044 A 
HETATM   16  C   UNL     1     -25.278   8.779   0.558  1.00  0.00     0.019 A 
HETATM   17  C   UNL     1     -27.023   8.420  -1.041  1.00  0.00     0.008 C 
HETATM   18  C   UNL     1     -28.174   8.312  -1.736  1.00  0.00     0.101 C 
HETATM   19  N   UNL     1     -27.968   7.823  -3.052  1.00  0.00    -0.367 N 
HETATM   20  C   UNL     1     -24.501  10.100   4.055  1.00  0.00     0.055 C 
HETATM   21  C   UNL     1     -23.832   8.064  -2.966  1.00  0.00     0.230 C 
HETATM   22  O   UNL     1     -22.664   7.736  -2.991  1.00  0.00    -0.283 OA
HETATM   23  C   UNL     1     -24.592   8.498  -4.221  1.00  0.00     0.209 C 
HETATM   24  O   UNL     1     -24.275   9.478  -4.870  1.00  0.00    -0.288 OA
HETATM   25  H   UNL     1     -22.495   9.104   2.063  1.00  0.00     0.165 HD
HETATM   26  H   UNL     1     -28.619   8.109  -3.780  1.00  0.00     0.165 HD
ENDROOT
TORSDOF 0
ENDMDL
MODEL 8
REMARK VINA RESULT:      -7.3      6.462      9.366
REMARK  0 active torsions:
REMARK  status: ('A' for Active; 'I' for Inactive)
ROOT
HETATM    1  C   UNL     1     -16.411 -13.951  -4.034  1.00  0.00     0.025 C 
HETATM    2  C   UNL     1     -16.285 -12.446  -4.117  1.00  0.00     0.110 C 
HETATM    3  C   UNL     1     -17.131 -11.645  -4.800  1.00  0.00     0.032 C 
HETATM    4  C   UNL     1     -18.106 -10.830  -4.099  1.00  0.00     0.015 C 
HETATM    5  C   UNL     1     -18.430 -10.942  -2.803  1.00  0.00     0.043 C 
HETATM    6  C   UNL     1     -19.456 -10.094  -2.311  1.00  0.00     0.008 A 
HETATM    7  C   UNL     1     -20.071  -9.967  -1.122  1.00  0.00     0.101 A 
HETATM    8  N   UNL     1     -20.941  -8.892  -1.135  1.00  0.00    -0.364 N 
HETATM    9  C   UNL     1     -20.890  -8.219  -2.333  1.00  0.00     0.054 A 
HETATM   10  C   UNL     1     -21.424  -7.082  -2.770  1.00  0.00     0.020 A 
HETATM   11  C   UNL     1     -21.086  -6.679  -4.181  1.00  0.00     0.230 A 
HETATM   12  O   UNL     1     -21.543  -5.640  -4.651  1.00  0.00    -0.283 OA
HETATM   13  C   UNL     1     -20.151  -7.579  -5.044  1.00  0.00     0.234 A 
HETATM   14  O   UNL     1     -19.842  -7.253  -6.183  1.00  0.00    -0.283 OA
HETATM   15  C   UNL     1     -19.618  -8.813  -4.415  1.00  0.00     0.044 A 
HETATM   16  C   UNL     1     -19.993  -9.005  -3.130  1.00  0.00     0.019 A 
HETATM   17  C   UNL     1     -18.688  -9.803  -4.971  1.00  0.00     0.008 C 
HETATM   18  C   UNL     1     -18.062 -10.029  -6.144  1.00  0.00     0.101 C 
HETATM   19  N   UNL     1     -17.231 -11.179  -6.101  1.00  0.00    -0.367 N 
HETATM   20  C   UNL     1     -22.302  -6.202  -1.949  1.00  0.00     0.055 C 
HETATM   21  C   UNL     1     -17.530 -11.780  -2.012  1.00  0.00     0.230 C 
HETATM   22  O   UNL     1     -17.784 -12.301  -0.946  1.00  0.00    -0.283 OA
HETATM   23  C   UNL     1     -16.177 -11.945  -2.707  1.00  0.00     0.209 C 
HETATM   24  O   UNL     1     -15.136 -11.558  -2.209  1.00  0.00    -0.288 OA
HETATM   25  H   UNL     1     -21.327  -8.498  -0.287  1.00  0.00     0.165 HD
HETATM   26  H   UNL     1     -16.410 -11.204  -6.701  1.00  0.00     0.165 HD
ENDROOT
TORSDOF 0
ENDMDL
MODEL 9
REMARK VINA RESULT:      -7.2      7.717      9.666
REMARK  0 active torsions:
REMARK  status: ('A' for Active; 'I' for Inactive)
ROOT
HETATM    1  C   UNL     1     -23.437  -7.842   0.601  1.00  0.00     0.025 C 
HETATM    2  C   UNL     1     -22.673  -9.118   0.326  1.00  0.00     0.110 C 
HETATM    3  C   UNL     1     -23.153 -10.158  -0.389  1.00  0.00     0.032 C 
HETATM    4  C   UNL     1     -22.687 -10.406  -1.740  1.00  0.00     0.015 C 
HETATM    5  C   UNL     1     -21.956  -9.561  -2.481  1.00  0.00     0.043 C 
HETATM    6  C   UNL     1     -21.647  -9.957  -3.808  1.00  0.00     0.008 A 
HETATM    7  C   UNL     1     -21.008  -9.366  -4.834  1.00  0.00     0.101 A 
HETATM    8  N   UNL     1     -20.876 -10.240  -5.896  1.00  0.00    -0.364 N 
HETATM    9  C   UNL     1     -21.377 -11.484  -5.588  1.00  0.00     0.054 A 
HETATM   10  C   UNL     1     -21.364 -12.658  -6.213  1.00  0.00     0.020 A 
HETATM   11  C   UNL     1     -22.023 -13.808  -5.496  1.00  0.00     0.230 A 
HETATM   12  O   UNL     1     -22.048 -14.921  -6.012  1.00  0.00    -0.283 OA
HETATM   13  C   UNL     1     -22.670 -13.583  -4.097  1.00  0.00     0.234 A 
HETATM   14  O   UNL     1     -23.185 -14.511  -3.486  1.00  0.00    -0.283 OA
HETATM   15  C   UNL     1     -22.594 -12.218  -3.519  1.00  0.00     0.044 A 
HETATM   16  C   UNL     1     -21.936 -11.314  -4.279  1.00  0.00     0.019 A 
HETATM   17  C   UNL     1     -23.067 -11.743  -2.213  1.00  0.00     0.008 C 
HETATM   18  C   UNL     1     -23.739 -12.244  -1.157  1.00  0.00     0.101 C 
HETATM   19  N   UNL     1     -23.905 -11.290  -0.119  1.00  0.00    -0.367 N 
HETATM   20  C   UNL     1     -20.731 -12.891  -7.541  1.00  0.00     0.055 C 
HETATM   21  C   UNL     1     -21.390  -8.429  -1.748  1.00  0.00     0.230 C 
HETATM   22  O   UNL     1     -21.002  -7.384  -2.229  1.00  0.00    -0.283 OA
HETATM   23  C   UNL     1     -21.347  -8.711  -0.245  1.00  0.00     0.209 C 
HETATM   24  O   UNL     1     -20.304  -8.748   0.381  1.00  0.00    -0.288 OA
HETATM   25  H   UNL     1     -20.241 -10.067  -6.664  1.00  0.00     0.165 HD
HETATM   26  H   UNL     1     -23.970 -11.626   0.839  1.00  0.00     0.165 HD
ENDROOT
TORSDOF 0
ENDMDL
