MODEL 1
REMARK VINA RESULT:      -7.4      0.000      0.000
REMARK  18 active torsions:
REMARK  status: ('A' for Active; 'I' for Inactive)
REMARK    1  A    between atoms: C_2  and  C_3 
REMARK    2  A    between atoms: C_3  and  C_4 
REMARK    3  A    between atoms: C_4  and  C_5 
REMARK    4  A    between atoms: C_5  and  C_6 
REMARK    5  A    between atoms: C_6  and  C_7 
REMARK    6  A    between atoms: C_7  and  C_8 
REMARK    7  A    between atoms: C_8  and  C_9 
REMARK    8  A    between atoms: C_9  and  C_10 
REMARK    9  A    between atoms: C_10  and  C_11 
REMARK   10  A    between atoms: C_11  and  C_12 
REMARK       I    between atoms: C_12  and  N_14 
REMARK   11  A    between atoms: N_14  and  C_15 
REMARK   12  A    between atoms: C_15  and  C_16 
REMARK   13  A    between atoms: C_16  and  C_17 
REMARK   14  A    between atoms: C_17  and  C_18 
REMARK   15  A    between atoms: C_18  and  C_19 
REMARK   16  A    between atoms: C_19  and  C_20 
REMARK   17  A    between atoms: C_19  and  N_23 
REMARK   18  A    between atoms: C_20  and  O_22 
ROOT
HETATM    1  C   UNK     1     -21.178  -5.914  -6.284  1.00  0.00     0.217 C 
HETATM    2  O   UNK     1     -21.211  -7.048  -6.746  1.00  0.00    -0.274 OA
HETATM    3  N   UNK     1     -21.354  -4.777  -7.044  1.00  0.00    -0.361 N 
HETATM    4  H   UNK     1     -21.354  -3.864  -6.605  1.00  0.00     0.162 HD
ENDROOT
BRANCH   3   5
HETATM    5  C   UNK     1     -21.588  -4.864  -8.473  1.00  0.00     0.122 C 
BRANCH   5   6
HETATM    6  C   UNK     1     -20.369  -4.426  -9.280  1.00  0.00     0.020 C 
BRANCH   6   7
HETATM    7  C   UNK     1     -20.779  -4.161 -10.721  1.00  0.00     0.004 C 
BRANCH   7   8
HETATM    8  C   UNK     1     -22.078  -3.361 -10.809  1.00  0.00     0.046 C 
BRANCH   8   9
HETATM    9  C   UNK     1     -22.887  -3.780 -12.036  1.00  0.00     0.314 C 
BRANCH   9  10
HETATM   10  C   UNK     1     -24.232  -3.090 -12.088  1.00  0.00     0.173 C 
HETATM   11  O   UNK     1     -24.990  -3.155 -11.123  1.00  0.00    -0.648 OA
BRANCH  10  12
HETATM   12  O   UNK     1     -24.510  -2.388 -13.201  1.00  0.00    -0.775 OA
HETATM   13  H   UNK     1     -24.091  -2.703 -14.023  1.00  0.00     0.167 HD
ENDBRANCH  10  12
ENDBRANCH   9  10
BRANCH   9  14
HETATM   14  N   UNK     1     -22.172  -3.333 -13.245  1.00  0.00     0.093 N 
HETATM   15  H   UNK     1     -22.848  -2.770 -13.768  1.00  0.00     0.314 HD
HETATM   16  H   UNK     1     -22.026  -4.136 -13.860  1.00  0.00     0.314 HD
ENDBRANCH   9  14
ENDBRANCH   8   9
ENDBRANCH   7   8
ENDBRANCH   6   7
ENDBRANCH   5   6
ENDBRANCH   3   5
BRANCH   1  17
HETATM   17  C   UNK     1     -20.923  -5.653  -4.806  1.00  0.00     0.103 C 
BRANCH  17  18
HETATM   18  C   UNK     1     -21.807  -6.573  -3.964  1.00  0.00     0.009 C 
BRANCH  18  19
HETATM   19  C   UNK     1     -21.861  -6.148  -2.504  1.00  0.00     0.000 C 
BRANCH  19  20
HETATM   20  C   UNK     1     -21.692  -7.360  -1.595  1.00  0.00     0.000 C 
BRANCH  20  21
HETATM   21  C   UNK     1     -22.430  -7.142  -0.285  1.00  0.00     0.000 C 
BRANCH  21  22
HETATM   22  C   UNK     1     -23.016  -8.452   0.214  1.00  0.00     0.000 C 
BRANCH  22  23
HETATM   23  C   UNK     1     -22.253  -9.623  -0.382  1.00  0.00     0.000 C 
BRANCH  23  24
HETATM   24  C   UNK     1     -23.224 -10.620  -0.994  1.00  0.00     0.000 C 
BRANCH  24  25
HETATM   25  C   UNK     1     -23.900 -11.430   0.099  1.00  0.00    -0.000 C 
BRANCH  25  26
HETATM   26  C   UNK     1     -23.360 -12.852   0.119  1.00  0.00    -0.005 C 
HETATM   27  C   UNK     1     -23.317 -13.381   1.539  1.00  0.00     0.005 C 
ENDBRANCH  25  26
ENDBRANCH  24  25
ENDBRANCH  23  24
ENDBRANCH  22  23
ENDBRANCH  21  22
ENDBRANCH  20  21
ENDBRANCH  19  20
ENDBRANCH  18  19
ENDBRANCH  17  18
ENDBRANCH   1  17
TORSDOF 18
ENDMDL
MODEL 2
REMARK VINA RESULT:      -7.2      1.337      2.031
REMARK  18 active torsions:
REMARK  status: ('A' for Active; 'I' for Inactive)
REMARK    1  A    between atoms: C_2  and  C_3 
REMARK    2  A    between atoms: C_3  and  C_4 
REMARK    3  A    between atoms: C_4  and  C_5 
REMARK    4  A    between atoms: C_5  and  C_6 
REMARK    5  A    between atoms: C_6  and  C_7 
REMARK    6  A    between atoms: C_7  and  C_8 
REMARK    7  A    between atoms: C_8  and  C_9 
REMARK    8  A    between atoms: C_9  and  C_10 
REMARK    9  A    between atoms: C_10  and  C_11 
REMARK   10  A    between atoms: C_11  and  C_12 
REMARK       I    between atoms: C_12  and  N_14 
REMARK   11  A    between atoms: N_14  and  C_15 
REMARK   12  A    between atoms: C_15  and  C_16 
REMARK   13  A    between atoms: C_16  and  C_17 
REMARK   14  A    between atoms: C_17  and  C_18 
REMARK   15  A    between atoms: C_18  and  C_19 
REMARK   16  A    between atoms: C_19  and  C_20 
REMARK   17  A    between atoms: C_19  and  N_23 
REMARK   18  A    between atoms: C_20  and  O_22 
ROOT
HETATM    1  C   UNK     1     -21.240  -5.044  -7.086  1.00  0.00     0.217 C 
HETATM    2  O   UNK     1     -20.889  -5.871  -7.918  1.00  0.00    -0.274 OA
HETATM    3  N   UNK     1     -21.971  -3.916  -7.396  1.00  0.00    -0.361 N 
HETATM    4  H   UNK     1     -22.269  -3.282  -6.664  1.00  0.00     0.162 HD
ENDROOT
BRANCH   3   5
HETATM    5  C   UNK     1     -22.368  -3.637  -8.764  1.00  0.00     0.122 C 
BRANCH   5   6
HETATM    6  C   UNK     1     -23.842  -3.951  -9.006  1.00  0.00     0.020 C 
BRANCH   6   7
HETATM    7  C   UNK     1     -24.072  -4.206 -10.489  1.00  0.00     0.004 C 
BRANCH   7   8
HETATM    8  C   UNK     1     -23.511  -3.080 -11.357  1.00  0.00     0.046 C 
BRANCH   8   9
HETATM    9  C   UNK     1     -23.043  -3.624 -12.707  1.00  0.00     0.314 C 
BRANCH   9  10
HETATM   10  C   UNK     1     -23.421  -2.704 -13.847  1.00  0.00     0.173 C 
HETATM   11  O   UNK     1     -22.818  -2.775 -14.915  1.00  0.00    -0.648 OA
BRANCH  10  12
HETATM   12  O   UNK     1     -24.454  -1.869 -13.635  1.00  0.00    -0.775 OA
HETATM   13  H   UNK     1     -25.047  -1.718 -14.394  1.00  0.00     0.167 HD
ENDBRANCH  10  12
ENDBRANCH   9  10
BRANCH   9  14
HETATM   14  N   UNK     1     -21.570  -3.667 -12.711  1.00  0.00     0.093 N 
HETATM   15  H   UNK     1     -21.322  -4.562 -12.279  1.00  0.00     0.314 HD
HETATM   16  H   UNK     1     -21.216  -2.987 -12.037  1.00  0.00     0.314 HD
ENDBRANCH   9  14
ENDBRANCH   8   9
ENDBRANCH   7   8
ENDBRANCH   6   7
ENDBRANCH   5   6
ENDBRANCH   3   5
BRANCH   1  17
HETATM   17  C   UNK     1     -20.888  -5.182  -5.612  1.00  0.00     0.103 C 
BRANCH  17  18
HETATM   18  C   UNK     1     -20.576  -6.645  -5.295  1.00  0.00     0.009 C 
BRANCH  18  19
HETATM   19  C   UNK     1     -21.549  -7.240  -4.289  1.00  0.00     0.000 C 
BRANCH  19  20
HETATM   20  C   UNK     1     -21.643  -6.349  -3.055  1.00  0.00     0.000 C 
BRANCH  20  21
HETATM   21  C   UNK     1     -21.331  -7.152  -1.803  1.00  0.00     0.000 C 
BRANCH  21  22
HETATM   22  C   UNK     1     -22.494  -7.077  -0.827  1.00  0.00     0.000 C 
BRANCH  22  23
HETATM   23  C   UNK     1     -22.221  -7.966   0.376  1.00  0.00     0.000 C 
BRANCH  23  24
HETATM   24  C   UNK     1     -23.191  -9.137   0.389  1.00  0.00     0.000 C 
BRANCH  24  25
HETATM   25  C   UNK     1     -23.003  -9.984  -0.859  1.00  0.00    -0.000 C 
BRANCH  25  26
HETATM   26  C   UNK     1     -23.875 -11.229  -0.794  1.00  0.00    -0.005 C 
HETATM   27  C   UNK     1     -23.589 -12.007   0.476  1.00  0.00     0.005 C 
ENDBRANCH  25  26
ENDBRANCH  24  25
ENDBRANCH  23  24
ENDBRANCH  22  23
ENDBRANCH  21  22
ENDBRANCH  20  21
ENDBRANCH  19  20
ENDBRANCH  18  19
ENDBRANCH  17  18
ENDBRANCH   1  17
TORSDOF 18
ENDMDL
MODEL 3
REMARK VINA RESULT:      -7.2     13.101     15.592
REMARK  18 active torsions:
REMARK  status: ('A' for Active; 'I' for Inactive)
REMARK    1  A    between atoms: C_2  and  C_3 
REMARK    2  A    between atoms: C_3  and  C_4 
REMARK    3  A    between atoms: C_4  and  C_5 
REMARK    4  A    between atoms: C_5  and  C_6 
REMARK    5  A    between atoms: C_6  and  C_7 
REMARK    6  A    between atoms: C_7  and  C_8 
REMARK    7  A    between atoms: C_8  and  C_9 
REMARK    8  A    between atoms: C_9  and  C_10 
REMARK    9  A    between atoms: C_10  and  C_11 
REMARK   10  A    between atoms: C_11  and  C_12 
REMARK       I    between atoms: C_12  and  N_14 
REMARK   11  A    between atoms: N_14  and  C_15 
REMARK   12  A    between atoms: C_15  and  C_16 
REMARK   13  A    between atoms: C_16  and  C_17 
REMARK   14  A    between atoms: C_17  and  C_18 
REMARK   15  A    between atoms: C_18  and  C_19 
REMARK   16  A    between atoms: C_19  and  C_20 
REMARK   17  A    between atoms: C_19  and  N_23 
REMARK   18  A    between atoms: C_20  and  O_22 
ROOT
HETATM    1  C   UNK     1     -34.623  -2.542 -16.186  1.00  0.00     0.217 C 
HETATM    2  O   UNK     1     -34.717  -2.951 -15.036  1.00  0.00    -0.274 OA
HETATM    3  N   UNK     1     -33.859  -3.161 -17.153  1.00  0.00    -0.361 N 
HETATM    4  H   UNK     1     -33.845  -2.803 -18.101  1.00  0.00     0.162 HD
ENDROOT
BRANCH   3   5
HETATM    5  C   UNK     1     -33.099  -4.359 -16.849  1.00  0.00     0.122 C 
BRANCH   5   6
HETATM    6  C   UNK     1     -31.616  -4.192 -17.172  1.00  0.00     0.020 C 
BRANCH   6   7
HETATM    7  C   UNK     1     -30.820  -5.303 -16.503  1.00  0.00     0.004 C 
BRANCH   7   8
HETATM    8  C   UNK     1     -30.865  -6.603 -17.306  1.00  0.00     0.046 C 
BRANCH   8   9
HETATM    9  C   UNK     1     -29.542  -6.830 -18.036  1.00  0.00     0.314 C 
BRANCH   9  10
HETATM   10  C   UNK     1     -28.359  -6.751 -17.097  1.00  0.00     0.173 C 
HETATM   11  O   UNK     1     -27.535  -5.849 -17.227  1.00  0.00    -0.648 OA
BRANCH  10  12
HETATM   12  O   UNK     1     -28.300  -7.672 -16.119  1.00  0.00    -0.775 OA
HETATM   13  H   UNK     1     -27.878  -8.520 -16.352  1.00  0.00     0.167 HD
ENDBRANCH  10  12
ENDBRANCH   9  10
BRANCH   9  14
HETATM   14  N   UNK     1     -29.528  -8.205 -18.567  1.00  0.00     0.093 N 
HETATM   15  H   UNK     1     -30.393  -8.298 -19.108  1.00  0.00     0.314 HD
HETATM   16  H   UNK     1     -29.675  -8.860 -17.796  1.00  0.00     0.314 HD
ENDBRANCH   9  14
ENDBRANCH   8   9
ENDBRANCH   7   8
ENDBRANCH   6   7
ENDBRANCH   5   6
ENDBRANCH   3   5
BRANCH   1  17
HETATM   17  C   UNK     1     -35.344  -1.288 -16.658  1.00  0.00     0.103 C 
BRANCH  17  18
HETATM   18  C   UNK     1     -35.929  -0.549 -15.454  1.00  0.00     0.009 C 
BRANCH  18  19
HETATM   19  C   UNK     1     -35.062   0.621 -15.016  1.00  0.00     0.000 C 
BRANCH  19  20
HETATM   20  C   UNK     1     -34.956   0.657 -13.495  1.00  0.00     0.000 C 
BRANCH  20  21
HETATM   21  C   UNK     1     -36.121  -0.092 -12.869  1.00  0.00     0.000 C 
BRANCH  21  22
HETATM   22  C   UNK     1     -35.643  -0.917 -11.687  1.00  0.00     0.000 C 
BRANCH  22  23
HETATM   23  C   UNK     1     -34.311  -1.572 -12.014  1.00  0.00     0.000 C 
BRANCH  23  24
HETATM   24  C   UNK     1     -33.707  -2.180 -10.759  1.00  0.00     0.000 C 
BRANCH  24  25
HETATM   25  C   UNK     1     -33.219  -3.591 -11.045  1.00  0.00    -0.000 C 
BRANCH  25  26
HETATM   26  C   UNK     1     -34.223  -4.615 -10.536  1.00  0.00    -0.005 C 
HETATM   27  C   UNK     1     -33.823  -6.010 -10.975  1.00  0.00     0.005 C 
ENDBRANCH  25  26
ENDBRANCH  24  25
ENDBRANCH  23  24
ENDBRANCH  22  23
ENDBRANCH  21  22
ENDBRANCH  20  21
ENDBRANCH  19  20
ENDBRANCH  18  19
ENDBRANCH  17  18
ENDBRANCH   1  17
TORSDOF 18
ENDMDL
MODEL 4
REMARK VINA RESULT:      -6.9     13.078     15.448
REMARK  18 active torsions:
REMARK  status: ('A' for Active; 'I' for Inactive)
REMARK    1  A    between atoms: C_2  and  C_3 
REMARK    2  A    between atoms: C_3  and  C_4 
REMARK    3  A    between atoms: C_4  and  C_5 
REMARK    4  A    between atoms: C_5  and  C_6 
REMARK    5  A    between atoms: C_6  and  C_7 
REMARK    6  A    between atoms: C_7  and  C_8 
REMARK    7  A    between atoms: C_8  and  C_9 
REMARK    8  A    between atoms: C_9  and  C_10 
REMARK    9  A    between atoms: C_10  and  C_11 
REMARK   10  A    between atoms: C_11  and  C_12 
REMARK       I    between atoms: C_12  and  N_14 
REMARK   11  A    between atoms: N_14  and  C_15 
REMARK   12  A    between atoms: C_15  and  C_16 
REMARK   13  A    between atoms: C_16  and  C_17 
REMARK   14  A    between atoms: C_17  and  C_18 
REMARK   15  A    between atoms: C_18  and  C_19 
REMARK   16  A    between atoms: C_19  and  C_20 
REMARK   17  A    between atoms: C_19  and  N_23 
REMARK   18  A    between atoms: C_20  and  O_22 
ROOT
HETATM    1  C   UNK     1     -36.102  -0.655 -16.083  1.00  0.00     0.217 C 
HETATM    2  O   UNK     1     -36.942  -0.843 -16.954  1.00  0.00    -0.274 OA
HETATM    3  N   UNK     1     -34.900  -1.330 -16.028  1.00  0.00    -0.361 N 
HETATM    4  H   UNK     1     -34.223  -1.110 -15.307  1.00  0.00     0.162 HD
ENDROOT
BRANCH   3   5
HETATM    5  C   UNK     1     -34.560  -2.330 -17.023  1.00  0.00     0.122 C 
BRANCH   5   6
HETATM    6  C   UNK     1     -33.858  -3.535 -16.404  1.00  0.00     0.020 C 
BRANCH   6   7
HETATM    7  C   UNK     1     -32.629  -3.888 -17.228  1.00  0.00     0.004 C 
BRANCH   7   8
HETATM    8  C   UNK     1     -31.618  -4.709 -16.428  1.00  0.00     0.046 C 
BRANCH   8   9
HETATM    9  C   UNK     1     -30.970  -5.775 -17.311  1.00  0.00     0.314 C 
BRANCH   9  10
HETATM   10  C   UNK     1     -29.667  -6.275 -16.726  1.00  0.00     0.173 C 
HETATM   11  O   UNK     1     -29.316  -5.903 -15.610  1.00  0.00    -0.648 OA
BRANCH  10  12
HETATM   12  O   UNK     1     -28.972  -7.158 -17.465  1.00  0.00    -0.775 OA
HETATM   13  H   UNK     1     -29.497  -7.748 -18.037  1.00  0.00     0.167 HD
ENDBRANCH  10  12
ENDBRANCH   9  10
BRANCH   9  14
HETATM   14  N   UNK     1     -31.856  -6.952 -17.354  1.00  0.00     0.093 N 
HETATM   15  H   UNK     1     -32.633  -6.732 -16.725  1.00  0.00     0.314 HD
HETATM   16  H   UNK     1     -31.396  -7.731 -16.878  1.00  0.00     0.314 HD
ENDBRANCH   9  14
ENDBRANCH   8   9
ENDBRANCH   7   8
ENDBRANCH   6   7
ENDBRANCH   5   6
ENDBRANCH   3   5
BRANCH   1  17
HETATM   17  C   UNK     1     -36.316   0.347 -14.957  1.00  0.00     0.103 C 
BRANCH  17  18
HETATM   18  C   UNK     1     -35.036   0.471 -14.131  1.00  0.00     0.009 C 
BRANCH  18  19
HETATM   19  C   UNK     1     -35.258   0.137 -12.664  1.00  0.00     0.000 C 
BRANCH  19  20
HETATM   20  C   UNK     1     -35.320  -1.375 -12.471  1.00  0.00     0.000 C 
BRANCH  20  21
HETATM   21  C   UNK     1     -34.961  -1.736 -11.039  1.00  0.00     0.000 C 
BRANCH  21  22
HETATM   22  C   UNK     1     -33.473  -2.024 -10.926  1.00  0.00     0.000 C 
BRANCH  22  23
HETATM   23  C   UNK     1     -33.189  -3.463 -11.325  1.00  0.00     0.000 C 
BRANCH  23  24
HETATM   24  C   UNK     1     -34.119  -4.404 -10.578  1.00  0.00     0.000 C 
BRANCH  24  25
HETATM   25  C   UNK     1     -34.302  -5.692 -11.365  1.00  0.00    -0.000 C 
BRANCH  25  26
HETATM   26  C   UNK     1     -33.818  -6.885 -10.554  1.00  0.00    -0.005 C 
HETATM   27  C   UNK     1     -34.954  -7.457  -9.729  1.00  0.00     0.005 C 
ENDBRANCH  25  26
ENDBRANCH  24  25
ENDBRANCH  23  24
ENDBRANCH  22  23
ENDBRANCH  21  22
ENDBRANCH  20  21
ENDBRANCH  19  20
ENDBRANCH  18  19
ENDBRANCH  17  18
ENDBRANCH   1  17
TORSDOF 18
ENDMDL
MODEL 5
REMARK VINA RESULT:      -6.8      1.624      1.930
REMARK  18 active torsions:
REMARK  status: ('A' for Active; 'I' for Inactive)
REMARK    1  A    between atoms: C_2  and  C_3 
REMARK    2  A    between atoms: C_3  and  C_4 
REMARK    3  A    between atoms: C_4  and  C_5 
REMARK    4  A    between atoms: C_5  and  C_6 
REMARK    5  A    between atoms: C_6  and  C_7 
REMARK    6  A    between atoms: C_7  and  C_8 
REMARK    7  A    between atoms: C_8  and  C_9 
REMARK    8  A    between atoms: C_9  and  C_10 
REMARK    9  A    between atoms: C_10  and  C_11 
REMARK   10  A    between atoms: C_11  and  C_12 
REMARK       I    between atoms: C_12  and  N_14 
REMARK   11  A    between atoms: N_14  and  C_15 
REMARK   12  A    between atoms: C_15  and  C_16 
REMARK   13  A    between atoms: C_16  and  C_17 
REMARK   14  A    between atoms: C_17  and  C_18 
REMARK   15  A    between atoms: C_18  and  C_19 
REMARK   16  A    between atoms: C_19  and  C_20 
REMARK   17  A    between atoms: C_19  and  N_23 
REMARK   18  A    between atoms: C_20  and  O_22 
ROOT
HETATM    1  C   UNK     1     -21.139  -7.483  -5.294  1.00  0.00     0.217 C 
HETATM    2  O   UNK     1     -20.929  -8.452  -6.013  1.00  0.00    -0.274 OA
HETATM    3  N   UNK     1     -21.303  -6.200  -5.775  1.00  0.00    -0.361 N 
HETATM    4  H   UNK     1     -21.512  -5.439  -5.140  1.00  0.00     0.162 HD
ENDROOT
BRANCH   3   5
HETATM    5  C   UNK     1     -21.227  -5.922  -7.197  1.00  0.00     0.122 C 
BRANCH   5   6
HETATM    6  C   UNK     1     -20.598  -4.560  -7.480  1.00  0.00     0.020 C 
BRANCH   6   7
HETATM    7  C   UNK     1     -20.924  -4.134  -8.904  1.00  0.00     0.004 C 
BRANCH   7   8
HETATM    8  C   UNK     1     -22.306  -4.615  -9.344  1.00  0.00     0.046 C 
BRANCH   8   9
HETATM    9  C   UNK     1     -23.267  -3.435  -9.483  1.00  0.00     0.314 C 
BRANCH   9  10
HETATM   10  C   UNK     1     -23.719  -3.240 -10.914  1.00  0.00     0.173 C 
HETATM   11  O   UNK     1     -22.887  -3.210 -11.818  1.00  0.00    -0.648 OA
BRANCH  10  12
HETATM   12  O   UNK     1     -25.044  -3.154 -11.125  1.00  0.00    -0.775 OA
HETATM   13  H   UNK     1     -25.484  -3.969 -11.431  1.00  0.00     0.167 HD
ENDBRANCH  10  12
ENDBRANCH   9  10
BRANCH   9  14
HETATM   14  N   UNK     1     -24.495  -3.736  -8.724  1.00  0.00     0.093 N 
HETATM   15  H   UNK     1     -25.205  -3.096  -9.090  1.00  0.00     0.314 HD
HETATM   16  H   UNK     1     -24.378  -3.415  -7.762  1.00  0.00     0.314 HD
ENDBRANCH   9  14
ENDBRANCH   8   9
ENDBRANCH   7   8
ENDBRANCH   6   7
ENDBRANCH   5   6
ENDBRANCH   3   5
BRANCH   1  17
HETATM   17  C   UNK     1     -21.228  -7.606  -3.780  1.00  0.00     0.103 C 
BRANCH  17  18
HETATM   18  C   UNK     1     -21.691  -6.276  -3.184  1.00  0.00     0.009 C 
BRANCH  18  19
HETATM   19  C   UNK     1     -22.095  -6.404  -1.724  1.00  0.00     0.000 C 
BRANCH  19  20
HETATM   20  C   UNK     1     -21.429  -7.625  -1.098  1.00  0.00     0.000 C 
BRANCH  20  21
HETATM   21  C   UNK     1     -21.977  -7.864   0.299  1.00  0.00     0.000 C 
BRANCH  21  22
HETATM   22  C   UNK     1     -23.275  -8.650   0.229  1.00  0.00     0.000 C 
BRANCH  22  23
HETATM   23  C   UNK     1     -23.001 -10.063  -0.261  1.00  0.00     0.000 C 
BRANCH  23  24
HETATM   24  C   UNK     1     -21.808 -10.648   0.477  1.00  0.00     0.000 C 
BRANCH  24  25
HETATM   25  C   UNK     1     -21.899 -12.165   0.500  1.00  0.00    -0.000 C 
BRANCH  25  26
HETATM   26  C   UNK     1     -23.334 -12.608   0.744  1.00  0.00    -0.005 C 
HETATM   27  C   UNK     1     -23.383 -13.658   1.836  1.00  0.00     0.005 C 
ENDBRANCH  25  26
ENDBRANCH  24  25
ENDBRANCH  23  24
ENDBRANCH  22  23
ENDBRANCH  21  22
ENDBRANCH  20  21
ENDBRANCH  19  20
ENDBRANCH  18  19
ENDBRANCH  17  18
ENDBRANCH   1  17
TORSDOF 18
ENDMDL
MODEL 6
REMARK VINA RESULT:      -6.8      2.013      2.585
REMARK  18 active torsions:
REMARK  status: ('A' for Active; 'I' for Inactive)
REMARK    1  A    between atoms: C_2  and  C_3 
REMARK    2  A    between atoms: C_3  and  C_4 
REMARK    3  A    between atoms: C_4  and  C_5 
REMARK    4  A    between atoms: C_5  and  C_6 
REMARK    5  A    between atoms: C_6  and  C_7 
REMARK    6  A    between atoms: C_7  and  C_8 
REMARK    7  A    between atoms: C_8  and  C_9 
REMARK    8  A    between atoms: C_9  and  C_10 
REMARK    9  A    between atoms: C_10  and  C_11 
REMARK   10  A    between atoms: C_11  and  C_12 
REMARK       I    between atoms: C_12  and  N_14 
REMARK   11  A    between atoms: N_14  and  C_15 
REMARK   12  A    between atoms: C_15  and  C_16 
REMARK   13  A    between atoms: C_16  and  C_17 
REMARK   14  A    between atoms: C_17  and  C_18 
REMARK   15  A    between atoms: C_18  and  C_19 
REMARK   16  A    between atoms: C_19  and  C_20 
REMARK   17  A    between atoms: C_19  and  N_23 
REMARK   18  A    between atoms: C_20  and  O_22 
ROOT
HETATM    1  C   UNK     1     -20.934  -6.176  -5.887  1.00  0.00     0.217 C 
HETATM    2  O   UNK     1     -20.124  -7.047  -6.180  1.00  0.00    -0.274 OA
HETATM    3  N   UNK     1     -20.886  -4.892  -6.389  1.00  0.00    -0.361 N 
HETATM    4  H   UNK     1     -21.603  -4.221  -6.143  1.00  0.00     0.162 HD
ENDROOT
BRANCH   3   5
HETATM    5  C   UNK     1     -19.842  -4.492  -7.313  1.00  0.00     0.122 C 
BRANCH   5   6
HETATM    6  C   UNK     1     -20.410  -4.024  -8.649  1.00  0.00     0.020 C 
BRANCH   6   7
HETATM    7  C   UNK     1     -21.513  -4.972  -9.095  1.00  0.00     0.004 C 
BRANCH   7   8
HETATM    8  C   UNK     1     -22.442  -4.328 -10.123  1.00  0.00     0.046 C 
BRANCH   8   9
HETATM    9  C   UNK     1     -23.465  -3.426  -9.433  1.00  0.00     0.314 C 
BRANCH   9  10
HETATM   10  C   UNK     1     -24.712  -3.243 -10.272  1.00  0.00     0.173 C 
HETATM   11  O   UNK     1     -24.614  -3.081 -11.485  1.00  0.00    -0.648 OA
BRANCH  10  12
HETATM   12  O   UNK     1     -25.891  -3.316  -9.628  1.00  0.00    -0.775 OA
HETATM   13  H   UNK     1     -25.906  -2.965  -8.718  1.00  0.00     0.167 HD
ENDBRANCH  10  12
ENDBRANCH   9  10
BRANCH   9  14
HETATM   14  N   UNK     1     -23.920  -4.088  -8.198  1.00  0.00     0.093 N 
HETATM   15  H   UNK     1     -23.305  -3.737  -7.458  1.00  0.00     0.314 HD
HETATM   16  H   UNK     1     -23.674  -5.079  -8.242  1.00  0.00     0.314 HD
ENDBRANCH   9  14
ENDBRANCH   8   9
ENDBRANCH   7   8
ENDBRANCH   6   7
ENDBRANCH   5   6
ENDBRANCH   3   5
BRANCH   1  17
HETATM   17  C   UNK     1     -22.078  -6.433  -4.917  1.00  0.00     0.103 C 
BRANCH  17  18
HETATM   18  C   UNK     1     -21.520  -6.640  -3.509  1.00  0.00     0.009 C 
BRANCH  18  19
HETATM   19  C   UNK     1     -22.539  -6.317  -2.427  1.00  0.00     0.000 C 
BRANCH  19  20
HETATM   20  C   UNK     1     -21.934  -6.547  -1.047  1.00  0.00     0.000 C 
BRANCH  20  21
HETATM   21  C   UNK     1     -22.555  -7.774  -0.400  1.00  0.00     0.000 C 
BRANCH  21  22
HETATM   22  C   UNK     1     -21.826  -8.117   0.888  1.00  0.00     0.000 C 
BRANCH  22  23
HETATM   23  C   UNK     1     -21.237  -9.515   0.797  1.00  0.00     0.000 C 
BRANCH  23  24
HETATM   24  C   UNK     1     -21.593 -10.144  -0.540  1.00  0.00     0.000 C 
BRANCH  24  25
HETATM   25  C   UNK     1     -20.337 -10.354  -1.370  1.00  0.00    -0.000 C 
BRANCH  25  26
HETATM   26  C   UNK     1     -20.607 -10.043  -2.834  1.00  0.00    -0.005 C 
HETATM   27  C   UNK     1     -22.061 -10.313  -3.171  1.00  0.00     0.005 C 
ENDBRANCH  25  26
ENDBRANCH  24  25
ENDBRANCH  23  24
ENDBRANCH  22  23
ENDBRANCH  21  22
ENDBRANCH  20  21
ENDBRANCH  19  20
ENDBRANCH  18  19
ENDBRANCH  17  18
ENDBRANCH   1  17
TORSDOF 18
ENDMDL
MODEL 7
REMARK VINA RESULT:      -6.6     12.592     15.674
REMARK  18 active torsions:
REMARK  status: ('A' for Active; 'I' for Inactive)
REMARK    1  A    between atoms: C_2  and  C_3 
REMARK    2  A    between atoms: C_3  and  C_4 
REMARK    3  A    between atoms: C_4  and  C_5 
REMARK    4  A    between atoms: C_5  and  C_6 
REMARK    5  A    between atoms: C_6  and  C_7 
REMARK    6  A    between atoms: C_7  and  C_8 
REMARK    7  A    between atoms: C_8  and  C_9 
REMARK    8  A    between atoms: C_9  and  C_10 
REMARK    9  A    between atoms: C_10  and  C_11 
REMARK   10  A    between atoms: C_11  and  C_12 
REMARK       I    between atoms: C_12  and  N_14 
REMARK   11  A    between atoms: N_14  and  C_15 
REMARK   12  A    between atoms: C_15  and  C_16 
REMARK   13  A    between atoms: C_16  and  C_17 
REMARK   14  A    between atoms: C_17  and  C_18 
REMARK   15  A    between atoms: C_18  and  C_19 
REMARK   16  A    between atoms: C_19  and  C_20 
REMARK   17  A    between atoms: C_19  and  N_23 
REMARK   18  A    between atoms: C_20  and  O_22 
ROOT
HETATM    1  C   UNK     1     -32.984  -3.741 -16.809  1.00  0.00     0.217 C 
HETATM    2  O   UNK     1     -32.483  -3.041 -17.680  1.00  0.00    -0.274 OA
HETATM    3  N   UNK     1     -32.397  -4.894 -16.328  1.00  0.00    -0.361 N 
HETATM    4  H   UNK     1     -32.836  -5.416 -15.580  1.00  0.00     0.162 HD
ENDROOT
BRANCH   3   5
HETATM    5  C   UNK     1     -31.123  -5.354 -16.849  1.00  0.00     0.122 C 
BRANCH   5   6
HETATM    6  C   UNK     1     -31.238  -6.726 -17.507  1.00  0.00     0.020 C 
BRANCH   6   7
HETATM    7  C   UNK     1     -29.850  -7.322 -17.689  1.00  0.00     0.004 C 
BRANCH   7   8
HETATM    8  C   UNK     1     -28.930  -7.005 -16.511  1.00  0.00     0.046 C 
BRANCH   8   9
HETATM    9  C   UNK     1     -27.699  -6.231 -16.981  1.00  0.00     0.314 C 
BRANCH   9  10
HETATM   10  C   UNK     1     -26.472  -6.574 -16.165  1.00  0.00     0.173 C 
HETATM   11  O   UNK     1     -26.522  -7.481 -15.339  1.00  0.00    -0.648 OA
BRANCH  10  12
HETATM   12  O   UNK     1     -25.353  -5.876 -16.431  1.00  0.00    -0.775 OA
HETATM   13  H   UNK     1     -25.393  -5.278 -17.201  1.00  0.00     0.167 HD
ENDBRANCH  10  12
ENDBRANCH   9  10
BRANCH   9  14
HETATM   14  N   UNK     1     -27.380  -6.648 -18.359  1.00  0.00     0.093 N 
HETATM   15  H   UNK     1     -26.358  -6.688 -18.401  1.00  0.00     0.314 HD
HETATM   16  H   UNK     1     -27.601  -5.881 -18.997  1.00  0.00     0.314 HD
ENDBRANCH   9  14
ENDBRANCH   8   9
ENDBRANCH   7   8
ENDBRANCH   6   7
ENDBRANCH   5   6
ENDBRANCH   3   5
BRANCH   1  17
HETATM   17  C   UNK     1     -34.326  -3.404 -16.175  1.00  0.00     0.103 C 
BRANCH  17  18
HETATM   18  C   UNK     1     -34.972  -2.243 -16.930  1.00  0.00     0.009 C 
BRANCH  18  19
HETATM   19  C   UNK     1     -34.962  -0.951 -16.127  1.00  0.00     0.000 C 
BRANCH  19  20
HETATM   20  C   UNK     1     -36.371  -0.613 -15.654  1.00  0.00     0.000 C 
BRANCH  20  21
HETATM   21  C   UNK     1     -36.315   0.357 -14.486  1.00  0.00     0.000 C 
BRANCH  21  22
HETATM   22  C   UNK     1     -34.993   0.219 -13.750  1.00  0.00     0.000 C 
BRANCH  22  23
HETATM   23  C   UNK     1     -35.218  -0.425 -12.392  1.00  0.00     0.000 C 
BRANCH  23  24
HETATM   24  C   UNK     1     -34.655  -1.837 -12.384  1.00  0.00     0.000 C 
BRANCH  24  25
HETATM   25  C   UNK     1     -33.851  -2.072 -11.116  1.00  0.00    -0.000 C 
BRANCH  25  26
HETATM   26  C   UNK     1     -33.215  -3.453 -11.138  1.00  0.00    -0.005 C 
HETATM   27  C   UNK     1     -33.309  -4.056 -12.525  1.00  0.00     0.005 C 
ENDBRANCH  25  26
ENDBRANCH  24  25
ENDBRANCH  23  24
ENDBRANCH  22  23
ENDBRANCH  21  22
ENDBRANCH  20  21
ENDBRANCH  19  20
ENDBRANCH  18  19
ENDBRANCH  17  18
ENDBRANCH   1  17
TORSDOF 18
ENDMDL
MODEL 8
REMARK VINA RESULT:      -6.6     12.933     15.515
REMARK  18 active torsions:
REMARK  status: ('A' for Active; 'I' for Inactive)
REMARK    1  A    between atoms: C_2  and  C_3 
REMARK    2  A    between atoms: C_3  and  C_4 
REMARK    3  A    between atoms: C_4  and  C_5 
REMARK    4  A    between atoms: C_5  and  C_6 
REMARK    5  A    between atoms: C_6  and  C_7 
REMARK    6  A    between atoms: C_7  and  C_8 
REMARK    7  A    between atoms: C_8  and  C_9 
REMARK    8  A    between atoms: C_9  and  C_10 
REMARK    9  A    between atoms: C_10  and  C_11 
REMARK   10  A    between atoms: C_11  and  C_12 
REMARK       I    between atoms: C_12  and  N_14 
REMARK   11  A    between atoms: N_14  and  C_15 
REMARK   12  A    between atoms: C_15  and  C_16 
REMARK   13  A    between atoms: C_16  and  C_17 
REMARK   14  A    between atoms: C_17  and  C_18 
REMARK   15  A    between atoms: C_18  and  C_19 
REMARK   16  A    between atoms: C_19  and  C_20 
REMARK   17  A    between atoms: C_19  and  N_23 
REMARK   18  A    between atoms: C_20  and  O_22 
ROOT
HETATM    1  C   UNK     1     -34.058  -4.474 -15.228  1.00  0.00     0.217 C 
HETATM    2  O   UNK     1     -34.934  -5.167 -15.730  1.00  0.00    -0.274 OA
HETATM    3  N   UNK     1     -32.776  -4.386 -15.731  1.00  0.00    -0.361 N 
HETATM    4  H   UNK     1     -32.099  -3.769 -15.300  1.00  0.00     0.162 HD
ENDROOT
BRANCH   3   5
HETATM    5  C   UNK     1     -32.385  -5.136 -16.910  1.00  0.00     0.122 C 
BRANCH   5   6
HETATM    6  C   UNK     1     -30.906  -5.514 -16.881  1.00  0.00     0.020 C 
BRANCH   6   7
HETATM    7  C   UNK     1     -30.703  -6.833 -17.613  1.00  0.00     0.004 C 
BRANCH   7   8
HETATM    8  C   UNK     1     -29.285  -7.374 -17.436  1.00  0.00     0.046 C 
BRANCH   8   9
HETATM    9  C   UNK     1     -28.255  -6.350 -17.913  1.00  0.00     0.314 C 
BRANCH   9  10
HETATM   10  C   UNK     1     -27.066  -6.269 -16.979  1.00  0.00     0.173 C 
HETATM   11  O   UNK     1     -27.239  -6.011 -15.791  1.00  0.00    -0.648 OA
BRANCH  10  12
HETATM   12  O   UNK     1     -25.860  -6.537 -17.510  1.00  0.00    -0.775 OA
HETATM   13  H   UNK     1     -25.198  -5.823 -17.456  1.00  0.00     0.167 HD
ENDBRANCH  10  12
ENDBRANCH   9  10
BRANCH   9  14
HETATM   14  N   UNK     1     -27.707  -6.801 -19.204  1.00  0.00     0.093 N 
HETATM   15  H   UNK     1     -27.232  -7.686 -19.005  1.00  0.00     0.314 HD
HETATM   16  H   UNK     1     -26.934  -6.187 -19.469  1.00  0.00     0.314 HD
ENDBRANCH   9  14
ENDBRANCH   8   9
ENDBRANCH   7   8
ENDBRANCH   6   7
ENDBRANCH   5   6
ENDBRANCH   3   5
BRANCH   1  17
HETATM   17  C   UNK     1     -34.304  -3.642 -13.978  1.00  0.00     0.103 C 
BRANCH  17  18
HETATM   18  C   UNK     1     -34.138  -4.520 -12.738  1.00  0.00     0.009 C 
BRANCH  18  19
HETATM   19  C   UNK     1     -33.027  -4.027 -11.823  1.00  0.00     0.000 C 
BRANCH  19  20
HETATM   20  C   UNK     1     -33.619  -3.380 -10.576  1.00  0.00     0.000 C 
BRANCH  20  21
HETATM   21  C   UNK     1     -33.953  -1.923 -10.848  1.00  0.00     0.000 C 
BRANCH  21  22
HETATM   22  C   UNK     1     -35.428  -1.664 -10.592  1.00  0.00     0.000 C 
BRANCH  22  23
HETATM   23  C   UNK     1     -35.943  -0.600 -11.548  1.00  0.00     0.000 C 
BRANCH  23  24
HETATM   24  C   UNK     1     -35.158  -0.644 -12.848  1.00  0.00     0.000 C 
BRANCH  24  25
HETATM   25  C   UNK     1     -34.779   0.765 -13.276  1.00  0.00    -0.000 C 
BRANCH  25  26
HETATM   26  C   UNK     1     -35.185   1.009 -14.722  1.00  0.00    -0.005 C 
HETATM   27  C   UNK     1     -35.474  -0.307 -15.418  1.00  0.00     0.005 C 
ENDBRANCH  25  26
ENDBRANCH  24  25
ENDBRANCH  23  24
ENDBRANCH  22  23
ENDBRANCH  21  22
ENDBRANCH  20  21
ENDBRANCH  19  20
ENDBRANCH  18  19
ENDBRANCH  17  18
ENDBRANCH   1  17
TORSDOF 18
ENDMDL
MODEL 9
REMARK VINA RESULT:      -6.5      2.017      3.106
REMARK  18 active torsions:
REMARK  status: ('A' for Active; 'I' for Inactive)
REMARK    1  A    between atoms: C_2  and  C_3 
REMARK    2  A    between atoms: C_3  and  C_4 
REMARK    3  A    between atoms: C_4  and  C_5 
REMARK    4  A    between atoms: C_5  and  C_6 
REMARK    5  A    between atoms: C_6  and  C_7 
REMARK    6  A    between atoms: C_7  and  C_8 
REMARK    7  A    between atoms: C_8  and  C_9 
REMARK    8  A    between atoms: C_9  and  C_10 
REMARK    9  A    between atoms: C_10  and  C_11 
REMARK   10  A    between atoms: C_11  and  C_12 
REMARK       I    between atoms: C_12  and  N_14 
REMARK   11  A    between atoms: N_14  and  C_15 
REMARK   12  A    between atoms: C_15  and  C_16 
REMARK   13  A    between atoms: C_16  and  C_17 
REMARK   14  A    between atoms: C_17  and  C_18 
REMARK   15  A    between atoms: C_18  and  C_19 
REMARK   16  A    between atoms: C_19  and  C_20 
REMARK   17  A    between atoms: C_19  and  N_23 
REMARK   18  A    between atoms: C_20  and  O_22 
ROOT
HETATM    1  C   UNK     1     -21.778  -5.533  -6.231  1.00  0.00     0.217 C 
HETATM    2  O   UNK     1     -22.936  -5.143  -6.155  1.00  0.00    -0.274 OA
HETATM    3  N   UNK     1     -20.993  -5.373  -7.354  1.00  0.00    -0.361 N 
HETATM    4  H   UNK     1     -20.028  -5.682  -7.351  1.00  0.00     0.162 HD
ENDROOT
BRANCH   3   5
HETATM    5  C   UNK     1     -21.513  -4.720  -8.540  1.00  0.00     0.122 C 
BRANCH   5   6
HETATM    6  C   UNK     1     -20.405  -4.358  -9.525  1.00  0.00     0.020 C 
BRANCH   6   7
HETATM    7  C   UNK     1     -21.021  -3.847 -10.820  1.00  0.00     0.004 C 
BRANCH   7   8
HETATM    8  C   UNK     1     -22.463  -4.322 -10.995  1.00  0.00     0.046 C 
BRANCH   8   9
HETATM    9  C   UNK     1     -23.336  -3.196 -11.548  1.00  0.00     0.314 C 
BRANCH   9  10
HETATM   10  C   UNK     1     -23.459  -3.265 -13.054  1.00  0.00     0.173 C 
HETATM   11  O   UNK     1     -24.570  -3.306 -13.575  1.00  0.00    -0.648 OA
BRANCH  10  12
HETATM   12  O   UNK     1     -22.313  -3.231 -13.757  1.00  0.00    -0.775 OA
HETATM   13  H   UNK     1     -22.400  -3.056 -14.713  1.00  0.00     0.167 HD
ENDBRANCH  10  12
ENDBRANCH   9  10
BRANCH   9  14
HETATM   14  N   UNK     1     -24.707  -3.370 -11.036  1.00  0.00     0.093 N 
HETATM   15  H   UNK     1     -25.248  -2.599 -11.438  1.00  0.00     0.314 HD
HETATM   16  H   UNK     1     -24.719  -3.155 -10.037  1.00  0.00     0.314 HD
ENDBRANCH   9  14
ENDBRANCH   8   9
ENDBRANCH   7   8
ENDBRANCH   6   7
ENDBRANCH   5   6
ENDBRANCH   3   5
BRANCH   1  17
HETATM   17  C   UNK     1     -21.093  -6.253  -5.078  1.00  0.00     0.103 C 
BRANCH  17  18
HETATM   18  C   UNK     1     -21.034  -7.752  -5.373  1.00  0.00     0.009 C 
BRANCH  18  19
HETATM   19  C   UNK     1     -19.752  -8.393  -4.863  1.00  0.00     0.000 C 
BRANCH  19  20
HETATM   20  C   UNK     1     -19.839  -9.911  -4.980  1.00  0.00     0.000 C 
BRANCH  20  21
HETATM   21  C   UNK     1     -21.254 -10.379  -4.682  1.00  0.00     0.000 C 
BRANCH  21  22
HETATM   22  C   UNK     1     -21.324 -10.997  -3.295  1.00  0.00     0.000 C 
BRANCH  22  23
HETATM   23  C   UNK     1     -22.315 -10.231  -2.434  1.00  0.00     0.000 C 
BRANCH  23  24
HETATM   24  C   UNK     1     -21.574  -9.426  -1.379  1.00  0.00     0.000 C 
BRANCH  24  25
HETATM   25  C   UNK     1     -21.678  -7.941  -1.686  1.00  0.00    -0.000 C 
BRANCH  25  26
HETATM   26  C   UNK     1     -22.354  -7.206  -0.538  1.00  0.00    -0.005 C 
HETATM   27  C   UNK     1     -22.257  -8.019   0.738  1.00  0.00     0.005 C 
ENDBRANCH  25  26
ENDBRANCH  24  25
ENDBRANCH  23  24
ENDBRANCH  22  23
ENDBRANCH  21  22
ENDBRANCH  20  21
ENDBRANCH  19  20
ENDBRANCH  18  19
ENDBRANCH  17  18
ENDBRANCH   1  17
TORSDOF 18
ENDMDL
