MODEL 1
REMARK VINA RESULT:      -5.1      0.000      0.000
REMARK  2 active torsions:
REMARK  status: ('A' for Active; 'I' for Inactive)
REMARK    1  A    between atoms: C_1  and  C_2 
REMARK    2  A    between atoms: C_1  and  C_5 
ROOT
HETATM    1  C   UNL     1     -34.018  -4.194 -10.554  1.00  0.00     0.188 C 
ENDROOT
BRANCH   1   2
HETATM    2  C   UNL     1     -33.882  -5.634 -10.952  1.00  0.00     0.361 C 
HETATM    3  F   UNL     1     -34.364  -6.413  -9.952  1.00  0.00    -0.214 F 
HETATM    4  F   UNL     1     -34.652  -5.889 -12.038  1.00  0.00    -0.214 F 
ENDBRANCH   1   2
BRANCH   1   5
HETATM    5  C   UNL     1     -33.166  -3.337 -11.436  1.00  0.00     0.392 C 
HETATM    6  F   UNL     1     -32.771  -2.187 -10.850  1.00  0.00    -0.171 F 
HETATM    7  F   UNL     1     -32.058  -3.997 -11.839  1.00  0.00    -0.171 F 
HETATM    8  F   UNL     1     -33.851  -2.996 -12.552  1.00  0.00    -0.171 F 
ENDBRANCH   1   5
TORSDOF 2
ENDMDL
MODEL 2
REMARK VINA RESULT:      -4.7      1.350      1.858
REMARK  2 active torsions:
REMARK  status: ('A' for Active; 'I' for Inactive)
REMARK    1  A    between atoms: C_1  and  C_2 
REMARK    2  A    between atoms: C_1  and  C_5 
ROOT
HETATM    1  C   UNL     1     -33.489  -6.005 -10.980  1.00  0.00     0.188 C 
ENDROOT
BRANCH   1   2
HETATM    2  C   UNL     1     -34.766  -6.560 -10.423  1.00  0.00     0.361 C 
HETATM    3  F   UNL     1     -35.044  -7.732 -11.045  1.00  0.00    -0.214 F 
HETATM    4  F   UNL     1     -34.609  -6.855  -9.108  1.00  0.00    -0.214 F 
ENDBRANCH   1   2
BRANCH   1   5
HETATM    5  C   UNL     1     -33.605  -4.522 -11.146  1.00  0.00     0.392 C 
HETATM    6  F   UNL     1     -33.817  -3.867  -9.985  1.00  0.00    -0.171 F 
HETATM    7  F   UNL     1     -32.495  -4.005 -11.716  1.00  0.00    -0.171 F 
HETATM    8  F   UNL     1     -34.644  -4.227 -11.961  1.00  0.00    -0.171 F 
ENDBRANCH   1   5
TORSDOF 2
ENDMDL
MODEL 3
REMARK VINA RESULT:      -4.5     12.853     13.852
REMARK  2 active torsions:
REMARK  status: ('A' for Active; 'I' for Inactive)
REMARK    1  A    between atoms: C_1  and  C_2 
REMARK    2  A    between atoms: C_1  and  C_5 
ROOT
HETATM    1  C   UNL     1     -30.421 -14.273 -19.099  1.00  0.00     0.188 C 
ENDROOT
BRANCH   1   2
HETATM    2  C   UNL     1     -30.234 -14.799 -20.492  1.00  0.00     0.361 C 
HETATM    3  F   UNL     1     -31.345 -14.524 -21.218  1.00  0.00    -0.214 F 
HETATM    4  F   UNL     1     -29.210 -14.149 -21.099  1.00  0.00    -0.214 F 
ENDBRANCH   1   2
BRANCH   1   5
HETATM    5  C   UNL     1     -29.252 -14.656 -18.246  1.00  0.00     0.392 C 
HETATM    6  F   UNL     1     -28.210 -13.805 -18.349  1.00  0.00    -0.171 F 
HETATM    7  F   UNL     1     -29.600 -14.728 -16.943  1.00  0.00    -0.171 F 
HETATM    8  F   UNL     1     -28.799 -15.880 -18.604  1.00  0.00    -0.171 F 
ENDBRANCH   1   5
TORSDOF 2
ENDMDL
MODEL 4
REMARK VINA RESULT:      -4.5     13.323     14.817
REMARK  2 active torsions:
REMARK  status: ('A' for Active; 'I' for Inactive)
REMARK    1  A    between atoms: C_1  and  C_2 
REMARK    2  A    between atoms: C_1  and  C_5 
ROOT
HETATM    1  C   UNL     1     -25.234   8.175 -10.962  1.00  0.00     0.188 C 
ENDROOT
BRANCH   1   2
HETATM    2  C   UNL     1     -26.144   7.010 -11.218  1.00  0.00     0.361 C 
HETATM    3  F   UNL     1     -26.023   6.126 -10.197  1.00  0.00    -0.214 F 
HETATM    4  F   UNL     1     -27.436   7.422 -11.213  1.00  0.00    -0.214 F 
ENDBRANCH   1   2
BRANCH   1   5
HETATM    5  C   UNL     1     -24.076   8.137 -11.909  1.00  0.00     0.392 C 
HETATM    6  F   UNL     1     -22.877   8.077 -11.290  1.00  0.00    -0.171 F 
HETATM    7  F   UNL     1     -24.162   7.079 -12.746  1.00  0.00    -0.171 F 
HETATM    8  F   UNL     1     -24.069   9.251 -12.677  1.00  0.00    -0.171 F 
ENDBRANCH   1   5
TORSDOF 2
ENDMDL
MODEL 5
REMARK VINA RESULT:      -4.5     11.153     12.450
REMARK  2 active torsions:
REMARK  status: ('A' for Active; 'I' for Inactive)
REMARK    1  A    between atoms: C_1  and  C_2 
REMARK    2  A    between atoms: C_1  and  C_5 
ROOT
HETATM    1  C   UNL     1     -21.910  -4.153 -11.634  1.00  0.00     0.188 C 
ENDROOT
BRANCH   1   2
HETATM    2  C   UNL     1     -22.379  -2.885 -12.286  1.00  0.00     0.361 C 
HETATM    3  F   UNL     1     -22.499  -3.096 -13.620  1.00  0.00    -0.214 F 
HETATM    4  F   UNL     1     -23.618  -2.565 -11.838  1.00  0.00    -0.214 F 
ENDBRANCH   1   2
BRANCH   1   5
HETATM    5  C   UNL     1     -20.686  -3.885 -10.816  1.00  0.00     0.392 C 
HETATM    6  F   UNL     1     -19.774  -4.879 -10.871  1.00  0.00    -0.171 F 
HETATM    7  F   UNL     1     -20.076  -2.744 -11.206  1.00  0.00    -0.171 F 
HETATM    8  F   UNL     1     -21.022  -3.729  -9.515  1.00  0.00    -0.171 F 
ENDBRANCH   1   5
TORSDOF 2
ENDMDL
MODEL 6
REMARK VINA RESULT:      -4.5     12.784     13.951
REMARK  2 active torsions:
REMARK  status: ('A' for Active; 'I' for Inactive)
REMARK    1  A    between atoms: C_1  and  C_2 
REMARK    2  A    between atoms: C_1  and  C_5 
ROOT
HETATM    1  C   UNL     1     -30.439 -14.216 -19.032  1.00  0.00     0.188 C 
ENDROOT
BRANCH   1   2
HETATM    2  C   UNL     1     -29.389 -14.782 -18.122  1.00  0.00     0.361 C 
HETATM    3  F   UNL     1     -28.253 -14.055 -18.255  1.00  0.00    -0.214 F 
HETATM    4  F   UNL     1     -29.777 -14.650 -16.829  1.00  0.00    -0.214 F 
ENDBRANCH   1   2
BRANCH   1   5
HETATM    5  C   UNL     1     -30.292 -14.794 -20.404  1.00  0.00     0.392 C 
HETATM    6  F   UNL     1     -31.386 -14.629 -21.177  1.00  0.00    -0.171 F 
HETATM    7  F   UNL     1     -29.240 -14.249 -21.055  1.00  0.00    -0.171 F 
HETATM    8  F   UNL     1     -30.062 -16.125 -20.324  1.00  0.00    -0.171 F 
ENDBRANCH   1   5
TORSDOF 2
ENDMDL
MODEL 7
REMARK VINA RESULT:      -4.5     13.166     14.627
REMARK  2 active torsions:
REMARK  status: ('A' for Active; 'I' for Inactive)
REMARK    1  A    between atoms: C_1  and  C_2 
REMARK    2  A    between atoms: C_1  and  C_5 
ROOT
HETATM    1  C   UNL     1     -25.261   7.909 -11.240  1.00  0.00     0.188 C 
ENDROOT
BRANCH   1   2
HETATM    2  C   UNL     1     -23.951   7.340 -11.700  1.00  0.00     0.361 C 
HETATM    3  F   UNL     1     -23.930   7.327 -13.055  1.00  0.00    -0.214 F 
HETATM    4  F   UNL     1     -22.933   8.147 -11.311  1.00  0.00    -0.214 F 
ENDBRANCH   1   2
BRANCH   1   5
HETATM    5  C   UNL     1     -26.042   6.866 -10.505  1.00  0.00     0.392 C 
HETATM    6  F   UNL     1     -27.321   6.758 -10.924  1.00  0.00    -0.171 F 
HETATM    7  F   UNL     1     -25.466   5.649 -10.621  1.00  0.00    -0.171 F 
HETATM    8  F   UNL     1     -26.082   7.161  -9.185  1.00  0.00    -0.171 F 
ENDBRANCH   1   5
TORSDOF 2
ENDMDL
MODEL 8
REMARK VINA RESULT:      -4.4      9.803     10.863
REMARK  2 active torsions:
REMARK  status: ('A' for Active; 'I' for Inactive)
REMARK    1  A    between atoms: C_1  and  C_2 
REMARK    2  A    between atoms: C_1  and  C_5 
ROOT
HETATM    1  C   UNL     1     -22.573  -3.609 -10.266  1.00  0.00     0.188 C 
ENDROOT
BRANCH   1   2
HETATM    2  C   UNL     1     -24.067  -3.681 -10.369  1.00  0.00     0.361 C 
HETATM    3  F   UNL     1     -24.466  -4.949 -10.102  1.00  0.00    -0.214 F 
HETATM    4  F   UNL     1     -24.636  -2.895  -9.421  1.00  0.00    -0.214 F 
ENDBRANCH   1   2
BRANCH   1   5
HETATM    5  C   UNL     1     -21.997  -3.076 -11.540  1.00  0.00     0.392 C 
HETATM    6  F   UNL     1     -20.773  -2.526 -11.388  1.00  0.00    -0.171 F 
HETATM    7  F   UNL     1     -21.900  -4.045 -12.477  1.00  0.00    -0.171 F 
HETATM    8  F   UNL     1     -22.802  -2.114 -12.046  1.00  0.00    -0.171 F 
ENDBRANCH   1   5
TORSDOF 2
ENDMDL
MODEL 9
REMARK VINA RESULT:      -4.4     10.568     11.848
REMARK  2 active torsions:
REMARK  status: ('A' for Active; 'I' for Inactive)
REMARK    1  A    between atoms: C_1  and  C_2 
REMARK    2  A    between atoms: C_1  and  C_5 
ROOT
HETATM    1  C   UNL     1     -22.034  -3.685 -10.474  1.00  0.00     0.188 C 
ENDROOT
BRANCH   1   2
HETATM    2  C   UNL     1     -20.802  -3.830 -11.317  1.00  0.00     0.361 C 
HETATM    3  F   UNL     1     -20.089  -2.679 -11.254  1.00  0.00    -0.214 F 
HETATM    4  F   UNL     1     -20.004  -4.801 -10.809  1.00  0.00    -0.214 F 
ENDBRANCH   1   2
BRANCH   1   5
HETATM    5  C   UNL     1     -23.190  -3.262 -11.325  1.00  0.00     0.392 C 
HETATM    6  F   UNL     1     -24.303  -2.974 -10.616  1.00  0.00    -0.171 F 
HETATM    7  F   UNL     1     -22.880  -2.176 -12.067  1.00  0.00    -0.171 F 
HETATM    8  F   UNL     1     -23.517  -4.252 -12.188  1.00  0.00    -0.171 F 
ENDBRANCH   1   5
TORSDOF 2
ENDMDL
