MODEL 1
REMARK VINA RESULT:      -6.7      0.000      0.000
REMARK  17 active torsions:
REMARK  status: ('A' for Active; 'I' for Inactive)
REMARK    1  A    between atoms: C_2  and  C_3 
REMARK    2  A    between atoms: C_3  and  C_4 
REMARK    3  A    between atoms: C_4  and  C_5 
REMARK    4  A    between atoms: C_5  and  C_6 
REMARK    5  A    between atoms: C_6  and  C_7 
REMARK    6  A    between atoms: C_7  and  C_8 
REMARK    7  A    between atoms: C_8  and  C_9 
REMARK    8  A    between atoms: C_9  and  C_10 
REMARK    9  A    between atoms: C_10  and  C_11 
REMARK   10  A    between atoms: C_11  and  C_12 
REMARK   11  A    between atoms: C_12  and  C_13 
REMARK   12  A    between atoms: C_13  and  C_14 
REMARK   13  A    between atoms: C_14  and  C_15 
REMARK   14  A    between atoms: C_15  and  C_16 
REMARK   15  A    between atoms: C_16  and  C_17 
REMARK   16  A    between atoms: C_17  and  C_18 
REMARK   17  A    between atoms: C_18  and  N_19 
ROOT
HETATM    1  C   UNL     1     -20.305  -6.566  -6.062  1.00  0.00     0.000 C 
ENDROOT
BRANCH   1   2
HETATM    2  C   UNL     1     -21.144  -7.468  -5.179  1.00  0.00     0.000 C 
BRANCH   2   3
HETATM    3  C   UNL     1     -22.116  -6.631  -4.371  1.00  0.00     0.000 C 
BRANCH   3   4
HETATM    4  C   UNL     1     -21.450  -6.167  -3.090  1.00  0.00     0.000 C 
BRANCH   4   5
HETATM    5  C   UNL     1     -21.522  -7.266  -2.047  1.00  0.00     0.000 C 
BRANCH   5   6
HETATM    6  C   UNL     1     -22.379  -6.812  -0.879  1.00  0.00     0.000 C 
BRANCH   6   7
HETATM    7  C   UNL     1     -22.623  -7.974   0.065  1.00  0.00     0.000 C 
BRANCH   7   8
HETATM    8  C   UNL     1     -21.672  -9.114  -0.258  1.00  0.00     0.000 C 
BRANCH   8   9
HETATM    9  C   UNL     1     -22.244 -10.430   0.245  1.00  0.00    -0.000 C 
BRANCH   9  10
HETATM   10  C   UNL     1     -23.566 -10.732  -0.443  1.00  0.00    -0.005 C 
HETATM   11  C   UNL     1     -23.330 -11.127  -1.889  1.00  0.00     0.005 C 
ENDBRANCH   9  10
ENDBRANCH   8   9
ENDBRANCH   7   8
ENDBRANCH   6   7
ENDBRANCH   5   6
ENDBRANCH   4   5
ENDBRANCH   3   4
ENDBRANCH   2   3
ENDBRANCH   1   2
BRANCH   1  12
HETATM   12  C   UNL     1     -21.202  -5.587  -6.792  1.00  0.00     0.000 C 
BRANCH  12  13
HETATM   13  C   UNL     1     -20.456  -4.292  -7.034  1.00  0.00     0.000 C 
BRANCH  13  14
HETATM   14  C   UNL     1     -19.711  -4.381  -8.348  1.00  0.00     0.000 C 
BRANCH  14  15
HETATM   15  C   UNL     1     -20.697  -4.611  -9.472  1.00  0.00     0.000 C 
BRANCH  15  16
HETATM   16  C   UNL     1     -20.424  -3.597 -10.574  1.00  0.00     0.002 C 
BRANCH  16  17
HETATM   17  C   UNL     1     -21.536  -3.691 -11.585  1.00  0.00     0.036 C 
BRANCH  17  18
HETATM   18  C   UNL     1     -22.701  -2.776 -11.229  1.00  0.00     0.311 C 
BRANCH  18  19
HETATM   19  N   UNL     1     -23.980  -3.542 -11.035  1.00  0.00     0.005 N 
HETATM   20  C   UNL     1     -23.765  -5.012 -11.312  1.00  0.00     0.355 C 
HETATM   21  C   UNL     1     -24.485  -3.373  -9.628  1.00  0.00     0.355 C 
HETATM   22  O   UNL     1     -24.940  -3.066 -11.899  1.00  0.00    -0.065 OA
ENDBRANCH  18  19
ENDBRANCH  17  18
ENDBRANCH  16  17
ENDBRANCH  15  16
ENDBRANCH  14  15
ENDBRANCH  13  14
ENDBRANCH  12  13
ENDBRANCH   1  12
TORSDOF 17
ENDMDL
MODEL 2
REMARK VINA RESULT:      -6.4      1.234      2.178
REMARK  17 active torsions:
REMARK  status: ('A' for Active; 'I' for Inactive)
REMARK    1  A    between atoms: C_2  and  C_3 
REMARK    2  A    between atoms: C_3  and  C_4 
REMARK    3  A    between atoms: C_4  and  C_5 
REMARK    4  A    between atoms: C_5  and  C_6 
REMARK    5  A    between atoms: C_6  and  C_7 
REMARK    6  A    between atoms: C_7  and  C_8 
REMARK    7  A    between atoms: C_8  and  C_9 
REMARK    8  A    between atoms: C_9  and  C_10 
REMARK    9  A    between atoms: C_10  and  C_11 
REMARK   10  A    between atoms: C_11  and  C_12 
REMARK   11  A    between atoms: C_12  and  C_13 
REMARK   12  A    between atoms: C_13  and  C_14 
REMARK   13  A    between atoms: C_14  and  C_15 
REMARK   14  A    between atoms: C_15  and  C_16 
REMARK   15  A    between atoms: C_16  and  C_17 
REMARK   16  A    between atoms: C_17  and  C_18 
REMARK   17  A    between atoms: C_18  and  N_19 
ROOT
HETATM    1  C   UNL     1     -22.105  -7.142  -4.526  1.00  0.00     0.000 C 
ENDROOT
BRANCH   1   2
HETATM    2  C   UNL     1     -21.105  -6.826  -3.431  1.00  0.00     0.000 C 
BRANCH   2   3
HETATM    3  C   UNL     1     -21.749  -5.923  -2.397  1.00  0.00     0.000 C 
BRANCH   3   4
HETATM    4  C   UNL     1     -22.355  -6.764  -1.290  1.00  0.00     0.000 C 
BRANCH   4   5
HETATM    5  C   UNL     1     -21.348  -7.797  -0.820  1.00  0.00     0.000 C 
BRANCH   5   6
HETATM    6  C   UNL     1     -21.821  -8.421   0.481  1.00  0.00     0.000 C 
BRANCH   6   7
HETATM    7  C   UNL     1     -23.146  -9.127   0.263  1.00  0.00     0.000 C 
BRANCH   7   8
HETATM    8  C   UNL     1     -22.956 -10.311  -0.670  1.00  0.00     0.000 C 
BRANCH   8   9
HETATM    9  C   UNL     1     -24.143 -11.256  -0.563  1.00  0.00    -0.000 C 
BRANCH   9  10
HETATM   10  C   UNL     1     -23.666 -12.689  -0.385  1.00  0.00    -0.005 C 
HETATM   11  C   UNL     1     -23.215 -12.922   1.044  1.00  0.00     0.005 C 
ENDBRANCH   9  10
ENDBRANCH   8   9
ENDBRANCH   7   8
ENDBRANCH   6   7
ENDBRANCH   5   6
ENDBRANCH   4   5
ENDBRANCH   3   4
ENDBRANCH   2   3
ENDBRANCH   1   2
BRANCH   1  12
HETATM   12  C   UNL     1     -21.565  -6.675  -5.862  1.00  0.00     0.000 C 
BRANCH  12  13
HETATM   13  C   UNL     1     -20.191  -6.067  -5.675  1.00  0.00     0.000 C 
BRANCH  13  14
HETATM   14  C   UNL     1     -20.124  -4.746  -6.410  1.00  0.00     0.000 C 
BRANCH  14  15
HETATM   15  C   UNL     1     -21.472  -4.443  -7.026  1.00  0.00     0.000 C 
BRANCH  15  16
HETATM   16  C   UNL     1     -21.281  -4.197  -8.517  1.00  0.00     0.002 C 
BRANCH  16  17
HETATM   17  C   UNL     1     -22.618  -3.836  -9.108  1.00  0.00     0.036 C 
BRANCH  17  18
HETATM   18  C   UNL     1     -22.829  -4.489 -10.468  1.00  0.00     0.311 C 
BRANCH  18  19
HETATM   19  N   UNL     1     -23.554  -3.582 -11.422  1.00  0.00     0.005 N 
HETATM   20  C   UNL     1     -22.651  -2.459 -11.878  1.00  0.00     0.355 C 
HETATM   21  C   UNL     1     -24.027  -4.353 -12.624  1.00  0.00     0.355 C 
HETATM   22  O   UNL     1     -24.654  -3.038 -10.797  1.00  0.00    -0.065 OA
ENDBRANCH  18  19
ENDBRANCH  17  18
ENDBRANCH  16  17
ENDBRANCH  15  16
ENDBRANCH  14  15
ENDBRANCH  13  14
ENDBRANCH  12  13
ENDBRANCH   1  12
TORSDOF 17
ENDMDL
MODEL 3
REMARK VINA RESULT:      -6.2      4.244      9.877
REMARK  17 active torsions:
REMARK  status: ('A' for Active; 'I' for Inactive)
REMARK    1  A    between atoms: C_2  and  C_3 
REMARK    2  A    between atoms: C_3  and  C_4 
REMARK    3  A    between atoms: C_4  and  C_5 
REMARK    4  A    between atoms: C_5  and  C_6 
REMARK    5  A    between atoms: C_6  and  C_7 
REMARK    6  A    between atoms: C_7  and  C_8 
REMARK    7  A    between atoms: C_8  and  C_9 
REMARK    8  A    between atoms: C_9  and  C_10 
REMARK    9  A    between atoms: C_10  and  C_11 
REMARK   10  A    between atoms: C_11  and  C_12 
REMARK   11  A    between atoms: C_12  and  C_13 
REMARK   12  A    between atoms: C_13  and  C_14 
REMARK   13  A    between atoms: C_14  and  C_15 
REMARK   14  A    between atoms: C_15  and  C_16 
REMARK   15  A    between atoms: C_16  and  C_17 
REMARK   16  A    between atoms: C_17  and  C_18 
REMARK   17  A    between atoms: C_18  and  N_19 
ROOT
HETATM    1  C   UNL     1     -21.235  -8.034  -4.488  1.00  0.00     0.000 C 
ENDROOT
BRANCH   1   2
HETATM    2  C   UNL     1     -20.241  -7.298  -5.362  1.00  0.00     0.000 C 
BRANCH   2   3
HETATM    3  C   UNL     1     -20.965  -6.258  -6.195  1.00  0.00     0.000 C 
BRANCH   3   4
HETATM    4  C   UNL     1     -20.228  -4.935  -6.117  1.00  0.00     0.000 C 
BRANCH   4   5
HETATM    5  C   UNL     1     -20.814  -3.961  -7.121  1.00  0.00     0.000 C 
BRANCH   5   6
HETATM    6  C   UNL     1     -19.886  -3.833  -8.316  1.00  0.00     0.000 C 
BRANCH   6   7
HETATM    7  C   UNL     1     -20.265  -4.850  -9.376  1.00  0.00     0.000 C 
BRANCH   7   8
HETATM    8  C   UNL     1     -20.420  -4.163 -10.722  1.00  0.00     0.000 C 
BRANCH   8   9
HETATM    9  C   UNL     1     -21.768  -3.466 -10.802  1.00  0.00    -0.000 C 
BRANCH   9  10
HETATM   10  C   UNL     1     -22.869  -4.378 -10.282  1.00  0.00    -0.005 C 
HETATM   11  C   UNL     1     -24.085  -3.563  -9.884  1.00  0.00     0.005 C 
ENDBRANCH   9  10
ENDBRANCH   8   9
ENDBRANCH   7   8
ENDBRANCH   6   7
ENDBRANCH   5   6
ENDBRANCH   4   5
ENDBRANCH   3   4
ENDBRANCH   2   3
ENDBRANCH   1   2
BRANCH   1  12
HETATM   12  C   UNL     1     -20.990  -7.691  -3.033  1.00  0.00     0.000 C 
BRANCH  12  13
HETATM   13  C   UNL     1     -21.690  -6.392  -2.689  1.00  0.00     0.000 C 
BRANCH  13  14
HETATM   14  C   UNL     1     -22.295  -6.501  -1.307  1.00  0.00     0.000 C 
BRANCH  14  15
HETATM   15  C   UNL     1     -21.747  -7.728  -0.610  1.00  0.00     0.000 C 
BRANCH  15  16
HETATM   16  C   UNL     1     -22.775  -8.213   0.402  1.00  0.00     0.002 C 
BRANCH  16  17
HETATM   17  C   UNL     1     -23.310  -9.538  -0.071  1.00  0.00     0.036 C 
BRANCH  17  18
HETATM   18  C   UNL     1     -22.204 -10.576  -0.212  1.00  0.00     0.311 C 
BRANCH  18  19
HETATM   19  N   UNL     1     -22.545 -11.628  -1.230  1.00  0.00     0.005 N 
HETATM   20  C   UNL     1     -23.844 -12.312  -0.873  1.00  0.00     0.355 C 
HETATM   21  C   UNL     1     -22.670 -11.013  -2.598  1.00  0.00     0.355 C 
HETATM   22  O   UNL     1     -21.545 -12.573  -1.272  1.00  0.00    -0.065 OA
ENDBRANCH  18  19
ENDBRANCH  17  18
ENDBRANCH  16  17
ENDBRANCH  15  16
ENDBRANCH  14  15
ENDBRANCH  13  14
ENDBRANCH  12  13
ENDBRANCH   1  12
TORSDOF 17
ENDMDL
MODEL 4
REMARK VINA RESULT:      -6.0     12.835     15.202
REMARK  17 active torsions:
REMARK  status: ('A' for Active; 'I' for Inactive)
REMARK    1  A    between atoms: C_2  and  C_3 
REMARK    2  A    between atoms: C_3  and  C_4 
REMARK    3  A    between atoms: C_4  and  C_5 
REMARK    4  A    between atoms: C_5  and  C_6 
REMARK    5  A    between atoms: C_6  and  C_7 
REMARK    6  A    between atoms: C_7  and  C_8 
REMARK    7  A    between atoms: C_8  and  C_9 
REMARK    8  A    between atoms: C_9  and  C_10 
REMARK    9  A    between atoms: C_10  and  C_11 
REMARK   10  A    between atoms: C_11  and  C_12 
REMARK   11  A    between atoms: C_12  and  C_13 
REMARK   12  A    between atoms: C_13  and  C_14 
REMARK   13  A    between atoms: C_14  and  C_15 
REMARK   14  A    between atoms: C_15  and  C_16 
REMARK   15  A    between atoms: C_16  and  C_17 
REMARK   16  A    between atoms: C_17  and  C_18 
REMARK   17  A    between atoms: C_18  and  N_19 
ROOT
HETATM    1  C   UNL     1     -35.360   0.441 -15.195  1.00  0.00     0.000 C 
ENDROOT
BRANCH   1   2
HETATM    2  C   UNL     1     -34.976   0.248 -13.742  1.00  0.00     0.000 C 
BRANCH   2   3
HETATM    3  C   UNL     1     -36.173  -0.260 -12.961  1.00  0.00     0.000 C 
BRANCH   3   4
HETATM    4  C   UNL     1     -35.727  -1.322 -11.975  1.00  0.00     0.000 C 
BRANCH   4   5
HETATM    5  C   UNL     1     -34.247  -1.599 -12.152  1.00  0.00     0.000 C 
BRANCH   5   6
HETATM    6  C   UNL     1     -33.630  -1.976 -10.816  1.00  0.00     0.000 C 
BRANCH   6   7
HETATM    7  C   UNL     1     -33.912  -3.434 -10.510  1.00  0.00     0.000 C 
BRANCH   7   8
HETATM    8  C   UNL     1     -33.223  -4.322 -11.533  1.00  0.00     0.000 C 
BRANCH   8   9
HETATM    9  C   UNL     1     -33.434  -5.786 -11.180  1.00  0.00    -0.000 C 
BRANCH   9  10
HETATM   10  C   UNL     1     -34.809  -5.991 -10.564  1.00  0.00    -0.005 C 
HETATM   11  C   UNL     1     -34.842  -7.280  -9.765  1.00  0.00     0.005 C 
ENDBRANCH   9  10
ENDBRANCH   8   9
ENDBRANCH   7   8
ENDBRANCH   6   7
ENDBRANCH   5   6
ENDBRANCH   4   5
ENDBRANCH   3   4
ENDBRANCH   2   3
ENDBRANCH   1   2
BRANCH   1  12
HETATM   12  C   UNL     1     -36.115  -0.776 -15.691  1.00  0.00     0.000 C 
BRANCH  12  13
HETATM   13  C   UNL     1     -35.316  -1.466 -16.776  1.00  0.00     0.000 C 
BRANCH  13  14
HETATM   14  C   UNL     1     -34.821  -2.800 -16.261  1.00  0.00     0.000 C 
BRANCH  14  15
HETATM   15  C   UNL     1     -33.520  -3.155 -16.947  1.00  0.00     0.000 C 
BRANCH  15  16
HETATM   16  C   UNL     1     -33.057  -4.513 -16.439  1.00  0.00     0.002 C 
BRANCH  16  17
HETATM   17  C   UNL     1     -31.658  -4.751 -16.944  1.00  0.00     0.036 C 
BRANCH  17  18
HETATM   18  C   UNL     1     -31.400  -6.228 -17.216  1.00  0.00     0.311 C 
BRANCH  18  19
HETATM   19  N   UNL     1     -29.984  -6.481 -17.651  1.00  0.00     0.005 N 
HETATM   20  C   UNL     1     -29.079  -6.636 -16.450  1.00  0.00     0.355 C 
HETATM   21  C   UNL     1     -29.907  -7.727 -18.490  1.00  0.00     0.355 C 
HETATM   22  O   UNL     1     -29.536  -5.422 -18.408  1.00  0.00    -0.065 OA
ENDBRANCH  18  19
ENDBRANCH  17  18
ENDBRANCH  16  17
ENDBRANCH  15  16
ENDBRANCH  14  15
ENDBRANCH  13  14
ENDBRANCH  12  13
ENDBRANCH   1  12
TORSDOF 17
ENDMDL
MODEL 5
REMARK VINA RESULT:      -5.9      4.853     10.636
REMARK  17 active torsions:
REMARK  status: ('A' for Active; 'I' for Inactive)
REMARK    1  A    between atoms: C_2  and  C_3 
REMARK    2  A    between atoms: C_3  and  C_4 
REMARK    3  A    between atoms: C_4  and  C_5 
REMARK    4  A    between atoms: C_5  and  C_6 
REMARK    5  A    between atoms: C_6  and  C_7 
REMARK    6  A    between atoms: C_7  and  C_8 
REMARK    7  A    between atoms: C_8  and  C_9 
REMARK    8  A    between atoms: C_9  and  C_10 
REMARK    9  A    between atoms: C_10  and  C_11 
REMARK   10  A    between atoms: C_11  and  C_12 
REMARK   11  A    between atoms: C_12  and  C_13 
REMARK   12  A    between atoms: C_13  and  C_14 
REMARK   13  A    between atoms: C_14  and  C_15 
REMARK   14  A    between atoms: C_15  and  C_16 
REMARK   15  A    between atoms: C_16  and  C_17 
REMARK   16  A    between atoms: C_17  and  C_18 
REMARK   17  A    between atoms: C_18  and  N_19 
ROOT
HETATM    1  C   UNL     1     -21.203  -6.346  -2.902  1.00  0.00     0.000 C 
ENDROOT
BRANCH   1   2
HETATM    2  C   UNL     1     -22.053  -6.689  -4.108  1.00  0.00     0.000 C 
BRANCH   2   3
HETATM    3  C   UNL     1     -21.179  -7.275  -5.199  1.00  0.00     0.000 C 
BRANCH   3   4
HETATM    4  C   UNL     1     -20.291  -6.192  -5.781  1.00  0.00     0.000 C 
BRANCH   4   5
HETATM    5  C   UNL     1     -20.811  -5.780  -7.146  1.00  0.00     0.000 C 
BRANCH   5   6
HETATM    6  C   UNL     1     -20.715  -4.272  -7.299  1.00  0.00     0.000 C 
BRANCH   6   7
HETATM    7  C   UNL     1     -19.833  -3.929  -8.485  1.00  0.00     0.000 C 
BRANCH   7   8
HETATM    8  C   UNL     1     -20.357  -4.613  -9.737  1.00  0.00     0.000 C 
BRANCH   8   9
HETATM    9  C   UNL     1     -20.474  -3.608 -10.871  1.00  0.00    -0.000 C 
BRANCH   9  10
HETATM   10  C   UNL     1     -21.870  -3.645 -11.472  1.00  0.00    -0.005 C 
HETATM   11  C   UNL     1     -22.763  -4.578 -10.675  1.00  0.00     0.005 C 
ENDBRANCH   9  10
ENDBRANCH   8   9
ENDBRANCH   7   8
ENDBRANCH   6   7
ENDBRANCH   5   6
ENDBRANCH   4   5
ENDBRANCH   3   4
ENDBRANCH   2   3
ENDBRANCH   1   2
BRANCH   1  12
HETATM   12  C   UNL     1     -21.351  -7.423  -1.847  1.00  0.00     0.000 C 
BRANCH  12  13
HETATM   13  C   UNL     1     -22.432  -7.030  -0.863  1.00  0.00     0.000 C 
BRANCH  13  14
HETATM   14  C   UNL     1     -22.240  -7.800   0.425  1.00  0.00     0.000 C 
BRANCH  14  15
HETATM   15  C   UNL     1     -22.121  -9.277   0.117  1.00  0.00     0.000 C 
BRANCH  15  16
HETATM   16  C   UNL     1     -23.521  -9.865   0.003  1.00  0.00     0.002 C 
BRANCH  16  17
HETATM   17  C   UNL     1     -23.471 -11.011  -0.971  1.00  0.00     0.036 C 
BRANCH  17  18
HETATM   18  C   UNL     1     -23.705 -12.349  -0.282  1.00  0.00     0.311 C 
BRANCH  18  19
HETATM   19  N   UNL     1     -22.422 -13.101  -0.063  1.00  0.00     0.005 N 
HETATM   20  C   UNL     1     -22.673 -14.592  -0.066  1.00  0.00     0.355 C 
HETATM   21  C   UNL     1     -21.427 -12.767  -1.141  1.00  0.00     0.355 C 
HETATM   22  O   UNL     1     -21.879 -12.747   1.151  1.00  0.00    -0.065 OA
ENDBRANCH  18  19
ENDBRANCH  17  18
ENDBRANCH  16  17
ENDBRANCH  15  16
ENDBRANCH  14  15
ENDBRANCH  13  14
ENDBRANCH  12  13
ENDBRANCH   1  12
TORSDOF 17
ENDMDL
MODEL 6
REMARK VINA RESULT:      -5.8      1.720      2.754
REMARK  17 active torsions:
REMARK  status: ('A' for Active; 'I' for Inactive)
REMARK    1  A    between atoms: C_2  and  C_3 
REMARK    2  A    between atoms: C_3  and  C_4 
REMARK    3  A    between atoms: C_4  and  C_5 
REMARK    4  A    between atoms: C_5  and  C_6 
REMARK    5  A    between atoms: C_6  and  C_7 
REMARK    6  A    between atoms: C_7  and  C_8 
REMARK    7  A    between atoms: C_8  and  C_9 
REMARK    8  A    between atoms: C_9  and  C_10 
REMARK    9  A    between atoms: C_10  and  C_11 
REMARK   10  A    between atoms: C_11  and  C_12 
REMARK   11  A    between atoms: C_12  and  C_13 
REMARK   12  A    between atoms: C_13  and  C_14 
REMARK   13  A    between atoms: C_14  and  C_15 
REMARK   14  A    between atoms: C_15  and  C_16 
REMARK   15  A    between atoms: C_16  and  C_17 
REMARK   16  A    between atoms: C_17  and  C_18 
REMARK   17  A    between atoms: C_18  and  N_19 
ROOT
HETATM    1  C   UNL     1     -21.154  -6.129  -4.253  1.00  0.00     0.000 C 
ENDROOT
BRANCH   1   2
HETATM    2  C   UNL     1     -20.855  -7.544  -4.704  1.00  0.00     0.000 C 
BRANCH   2   3
HETATM    3  C   UNL     1     -20.576  -8.417  -3.496  1.00  0.00     0.000 C 
BRANCH   3   4
HETATM    4  C   UNL     1     -19.403  -9.333  -3.785  1.00  0.00     0.000 C 
BRANCH   4   5
HETATM    5  C   UNL     1     -19.230 -10.321  -2.648  1.00  0.00     0.000 C 
BRANCH   5   6
HETATM    6  C   UNL     1     -20.564 -10.554  -1.961  1.00  0.00     0.000 C 
BRANCH   6   7
HETATM    7  C   UNL     1     -20.376 -10.559  -0.456  1.00  0.00     0.000 C 
BRANCH   7   8
HETATM    8  C   UNL     1     -21.728 -10.600   0.236  1.00  0.00     0.000 C 
BRANCH   8   9
HETATM    9  C   UNL     1     -22.623  -9.493  -0.299  1.00  0.00    -0.000 C 
BRANCH   9  10
HETATM   10  C   UNL     1     -22.204  -8.148   0.273  1.00  0.00    -0.005 C 
HETATM   11  C   UNL     1     -22.432  -7.047  -0.745  1.00  0.00     0.005 C 
ENDBRANCH   9  10
ENDBRANCH   8   9
ENDBRANCH   7   8
ENDBRANCH   6   7
ENDBRANCH   5   6
ENDBRANCH   4   5
ENDBRANCH   3   4
ENDBRANCH   2   3
ENDBRANCH   1   2
BRANCH   1  12
HETATM   12  C   UNL     1     -20.582  -5.142  -5.250  1.00  0.00     0.000 C 
BRANCH  12  13
HETATM   13  C   UNL     1     -21.470  -5.079  -6.475  1.00  0.00     0.000 C 
BRANCH  13  14
HETATM   14  C   UNL     1     -21.166  -3.814  -7.249  1.00  0.00     0.000 C 
BRANCH  14  15
HETATM   15  C   UNL     1     -21.941  -3.819  -8.548  1.00  0.00     0.000 C 
BRANCH  15  16
HETATM   16  C   UNL     1     -23.368  -4.263  -8.261  1.00  0.00     0.002 C 
BRANCH  16  17
HETATM   17  C   UNL     1     -24.046  -4.542  -9.577  1.00  0.00     0.036 C 
BRANCH  17  18
HETATM   18  C   UNL     1     -24.125  -3.294 -10.447  1.00  0.00     0.311 C 
BRANCH  18  19
HETATM   19  N   UNL     1     -23.604  -3.542 -11.835  1.00  0.00     0.005 N 
HETATM   20  C   UNL     1     -24.516  -2.916 -12.864  1.00  0.00     0.355 C 
HETATM   21  C   UNL     1     -22.221  -2.969 -11.987  1.00  0.00     0.355 C 
HETATM   22  O   UNL     1     -23.538  -4.897 -12.069  1.00  0.00    -0.065 OA
ENDBRANCH  18  19
ENDBRANCH  17  18
ENDBRANCH  16  17
ENDBRANCH  15  16
ENDBRANCH  14  15
ENDBRANCH  13  14
ENDBRANCH  12  13
ENDBRANCH   1  12
TORSDOF 17
ENDMDL
MODEL 7
REMARK VINA RESULT:      -5.7      1.549      2.453
REMARK  17 active torsions:
REMARK  status: ('A' for Active; 'I' for Inactive)
REMARK    1  A    between atoms: C_2  and  C_3 
REMARK    2  A    between atoms: C_3  and  C_4 
REMARK    3  A    between atoms: C_4  and  C_5 
REMARK    4  A    between atoms: C_5  and  C_6 
REMARK    5  A    between atoms: C_6  and  C_7 
REMARK    6  A    between atoms: C_7  and  C_8 
REMARK    7  A    between atoms: C_8  and  C_9 
REMARK    8  A    between atoms: C_9  and  C_10 
REMARK    9  A    between atoms: C_10  and  C_11 
REMARK   10  A    between atoms: C_11  and  C_12 
REMARK   11  A    between atoms: C_12  and  C_13 
REMARK   12  A    between atoms: C_13  and  C_14 
REMARK   13  A    between atoms: C_14  and  C_15 
REMARK   14  A    between atoms: C_15  and  C_16 
REMARK   15  A    between atoms: C_16  and  C_17 
REMARK   16  A    between atoms: C_17  and  C_18 
REMARK   17  A    between atoms: C_18  and  N_19 
ROOT
HETATM    1  C   UNL     1     -21.484  -4.289  -6.694  1.00  0.00     0.000 C 
ENDROOT
BRANCH   1   2
HETATM    2  C   UNL     1     -22.021  -5.565  -6.078  1.00  0.00     0.000 C 
BRANCH   2   3
HETATM    3  C   UNL     1     -21.046  -6.078  -5.036  1.00  0.00     0.000 C 
BRANCH   3   4
HETATM    4  C   UNL     1     -21.697  -7.181  -4.224  1.00  0.00     0.000 C 
BRANCH   4   5
HETATM    5  C   UNL     1     -20.917  -8.471  -4.391  1.00  0.00     0.000 C 
BRANCH   5   6
HETATM    6  C   UNL     1     -19.995  -8.673  -3.202  1.00  0.00     0.000 C 
BRANCH   6   7
HETATM    7  C   UNL     1     -20.476  -7.841  -2.029  1.00  0.00     0.000 C 
BRANCH   7   8
HETATM    8  C   UNL     1     -21.315  -8.697  -1.095  1.00  0.00     0.000 C 
BRANCH   8   9
HETATM    9  C   UNL     1     -22.376  -7.845  -0.417  1.00  0.00    -0.000 C 
BRANCH   9  10
HETATM   10  C   UNL     1     -22.229  -7.918   1.095  1.00  0.00    -0.005 C 
HETATM   11  C   UNL     1     -21.014  -8.746   1.468  1.00  0.00     0.005 C 
ENDBRANCH   9  10
ENDBRANCH   8   9
ENDBRANCH   7   8
ENDBRANCH   6   7
ENDBRANCH   5   6
ENDBRANCH   4   5
ENDBRANCH   3   4
ENDBRANCH   2   3
ENDBRANCH   1   2
BRANCH   1  12
HETATM   12  C   UNL     1     -19.971  -4.343  -6.746  1.00  0.00     0.000 C 
BRANCH  12  13
HETATM   13  C   UNL     1     -19.514  -4.542  -8.176  1.00  0.00     0.000 C 
BRANCH  13  14
HETATM   14  C   UNL     1     -20.392  -3.725  -9.100  1.00  0.00     0.000 C 
BRANCH  14  15
HETATM   15  C   UNL     1     -20.986  -4.627 -10.159  1.00  0.00     0.000 C 
BRANCH  15  16
HETATM   16  C   UNL     1     -20.860  -3.938 -11.511  1.00  0.00     0.002 C 
BRANCH  16  17
HETATM   17  C   UNL     1     -21.851  -2.806 -11.555  1.00  0.00     0.036 C 
BRANCH  17  18
HETATM   18  C   UNL     1     -23.287  -3.309 -11.489  1.00  0.00     0.311 C 
BRANCH  18  19
HETATM   19  N   UNL     1     -23.946  -3.308 -12.840  1.00  0.00     0.005 N 
HETATM   20  C   UNL     1     -23.079  -2.597 -13.854  1.00  0.00     0.355 C 
HETATM   21  C   UNL     1     -24.194  -4.717 -13.305  1.00  0.00     0.355 C 
HETATM   22  O   UNL     1     -25.158  -2.659 -12.763  1.00  0.00    -0.065 OA
ENDBRANCH  18  19
ENDBRANCH  17  18
ENDBRANCH  16  17
ENDBRANCH  15  16
ENDBRANCH  14  15
ENDBRANCH  13  14
ENDBRANCH  12  13
ENDBRANCH   1  12
TORSDOF 17
ENDMDL
MODEL 8
REMARK VINA RESULT:      -5.6      3.630      8.473
REMARK  17 active torsions:
REMARK  status: ('A' for Active; 'I' for Inactive)
REMARK    1  A    between atoms: C_2  and  C_3 
REMARK    2  A    between atoms: C_3  and  C_4 
REMARK    3  A    between atoms: C_4  and  C_5 
REMARK    4  A    between atoms: C_5  and  C_6 
REMARK    5  A    between atoms: C_6  and  C_7 
REMARK    6  A    between atoms: C_7  and  C_8 
REMARK    7  A    between atoms: C_8  and  C_9 
REMARK    8  A    between atoms: C_9  and  C_10 
REMARK    9  A    between atoms: C_10  and  C_11 
REMARK   10  A    between atoms: C_11  and  C_12 
REMARK   11  A    between atoms: C_12  and  C_13 
REMARK   12  A    between atoms: C_13  and  C_14 
REMARK   13  A    between atoms: C_14  and  C_15 
REMARK   14  A    between atoms: C_15  and  C_16 
REMARK   15  A    between atoms: C_16  and  C_17 
REMARK   16  A    between atoms: C_17  and  C_18 
REMARK   17  A    between atoms: C_18  and  N_19 
ROOT
HETATM    1  C   UNL     1     -22.226  -9.169   0.233  1.00  0.00     0.000 C 
ENDROOT
BRANCH   1   2
HETATM    2  C   UNL     1     -22.113  -8.384  -1.059  1.00  0.00     0.000 C 
BRANCH   2   3
HETATM    3  C   UNL     1     -22.291  -6.905  -0.774  1.00  0.00     0.000 C 
BRANCH   3   4
HETATM    4  C   UNL     1     -22.215  -6.121  -2.070  1.00  0.00     0.000 C 
BRANCH   4   5
HETATM    5  C   UNL     1     -21.434  -6.911  -3.103  1.00  0.00     0.000 C 
BRANCH   5   6
HETATM    6  C   UNL     1     -21.860  -6.495  -4.500  1.00  0.00     0.000 C 
BRANCH   6   7
HETATM    7  C   UNL     1     -20.862  -5.506  -5.071  1.00  0.00     0.000 C 
BRANCH   7   8
HETATM    8  C   UNL     1     -20.699  -5.736  -6.564  1.00  0.00     0.000 C 
BRANCH   8   9
HETATM    9  C   UNL     1     -19.487  -4.977  -7.080  1.00  0.00    -0.000 C 
BRANCH   9  10
HETATM   10  C   UNL     1     -19.863  -4.135  -8.290  1.00  0.00    -0.005 C 
HETATM   11  C   UNL     1     -21.320  -4.355  -8.654  1.00  0.00     0.005 C 
ENDBRANCH   9  10
ENDBRANCH   8   9
ENDBRANCH   7   8
ENDBRANCH   6   7
ENDBRANCH   5   6
ENDBRANCH   4   5
ENDBRANCH   3   4
ENDBRANCH   2   3
ENDBRANCH   1   2
BRANCH   1  12
HETATM   12  C   UNL     1     -22.350 -10.647  -0.076  1.00  0.00     0.000 C 
BRANCH  12  13
HETATM   13  C   UNL     1     -23.503 -10.875  -1.032  1.00  0.00     0.000 C 
BRANCH  13  14
HETATM   14  C   UNL     1     -23.060 -11.810  -2.136  1.00  0.00     0.000 C 
BRANCH  14  15
HETATM   15  C   UNL     1     -22.881 -11.027  -3.418  1.00  0.00     0.000 C 
BRANCH  15  16
HETATM   16  C   UNL     1     -21.717 -11.626  -4.195  1.00  0.00     0.002 C 
BRANCH  16  17
HETATM   17  C   UNL     1     -20.907 -10.495  -4.773  1.00  0.00     0.036 C 
BRANCH  17  18
HETATM   18  C   UNL     1     -19.508 -10.949  -5.171  1.00  0.00     0.311 C 
BRANCH  18  19
HETATM   19  N   UNL     1     -18.529  -9.809  -5.182  1.00  0.00     0.005 N 
HETATM   20  C   UNL     1     -18.050  -9.505  -3.782  1.00  0.00     0.355 C 
HETATM   21  C   UNL     1     -17.344 -10.143  -6.047  1.00  0.00     0.355 C 
HETATM   22  O   UNL     1     -19.134  -8.684  -5.696  1.00  0.00    -0.065 OA
ENDBRANCH  18  19
ENDBRANCH  17  18
ENDBRANCH  16  17
ENDBRANCH  15  16
ENDBRANCH  14  15
ENDBRANCH  13  14
ENDBRANCH  12  13
ENDBRANCH   1  12
TORSDOF 17
ENDMDL
MODEL 9
REMARK VINA RESULT:      -5.5      4.120      9.704
REMARK  17 active torsions:
REMARK  status: ('A' for Active; 'I' for Inactive)
REMARK    1  A    between atoms: C_2  and  C_3 
REMARK    2  A    between atoms: C_3  and  C_4 
REMARK    3  A    between atoms: C_4  and  C_5 
REMARK    4  A    between atoms: C_5  and  C_6 
REMARK    5  A    between atoms: C_6  and  C_7 
REMARK    6  A    between atoms: C_7  and  C_8 
REMARK    7  A    between atoms: C_8  and  C_9 
REMARK    8  A    between atoms: C_9  and  C_10 
REMARK    9  A    between atoms: C_10  and  C_11 
REMARK   10  A    between atoms: C_11  and  C_12 
REMARK   11  A    between atoms: C_12  and  C_13 
REMARK   12  A    between atoms: C_13  and  C_14 
REMARK   13  A    between atoms: C_14  and  C_15 
REMARK   14  A    between atoms: C_15  and  C_16 
REMARK   15  A    between atoms: C_16  and  C_17 
REMARK   16  A    between atoms: C_17  and  C_18 
REMARK   17  A    between atoms: C_18  and  N_19 
ROOT
HETATM    1  C   UNL     1     -20.645  -7.815  -1.926  1.00  0.00     0.000 C 
ENDROOT
BRANCH   1   2
HETATM    2  C   UNL     1     -20.535  -7.248  -3.327  1.00  0.00     0.000 C 
BRANCH   2   3
HETATM    3  C   UNL     1     -21.778  -7.600  -4.119  1.00  0.00     0.000 C 
BRANCH   3   4
HETATM    4  C   UNL     1     -22.151  -6.445  -5.028  1.00  0.00     0.000 C 
BRANCH   4   5
HETATM    5  C   UNL     1     -20.918  -5.618  -5.340  1.00  0.00     0.000 C 
BRANCH   5   6
HETATM    6  C   UNL     1     -20.361  -6.015  -6.695  1.00  0.00     0.000 C 
BRANCH   6   7
HETATM    7  C   UNL     1     -19.390  -4.958  -7.185  1.00  0.00     0.000 C 
BRANCH   7   8
HETATM    8  C   UNL     1     -20.128  -3.921  -8.016  1.00  0.00     0.000 C 
BRANCH   8   9
HETATM    9  C   UNL     1     -20.301  -4.421  -9.442  1.00  0.00    -0.000 C 
BRANCH   9  10
HETATM   10  C   UNL     1     -21.752  -4.291  -9.878  1.00  0.00    -0.005 C 
HETATM   11  C   UNL     1     -22.599  -3.752  -8.741  1.00  0.00     0.005 C 
ENDBRANCH   9  10
ENDBRANCH   8   9
ENDBRANCH   7   8
ENDBRANCH   6   7
ENDBRANCH   5   6
ENDBRANCH   4   5
ENDBRANCH   3   4
ENDBRANCH   2   3
ENDBRANCH   1   2
BRANCH   1  12
HETATM   12  C   UNL     1     -21.896  -7.284  -1.256  1.00  0.00     0.000 C 
BRANCH  12  13
HETATM   13  C   UNL     1     -22.005  -7.849   0.145  1.00  0.00     0.000 C 
BRANCH  13  14
HETATM   14  C   UNL     1     -23.363  -8.494   0.320  1.00  0.00     0.000 C 
BRANCH  14  15
HETATM   15  C   UNL     1     -23.297  -9.938  -0.128  1.00  0.00     0.000 C 
BRANCH  15  16
HETATM   16  C   UNL     1     -21.929 -10.498   0.236  1.00  0.00     0.002 C 
BRANCH  16  17
HETATM   17  C   UNL     1     -21.839 -11.902  -0.301  1.00  0.00     0.036 C 
BRANCH  17  18
HETATM   18  C   UNL     1     -22.892 -12.167  -1.370  1.00  0.00     0.311 C 
BRANCH  18  19
HETATM   19  N   UNL     1     -22.277 -12.385  -2.724  1.00  0.00     0.005 N 
HETATM   20  C   UNL     1     -22.572 -11.217  -3.636  1.00  0.00     0.355 C 
HETATM   21  C   UNL     1     -20.786 -12.551  -2.602  1.00  0.00     0.355 C 
HETATM   22  O   UNL     1     -22.794 -13.529  -3.288  1.00  0.00    -0.065 OA
ENDBRANCH  18  19
ENDBRANCH  17  18
ENDBRANCH  16  17
ENDBRANCH  15  16
ENDBRANCH  14  15
ENDBRANCH  13  14
ENDBRANCH  12  13
ENDBRANCH   1  12
TORSDOF 17
ENDMDL
