MODEL 1
REMARK VINA RESULT:      -4.4      0.000      0.000
REMARK  24 active torsions:
REMARK  status: ('A' for Active; 'I' for Inactive)
REMARK    1  A    between atoms: C_1  and  O_32 
REMARK    2  A    between atoms: C_2  and  O_27 
REMARK    3  A    between atoms: C_3  and  O_22 
REMARK    4  A    between atoms: C_4  and  O_17 
REMARK    5  A    between atoms: C_5  and  O_12 
REMARK    6  A    between atoms: C_6  and  O_7 
REMARK    7  A    between atoms: O_7  and  P_8 
REMARK    8  A    between atoms: P_8  and  O_10 
REMARK    9  A    between atoms: P_8  and  O_11 
REMARK   10  A    between atoms: O_12  and  P_13 
REMARK   11  A    between atoms: P_13  and  O_15 
REMARK   12  A    between atoms: P_13  and  O_16 
REMARK   13  A    between atoms: O_17  and  P_18 
REMARK   14  A    between atoms: P_18  and  O_20 
REMARK   15  A    between atoms: P_18  and  O_21 
REMARK   16  A    between atoms: O_22  and  P_23 
REMARK   17  A    between atoms: P_23  and  O_25 
REMARK   18  A    between atoms: P_23  and  O_26 
REMARK   19  A    between atoms: O_27  and  P_28 
REMARK   20  A    between atoms: P_28  and  O_30 
REMARK   21  A    between atoms: P_28  and  O_31 
REMARK   22  A    between atoms: O_32  and  P_33 
REMARK   23  A    between atoms: P_33  and  O_35 
REMARK   24  A    between atoms: P_33  and  O_36 
ROOT
HETATM    1  C   UNL     1     -20.466  -9.787  -1.577  1.00  0.00     0.198 C 
HETATM    2  C   UNL     1     -20.194 -10.020  -3.076  1.00  0.00     0.198 C 
HETATM    3  C   UNL     1     -18.845 -10.786  -3.221  1.00  0.00     0.198 C 
HETATM    4  C   UNL     1     -19.019 -12.181  -2.623  1.00  0.00     0.198 C 
HETATM    5  C   UNL     1     -19.388 -12.095  -1.124  1.00  0.00     0.198 C 
HETATM    6  C   UNL     1     -20.614 -11.162  -0.911  1.00  0.00     0.198 C 
ENDROOT
BRANCH   1   7
HETATM    7  O   UNL     1     -21.644  -8.989  -1.469  1.00  0.00    -0.286 OA
BRANCH   7   8
HETATM    8  P   UNL     1     -22.135  -8.369  -0.083  1.00  0.00     0.391 P 
HETATM    9  O   UNL     1     -21.107  -8.310   0.989  1.00  0.00    -0.632 OA
BRANCH   8  10
HETATM   10  O   UNL     1     -22.675  -6.928  -0.498  1.00  0.00    -0.307 OA
HETATM   11  H   UNL     1     -23.574  -6.769  -0.150  1.00  0.00     0.222 HD
ENDBRANCH   8  10
BRANCH   8  12
HETATM   12  O   UNL     1     -23.481  -9.114   0.333  1.00  0.00    -0.307 OA
HETATM   13  H   UNL     1     -23.419  -9.431   1.254  1.00  0.00     0.222 HD
ENDBRANCH   8  12
ENDBRANCH   7   8
ENDBRANCH   1   7
BRANCH   2  14
HETATM   14  O   UNL     1     -20.159  -8.765  -3.761  1.00  0.00    -0.286 OA
BRANCH  14  15
HETATM   15  P   UNL     1     -20.620  -8.706  -5.298  1.00  0.00     0.391 P 
HETATM   16  O   UNL     1     -21.125  -9.980  -5.878  1.00  0.00    -0.632 OA
BRANCH  15  17
HETATM   17  O   UNL     1     -21.537  -7.429  -5.518  1.00  0.00    -0.307 OA
HETATM   18  H   UNL     1     -22.437  -7.561  -5.168  1.00  0.00     0.222 HD
ENDBRANCH  15  17
BRANCH  15  19
HETATM   19  O   UNL     1     -19.279  -8.252  -6.033  1.00  0.00    -0.307 OA
HETATM   20  H   UNL     1     -18.913  -7.457  -5.600  1.00  0.00     0.222 HD
ENDBRANCH  15  19
ENDBRANCH  14  15
ENDBRANCH   2  14
BRANCH   6  21
HETATM   21  O   UNL     1     -21.784 -11.748  -1.475  1.00  0.00    -0.286 OA
BRANCH  21  22
HETATM   22  P   UNL     1     -22.656 -12.665  -0.295  1.00  0.00     0.391 P 
HETATM   23  O   UNL     1     -22.070 -11.847   0.854  1.00  0.00    -0.632 OA
BRANCH  22  24
HETATM   24  O   UNL     1     -24.014 -11.845  -0.664  1.00  0.00    -0.307 OA
HETATM   25  H   UNL     1     -23.779 -11.194  -1.352  1.00  0.00     0.222 HD
ENDBRANCH  22  24
BRANCH  22  26
HETATM   26  O   UNL     1     -23.528 -13.581   0.884  1.00  0.00    -0.307 OA
HETATM   27  H   UNL     1     -22.822 -14.046   1.379  1.00  0.00     0.222 HD
ENDBRANCH  22  26
ENDBRANCH  21  22
ENDBRANCH   6  21
BRANCH   3  28
HETATM   28  O   UNL     1     -17.772 -10.119  -2.518  1.00  0.00    -0.286 OA
BRANCH  28  29
HETATM   29  P   UNL     1     -16.541  -9.777  -3.687  1.00  0.00     0.391 P 
HETATM   30  O   UNL     1     -15.703 -10.929  -3.144  1.00  0.00    -0.632 OA
BRANCH  29  31
HETATM   31  O   UNL     1     -17.460 -10.406  -4.868  1.00  0.00    -0.307 OA
HETATM   32  H   UNL     1     -18.276  -9.869  -4.882  1.00  0.00     0.222 HD
ENDBRANCH  29  31
BRANCH  29  33
HETATM   33  O   UNL     1     -15.311  -9.436  -4.854  1.00  0.00    -0.307 OA
HETATM   34  H   UNL     1     -14.439  -9.654  -4.481  1.00  0.00     0.222 HD
ENDBRANCH  29  33
ENDBRANCH  28  29
ENDBRANCH   3  28
BRANCH   5  35
HETATM   35  O   UNL     1     -18.296 -11.648  -0.335  1.00  0.00    -0.286 OA
BRANCH  35  36
HETATM   36  P   UNL     1     -17.317 -12.749   0.279  1.00  0.00     0.391 P 
HETATM   37  O   UNL     1     -17.948 -14.053   0.644  1.00  0.00    -0.632 OA
BRANCH  36  38
HETATM   38  O   UNL     1     -16.124 -12.845  -0.766  1.00  0.00    -0.307 OA
HETATM   39  H   UNL     1     -15.341 -12.364  -0.440  1.00  0.00     0.222 HD
ENDBRANCH  36  38
BRANCH  36  40
HETATM   40  O   UNL     1     -16.626 -12.014   1.506  1.00  0.00    -0.307 OA
HETATM   41  H   UNL     1     -15.661 -12.145   1.518  1.00  0.00     0.222 HD
ENDBRANCH  36  40
ENDBRANCH  35  36
ENDBRANCH   5  35
BRANCH   4  42
HETATM   42  O   UNL     1     -17.883 -13.016  -2.821  1.00  0.00    -0.286 OA
BRANCH  42  43
HETATM   43  P   UNL     1     -17.782 -13.873  -4.169  1.00  0.00     0.391 P 
HETATM   44  O   UNL     1     -19.025 -13.969  -4.982  1.00  0.00    -0.632 OA
BRANCH  43  45
HETATM   45  O   UNL     1     -16.569 -13.254  -5.006  1.00  0.00    -0.307 OA
HETATM   46  H   UNL     1     -16.827 -12.398  -5.395  1.00  0.00     0.222 HD
ENDBRANCH  43  45
BRANCH  43  47
HETATM   47  O   UNL     1     -17.220 -15.310  -3.768  1.00  0.00    -0.307 OA
HETATM   48  H   UNL     1     -17.940 -15.942  -3.593  1.00  0.00     0.222 HD
ENDBRANCH  43  47
ENDBRANCH  42  43
ENDBRANCH   4  42
TORSDOF 24
ENDMDL
MODEL 2
REMARK VINA RESULT:      -4.4      1.947      5.521
REMARK  24 active torsions:
REMARK  status: ('A' for Active; 'I' for Inactive)
REMARK    1  A    between atoms: C_1  and  O_32 
REMARK    2  A    between atoms: C_2  and  O_27 
REMARK    3  A    between atoms: C_3  and  O_22 
REMARK    4  A    between atoms: C_4  and  O_17 
REMARK    5  A    between atoms: C_5  and  O_12 
REMARK    6  A    between atoms: C_6  and  O_7 
REMARK    7  A    between atoms: O_7  and  P_8 
REMARK    8  A    between atoms: P_8  and  O_10 
REMARK    9  A    between atoms: P_8  and  O_11 
REMARK   10  A    between atoms: O_12  and  P_13 
REMARK   11  A    between atoms: P_13  and  O_15 
REMARK   12  A    between atoms: P_13  and  O_16 
REMARK   13  A    between atoms: O_17  and  P_18 
REMARK   14  A    between atoms: P_18  and  O_20 
REMARK   15  A    between atoms: P_18  and  O_21 
REMARK   16  A    between atoms: O_22  and  P_23 
REMARK   17  A    between atoms: P_23  and  O_25 
REMARK   18  A    between atoms: P_23  and  O_26 
REMARK   19  A    between atoms: O_27  and  P_28 
REMARK   20  A    between atoms: P_28  and  O_30 
REMARK   21  A    between atoms: P_28  and  O_31 
REMARK   22  A    between atoms: O_32  and  P_33 
REMARK   23  A    between atoms: P_33  and  O_35 
REMARK   24  A    between atoms: P_33  and  O_36 
ROOT
HETATM    1  C   UNL     1     -20.015 -11.217  -1.871  1.00  0.00     0.198 C 
HETATM    2  C   UNL     1     -18.531 -11.629  -1.919  1.00  0.00     0.198 C 
HETATM    3  C   UNL     1     -18.343 -12.668  -3.065  1.00  0.00     0.198 C 
HETATM    4  C   UNL     1     -18.609 -11.967  -4.396  1.00  0.00     0.198 C 
HETATM    5  C   UNL     1     -20.052 -11.417  -4.449  1.00  0.00     0.198 C 
HETATM    6  C   UNL     1     -20.354 -10.536  -3.204  1.00  0.00     0.198 C 
ENDROOT
BRANCH   1   7
HETATM    7  O   UNL     1     -20.189 -10.353  -0.748  1.00  0.00    -0.286 OA
BRANCH   7   8
HETATM    8  P   UNL     1     -21.549 -10.294   0.086  1.00  0.00     0.391 P 
HETATM    9  O   UNL     1     -22.049 -11.602   0.584  1.00  0.00    -0.632 OA
BRANCH   8  10
HETATM   10  O   UNL     1     -21.212  -9.275   1.263  1.00  0.00    -0.307 OA
HETATM   11  H   UNL     1     -20.384  -8.788   1.089  1.00  0.00     0.222 HD
ENDBRANCH   8  10
BRANCH   8  12
HETATM   12  O   UNL     1     -22.608  -9.464  -0.770  1.00  0.00    -0.307 OA
HETATM   13  H   UNL     1     -22.584  -8.523  -0.512  1.00  0.00     0.222 HD
ENDBRANCH   8  12
ENDBRANCH   7   8
ENDBRANCH   1   7
BRANCH   2  14
HETATM   14  O   UNL     1     -18.138 -12.169  -0.654  1.00  0.00    -0.286 OA
BRANCH  14  15
HETATM   15  P   UNL     1     -16.597 -12.076  -0.215  1.00  0.00     0.391 P 
HETATM   16  O   UNL     1     -15.712 -11.277  -1.104  1.00  0.00    -0.632 OA
BRANCH  15  17
HETATM   17  O   UNL     1     -16.516 -11.739   1.335  1.00  0.00    -0.307 OA
HETATM   18  H   UNL     1     -16.046 -10.903   1.503  1.00  0.00     0.222 HD
ENDBRANCH  15  17
BRANCH  15  19
HETATM   19  O   UNL     1     -16.155 -13.609  -0.220  1.00  0.00    -0.307 OA
HETATM   20  H   UNL     1     -15.543 -13.778  -0.963  1.00  0.00     0.222 HD
ENDBRANCH  15  19
ENDBRANCH  14  15
ENDBRANCH   2  14
BRANCH   6  21
HETATM   21  O   UNL     1     -19.576  -9.342  -3.245  1.00  0.00    -0.286 OA
BRANCH  21  22
HETATM   22  P   UNL     1     -20.572  -7.956  -3.523  1.00  0.00     0.391 P 
HETATM   23  O   UNL     1     -21.833  -8.811  -3.619  1.00  0.00    -0.632 OA
BRANCH  22  24
HETATM   24  O   UNL     1     -20.504  -7.589  -1.938  1.00  0.00    -0.307 OA
HETATM   25  H   UNL     1     -20.310  -6.635  -1.872  1.00  0.00     0.222 HD
ENDBRANCH  22  24
BRANCH  22  26
HETATM   26  O   UNL     1     -21.568  -6.569  -3.802  1.00  0.00    -0.307 OA
HETATM   27  H   UNL     1     -22.470  -6.945  -3.863  1.00  0.00     0.222 HD
ENDBRANCH  22  26
ENDBRANCH  21  22
ENDBRANCH   6  21
BRANCH   3  28
HETATM   28  O   UNL     1     -19.264 -13.775  -2.940  1.00  0.00    -0.286 OA
BRANCH  28  29
HETATM   29  P   UNL     1     -18.310 -15.199  -2.702  1.00  0.00     0.391 P 
HETATM   30  O   UNL     1     -17.042 -14.398  -2.975  1.00  0.00    -0.632 OA
BRANCH  29  31
HETATM   31  O   UNL     1     -18.556 -15.120  -1.099  1.00  0.00    -0.307 OA
HETATM   32  H   UNL     1     -18.999 -15.957  -0.858  1.00  0.00     0.222 HD
ENDBRANCH  29  31
BRANCH  29  33
HETATM   33  O   UNL     1     -17.356 -16.622  -2.464  1.00  0.00    -0.307 OA
HETATM   34  H   UNL     1     -17.920 -17.341  -2.132  1.00  0.00     0.222 HD
ENDBRANCH  29  33
ENDBRANCH  28  29
ENDBRANCH   3  28
BRANCH   5  35
HETATM   35  O   UNL     1     -21.012 -12.458  -4.550  1.00  0.00    -0.286 OA
BRANCH  35  36
HETATM   36  P   UNL     1     -21.806 -12.613  -5.926  1.00  0.00     0.391 P 
HETATM   37  O   UNL     1     -23.260 -12.936  -5.807  1.00  0.00    -0.632 OA
BRANCH  36  38
HETATM   38  O   UNL     1     -21.473 -11.283  -6.729  1.00  0.00    -0.307 OA
HETATM   39  H   UNL     1     -21.259 -10.555  -6.116  1.00  0.00     0.222 HD
ENDBRANCH  36  38
BRANCH  36  40
HETATM   40  O   UNL     1     -20.979 -13.704  -6.732  1.00  0.00    -0.307 OA
HETATM   41  H   UNL     1     -20.687 -14.439  -6.164  1.00  0.00     0.222 HD
ENDBRANCH  36  40
ENDBRANCH  35  36
ENDBRANCH   5  35
BRANCH   4  42
HETATM   42  O   UNL     1     -18.336 -12.793  -5.523  1.00  0.00    -0.286 OA
BRANCH  42  43
HETATM   43  P   UNL     1     -17.631 -12.142  -6.804  1.00  0.00     0.391 P 
HETATM   44  O   UNL     1     -16.581 -12.963  -7.465  1.00  0.00    -0.632 OA
BRANCH  43  45
HETATM   45  O   UNL     1     -18.807 -11.752  -7.814  1.00  0.00    -0.307 OA
HETATM   46  H   UNL     1     -18.448 -11.278  -8.587  1.00  0.00     0.222 HD
ENDBRANCH  43  45
BRANCH  43  47
HETATM   47  O   UNL     1     -17.080 -10.714  -6.359  1.00  0.00    -0.307 OA
HETATM   48  H   UNL     1     -17.507  -9.993  -6.855  1.00  0.00     0.222 HD
ENDBRANCH  43  47
ENDBRANCH  42  43
ENDBRANCH   4  42
TORSDOF 24
ENDMDL
MODEL 3
REMARK VINA RESULT:      -4.2      1.488      5.977
REMARK  24 active torsions:
REMARK  status: ('A' for Active; 'I' for Inactive)
REMARK    1  A    between atoms: C_1  and  O_32 
REMARK    2  A    between atoms: C_2  and  O_27 
REMARK    3  A    between atoms: C_3  and  O_22 
REMARK    4  A    between atoms: C_4  and  O_17 
REMARK    5  A    between atoms: C_5  and  O_12 
REMARK    6  A    between atoms: C_6  and  O_7 
REMARK    7  A    between atoms: O_7  and  P_8 
REMARK    8  A    between atoms: P_8  and  O_10 
REMARK    9  A    between atoms: P_8  and  O_11 
REMARK   10  A    between atoms: O_12  and  P_13 
REMARK   11  A    between atoms: P_13  and  O_15 
REMARK   12  A    between atoms: P_13  and  O_16 
REMARK   13  A    between atoms: O_17  and  P_18 
REMARK   14  A    between atoms: P_18  and  O_20 
REMARK   15  A    between atoms: P_18  and  O_21 
REMARK   16  A    between atoms: O_22  and  P_23 
REMARK   17  A    between atoms: P_23  and  O_25 
REMARK   18  A    between atoms: P_23  and  O_26 
REMARK   19  A    between atoms: O_27  and  P_28 
REMARK   20  A    between atoms: P_28  and  O_30 
REMARK   21  A    between atoms: P_28  and  O_31 
REMARK   22  A    between atoms: O_32  and  P_33 
REMARK   23  A    between atoms: P_33  and  O_35 
REMARK   24  A    between atoms: P_33  and  O_36 
ROOT
HETATM    1  C   UNL     1     -20.192  -9.279  -3.794  1.00  0.00     0.198 C 
HETATM    2  C   UNL     1     -20.534  -9.468  -2.303  1.00  0.00     0.198 C 
HETATM    3  C   UNL     1     -20.728 -10.989  -2.029  1.00  0.00     0.198 C 
HETATM    4  C   UNL     1     -19.384 -11.688  -2.224  1.00  0.00     0.198 C 
HETATM    5  C   UNL     1     -18.871 -11.500  -3.671  1.00  0.00     0.198 C 
HETATM    6  C   UNL     1     -18.861  -9.995  -4.061  1.00  0.00     0.198 C 
ENDROOT
BRANCH   1   7
HETATM    7  O   UNL     1     -20.128  -7.876  -4.049  1.00  0.00    -0.286 OA
BRANCH   7   8
HETATM    8  P   UNL     1     -21.067  -7.157  -5.121  1.00  0.00     0.391 P 
HETATM    9  O   UNL     1     -21.325  -7.930  -6.364  1.00  0.00    -0.632 OA
BRANCH   8  10
HETATM   10  O   UNL     1     -22.397  -6.854  -4.298  1.00  0.00    -0.307 OA
HETATM   11  H   UNL     1     -22.200  -6.417  -3.447  1.00  0.00     0.222 HD
ENDBRANCH   8  10
BRANCH   8  12
HETATM   12  O   UNL     1     -20.493  -5.689  -5.363  1.00  0.00    -0.307 OA
HETATM   13  H   UNL     1     -19.658  -5.570  -4.871  1.00  0.00     0.222 HD
ENDBRANCH   8  12
ENDBRANCH   7   8
ENDBRANCH   1   7
BRANCH   2  14
HETATM   14  O   UNL     1     -21.712  -8.724  -1.979  1.00  0.00    -0.286 OA
BRANCH  14  15
HETATM   15  P   UNL     1     -21.943  -8.259  -0.461  1.00  0.00     0.391 P 
HETATM   16  O   UNL     1     -20.786  -8.432   0.459  1.00  0.00    -0.632 OA
BRANCH  15  17
HETATM   17  O   UNL     1     -22.632  -6.828  -0.453  1.00  0.00    -0.307 OA
HETATM   18  H   UNL     1     -23.543  -6.863  -0.111  1.00  0.00     0.222 HD
ENDBRANCH  15  17
BRANCH  15  19
HETATM   19  O   UNL     1     -23.159  -9.187  -0.007  1.00  0.00    -0.307 OA
HETATM   20  H   UNL     1     -23.947  -8.641   0.175  1.00  0.00     0.222 HD
ENDBRANCH  15  19
ENDBRANCH  14  15
ENDBRANCH   2  14
BRANCH   6  21
HETATM   21  O   UNL     1     -17.878  -9.295  -3.302  1.00  0.00    -0.286 OA
BRANCH  21  22
HETATM   22  P   UNL     1     -16.376 -10.152  -3.280  1.00  0.00     0.391 P 
HETATM   23  O   UNL     1     -16.089  -9.798  -4.737  1.00  0.00    -0.632 OA
BRANCH  22  24
HETATM   24  O   UNL     1     -15.687  -8.921  -2.466  1.00  0.00    -0.307 OA
HETATM   25  H   UNL     1     -14.977  -8.565  -3.033  1.00  0.00     0.222 HD
ENDBRANCH  22  24
BRANCH  22  26
HETATM   26  O   UNL     1     -14.874 -11.010  -3.257  1.00  0.00    -0.307 OA
HETATM   27  H   UNL     1     -14.309 -10.463  -2.674  1.00  0.00     0.222 HD
ENDBRANCH  22  26
ENDBRANCH  21  22
ENDBRANCH   6  21
BRANCH   3  28
HETATM   28  O   UNL     1     -21.685 -11.579  -2.938  1.00  0.00    -0.286 OA
BRANCH  28  29
HETATM   29  P   UNL     1     -22.953 -12.249  -1.970  1.00  0.00     0.391 P 
HETATM   30  O   UNL     1     -22.143 -11.966  -0.709  1.00  0.00    -0.632 OA
BRANCH  29  31
HETATM   31  O   UNL     1     -23.868 -10.932  -2.221  1.00  0.00    -0.307 OA
HETATM   32  H   UNL     1     -24.530 -10.929  -1.502  1.00  0.00     0.222 HD
ENDBRANCH  29  31
BRANCH  29  33
HETATM   33  O   UNL     1     -24.220 -12.918  -1.001  1.00  0.00    -0.307 OA
HETATM   34  H   UNL     1     -24.985 -13.128  -1.564  1.00  0.00     0.222 HD
ENDBRANCH  29  33
ENDBRANCH  28  29
ENDBRANCH   3  28
BRANCH   5  35
HETATM   35  O   UNL     1     -19.643 -12.237  -4.606  1.00  0.00    -0.286 OA
BRANCH  35  36
HETATM   36  P   UNL     1     -18.965 -12.622  -5.998  1.00  0.00     0.391 P 
HETATM   37  O   UNL     1     -17.472 -12.584  -6.029  1.00  0.00    -0.632 OA
BRANCH  36  38
HETATM   38  O   UNL     1     -19.613 -14.022  -6.382  1.00  0.00    -0.307 OA
HETATM   39  H   UNL     1     -20.437 -13.894  -6.887  1.00  0.00     0.222 HD
ENDBRANCH  36  38
BRANCH  36  40
HETATM   40  O   UNL     1     -19.646 -11.643  -7.048  1.00  0.00    -0.307 OA
HETATM   41  H   UNL     1     -20.212 -12.118  -7.681  1.00  0.00     0.222 HD
ENDBRANCH  36  40
ENDBRANCH  35  36
ENDBRANCH   5  35
BRANCH   4  42
HETATM   42  O   UNL     1     -19.417 -13.066  -1.870  1.00  0.00    -0.286 OA
BRANCH  42  43
HETATM   43  P   UNL     1     -18.863 -13.507  -0.435  1.00  0.00     0.391 P 
HETATM   44  O   UNL     1     -17.885 -14.629  -0.423  1.00  0.00    -0.632 OA
BRANCH  43  45
HETATM   45  O   UNL     1     -18.263 -12.187   0.240  1.00  0.00    -0.307 OA
HETATM   46  H   UNL     1     -17.290 -12.234   0.272  1.00  0.00     0.222 HD
ENDBRANCH  43  45
BRANCH  43  47
HETATM   47  O   UNL     1     -20.130 -13.811   0.482  1.00  0.00    -0.307 OA
HETATM   48  H   UNL     1     -19.953 -13.608   1.419  1.00  0.00     0.222 HD
ENDBRANCH  43  47
ENDBRANCH  42  43
ENDBRANCH   4  42
TORSDOF 24
ENDMDL
MODEL 4
REMARK VINA RESULT:      -4.1      1.240      5.854
REMARK  24 active torsions:
REMARK  status: ('A' for Active; 'I' for Inactive)
REMARK    1  A    between atoms: C_1  and  O_32 
REMARK    2  A    between atoms: C_2  and  O_27 
REMARK    3  A    between atoms: C_3  and  O_22 
REMARK    4  A    between atoms: C_4  and  O_17 
REMARK    5  A    between atoms: C_5  and  O_12 
REMARK    6  A    between atoms: C_6  and  O_7 
REMARK    7  A    between atoms: O_7  and  P_8 
REMARK    8  A    between atoms: P_8  and  O_10 
REMARK    9  A    between atoms: P_8  and  O_11 
REMARK   10  A    between atoms: O_12  and  P_13 
REMARK   11  A    between atoms: P_13  and  O_15 
REMARK   12  A    between atoms: P_13  and  O_16 
REMARK   13  A    between atoms: O_17  and  P_18 
REMARK   14  A    between atoms: P_18  and  O_20 
REMARK   15  A    between atoms: P_18  and  O_21 
REMARK   16  A    between atoms: O_22  and  P_23 
REMARK   17  A    between atoms: P_23  and  O_25 
REMARK   18  A    between atoms: P_23  and  O_26 
REMARK   19  A    between atoms: O_27  and  P_28 
REMARK   20  A    between atoms: P_28  and  O_30 
REMARK   21  A    between atoms: P_28  and  O_31 
REMARK   22  A    between atoms: O_32  and  P_33 
REMARK   23  A    between atoms: P_33  and  O_35 
REMARK   24  A    between atoms: P_33  and  O_36 
ROOT
HETATM    1  C   UNL     1     -20.269 -10.746  -2.304  1.00  0.00     0.198 C 
HETATM    2  C   UNL     1     -20.405 -10.443  -0.799  1.00  0.00     0.198 C 
HETATM    3  C   UNL     1     -20.058 -11.735  -0.000  1.00  0.00     0.198 C 
HETATM    4  C   UNL     1     -18.579 -12.050  -0.214  1.00  0.00     0.198 C 
HETATM    5  C   UNL     1     -18.279 -12.290  -1.712  1.00  0.00     0.198 C 
HETATM    6  C   UNL     1     -18.802 -11.108  -2.576  1.00  0.00     0.198 C 
ENDROOT
BRANCH   1   7
HETATM    7  O   UNL     1     -20.696  -9.589  -3.020  1.00  0.00    -0.286 OA
BRANCH   7   8
HETATM    8  P   UNL     1     -21.047  -9.625  -4.577  1.00  0.00     0.391 P 
HETATM    9  O   UNL     1     -21.688 -10.877  -5.057  1.00  0.00    -0.632 OA
BRANCH   8  10
HETATM   10  O   UNL     1     -21.975  -8.344  -4.772  1.00  0.00    -0.307 OA
HETATM   11  H   UNL     1     -21.936  -7.753  -3.996  1.00  0.00     0.222 HD
ENDBRANCH   8  10
BRANCH   8  12
HETATM   12  O   UNL     1     -19.736  -9.203  -5.381  1.00  0.00    -0.307 OA
HETATM   13  H   UNL     1     -19.981  -8.719  -6.191  1.00  0.00     0.222 HD
ENDBRANCH   8  12
ENDBRANCH   7   8
ENDBRANCH   1   7
BRANCH   2  14
HETATM   14  O   UNL     1     -21.732  -9.992  -0.515  1.00  0.00    -0.286 OA
BRANCH  14  15
HETATM   15  P   UNL     1     -21.931  -8.577   0.216  1.00  0.00     0.391 P 
HETATM   16  O   UNL     1     -23.338  -8.166   0.471  1.00  0.00    -0.632 OA
BRANCH  15  17
HETATM   17  O   UNL     1     -20.943  -8.487   1.456  1.00  0.00    -0.307 OA
HETATM   18  H   UNL     1     -20.072  -8.131   1.203  1.00  0.00     0.222 HD
ENDBRANCH  15  17
BRANCH  15  19
HETATM   19  O   UNL     1     -21.234  -7.570  -0.807  1.00  0.00    -0.307 OA
HETATM   20  H   UNL     1     -21.654  -6.691  -0.750  1.00  0.00     0.222 HD
ENDBRANCH  15  19
ENDBRANCH  14  15
ENDBRANCH   2  14
BRANCH   6  21
HETATM   21  O   UNL     1     -18.049  -9.928  -2.306  1.00  0.00    -0.286 OA
BRANCH  21  22
HETATM   22  P   UNL     1     -16.741  -9.750  -3.422  1.00  0.00     0.391 P 
HETATM   23  O   UNL     1     -15.816 -10.608  -2.562  1.00  0.00    -0.632 OA
BRANCH  22  24
HETATM   24  O   UNL     1     -17.434 -10.845  -4.408  1.00  0.00    -0.307 OA
HETATM   25  H   UNL     1     -16.716 -11.387  -4.785  1.00  0.00     0.222 HD
ENDBRANCH  22  24
BRANCH  22  26
HETATM   26  O   UNL     1     -15.432  -9.572  -4.539  1.00  0.00    -0.307 OA
HETATM   27  H   UNL     1     -14.750  -9.102  -4.018  1.00  0.00     0.222 HD
ENDBRANCH  22  26
ENDBRANCH  21  22
ENDBRANCH   6  21
BRANCH   3  28
HETATM   28  O   UNL     1     -20.836 -12.867  -0.451  1.00  0.00    -0.286 OA
BRANCH  28  29
HETATM   29  P   UNL     1     -21.784 -13.395   0.897  1.00  0.00     0.391 P 
HETATM   30  O   UNL     1     -22.838 -13.947  -0.056  1.00  0.00    -0.632 OA
BRANCH  29  31
HETATM   31  O   UNL     1     -20.747 -14.613   1.176  1.00  0.00    -0.307 OA
HETATM   32  H   UNL     1     -20.409 -14.470   2.082  1.00  0.00     0.222 HD
ENDBRANCH  29  31
BRANCH  29  33
HETATM   33  O   UNL     1     -22.732 -13.923   2.244  1.00  0.00    -0.307 OA
HETATM   34  H   UNL     1     -22.224 -13.807   3.066  1.00  0.00     0.222 HD
ENDBRANCH  29  33
ENDBRANCH  28  29
ENDBRANCH   3  28
BRANCH   5  35
HETATM   35  O   UNL     1     -18.836 -13.511  -2.174  1.00  0.00    -0.286 OA
BRANCH  35  36
HETATM   36  P   UNL     1     -18.008 -14.352  -3.248  1.00  0.00     0.391 P 
HETATM   37  O   UNL     1     -18.008 -15.834  -3.058  1.00  0.00    -0.632 OA
BRANCH  36  38
HETATM   38  O   UNL     1     -18.557 -13.851  -4.653  1.00  0.00    -0.307 OA
HETATM   39  H   UNL     1     -19.424 -13.417  -4.549  1.00  0.00     0.222 HD
ENDBRANCH  36  38
BRANCH  36  40
HETATM   40  O   UNL     1     -16.556 -13.709  -3.211  1.00  0.00    -0.307 OA
HETATM   41  H   UNL     1     -15.859 -14.362  -3.401  1.00  0.00     0.222 HD
ENDBRANCH  36  40
ENDBRANCH  35  36
ENDBRANCH   5  35
BRANCH   4  42
HETATM   42  O   UNL     1     -18.122 -13.140   0.579  1.00  0.00    -0.286 OA
BRANCH  42  43
HETATM   43  P   UNL     1     -16.589 -13.171   1.037  1.00  0.00     0.391 P 
HETATM   44  O   UNL     1     -16.299 -13.875   2.316  1.00  0.00    -0.632 OA
BRANCH  43  45
HETATM   45  O   UNL     1     -15.768 -13.795  -0.185  1.00  0.00    -0.307 OA
HETATM   46  H   UNL     1     -15.842 -13.222  -0.971  1.00  0.00     0.222 HD
ENDBRANCH  43  45
BRANCH  43  47
HETATM   47  O   UNL     1     -16.075 -11.663   1.056  1.00  0.00    -0.307 OA
HETATM   48  H   UNL     1     -15.208 -11.584   1.493  1.00  0.00     0.222 HD
ENDBRANCH  43  47
ENDBRANCH  42  43
ENDBRANCH   4  42
TORSDOF 24
ENDMDL
MODEL 5
REMARK VINA RESULT:      -4.1      1.797      5.566
REMARK  24 active torsions:
REMARK  status: ('A' for Active; 'I' for Inactive)
REMARK    1  A    between atoms: C_1  and  O_32 
REMARK    2  A    between atoms: C_2  and  O_27 
REMARK    3  A    between atoms: C_3  and  O_22 
REMARK    4  A    between atoms: C_4  and  O_17 
REMARK    5  A    between atoms: C_5  and  O_12 
REMARK    6  A    between atoms: C_6  and  O_7 
REMARK    7  A    between atoms: O_7  and  P_8 
REMARK    8  A    between atoms: P_8  and  O_10 
REMARK    9  A    between atoms: P_8  and  O_11 
REMARK   10  A    between atoms: O_12  and  P_13 
REMARK   11  A    between atoms: P_13  and  O_15 
REMARK   12  A    between atoms: P_13  and  O_16 
REMARK   13  A    between atoms: O_17  and  P_18 
REMARK   14  A    between atoms: P_18  and  O_20 
REMARK   15  A    between atoms: P_18  and  O_21 
REMARK   16  A    between atoms: O_22  and  P_23 
REMARK   17  A    between atoms: P_23  and  O_25 
REMARK   18  A    between atoms: P_23  and  O_26 
REMARK   19  A    between atoms: O_27  and  P_28 
REMARK   20  A    between atoms: P_28  and  O_30 
REMARK   21  A    between atoms: P_28  and  O_31 
REMARK   22  A    between atoms: O_32  and  P_33 
REMARK   23  A    between atoms: P_33  and  O_35 
REMARK   24  A    between atoms: P_33  and  O_36 
ROOT
HETATM    1  C   UNL     1     -19.742 -11.603  -2.315  1.00  0.00     0.198 C 
HETATM    2  C   UNL     1     -18.232 -11.692  -2.022  1.00  0.00     0.198 C 
HETATM    3  C   UNL     1     -17.537 -12.412  -3.216  1.00  0.00     0.198 C 
HETATM    4  C   UNL     1     -17.654 -11.519  -4.449  1.00  0.00     0.198 C 
HETATM    5  C   UNL     1     -19.137 -11.268  -4.808  1.00  0.00     0.198 C 
HETATM    6  C   UNL     1     -19.923 -10.742  -3.574  1.00  0.00     0.198 C 
ENDROOT
BRANCH   1   7
HETATM    7  O   UNL     1     -20.375 -11.043  -1.166  1.00  0.00    -0.286 OA
BRANCH   7   8
HETATM    8  P   UNL     1     -21.854 -11.445  -0.720  1.00  0.00     0.391 P 
HETATM    9  O   UNL     1     -22.043 -11.667   0.738  1.00  0.00    -0.632 OA
BRANCH   8  10
HETATM   10  O   UNL     1     -22.744 -10.248  -1.281  1.00  0.00    -0.307 OA
HETATM   11  H   UNL     1     -22.880  -9.557  -0.605  1.00  0.00     0.222 HD
ENDBRANCH   8  10
BRANCH   8  12
HETATM   12  O   UNL     1     -22.325 -12.660  -1.639  1.00  0.00    -0.307 OA
HETATM   13  H   UNL     1     -23.109 -13.091  -1.249  1.00  0.00     0.222 HD
ENDBRANCH   8  12
ENDBRANCH   7   8
ENDBRANCH   1   7
BRANCH   2  14
HETATM   14  O   UNL     1     -18.020 -12.392  -0.793  1.00  0.00    -0.286 OA
BRANCH  14  15
HETATM   15  P   UNL     1     -16.586 -12.290  -0.079  1.00  0.00     0.391 P 
HETATM   16  O   UNL     1     -15.555 -11.490  -0.794  1.00  0.00    -0.632 OA
BRANCH  15  17
HETATM   17  O   UNL     1     -16.793 -11.946   1.458  1.00  0.00    -0.307 OA
HETATM   18  H   UNL     1     -17.405 -11.199   1.586  1.00  0.00     0.222 HD
ENDBRANCH  15  17
BRANCH  15  19
HETATM   19  O   UNL     1     -16.143 -13.820   0.005  1.00  0.00    -0.307 OA
HETATM   20  H   UNL     1     -16.930 -14.391   0.104  1.00  0.00     0.222 HD
ENDBRANCH  15  19
ENDBRANCH  14  15
ENDBRANCH   2  14
BRANCH   6  21
HETATM   21  O   UNL     1     -19.474  -9.435  -3.224  1.00  0.00    -0.286 OA
BRANCH  21  22
HETATM   22  P   UNL     1     -20.671  -8.242  -3.595  1.00  0.00     0.391 P 
HETATM   23  O   UNL     1     -21.681  -9.307  -4.016  1.00  0.00    -0.632 OA
BRANCH  22  24
HETATM   24  O   UNL     1     -20.980  -8.061  -2.006  1.00  0.00    -0.307 OA
HETATM   25  H   UNL     1     -21.860  -7.644  -1.931  1.00  0.00     0.222 HD
ENDBRANCH  22  24
BRANCH  22  26
HETATM   26  O   UNL     1     -21.867  -7.050  -3.965  1.00  0.00    -0.307 OA
HETATM   27  H   UNL     1     -21.338  -6.282  -4.265  1.00  0.00     0.222 HD
ENDBRANCH  22  26
ENDBRANCH  21  22
ENDBRANCH   6  21
BRANCH   3  28
HETATM   28  O   UNL     1     -18.162 -13.682  -3.512  1.00  0.00    -0.286 OA
BRANCH  28  29
HETATM   29  P   UNL     1     -16.945 -14.898  -3.318  1.00  0.00     0.391 P 
HETATM   30  O   UNL     1     -16.988 -15.183  -4.816  1.00  0.00    -0.632 OA
BRANCH  29  31
HETATM   31  O   UNL     1     -15.810 -13.758  -3.109  1.00  0.00    -0.307 OA
HETATM   32  H   UNL     1     -15.688 -13.680  -2.143  1.00  0.00     0.222 HD
ENDBRANCH  29  31
BRANCH  29  33
HETATM   33  O   UNL     1     -15.730 -16.114  -3.126  1.00  0.00    -0.307 OA
HETATM   34  H   UNL     1     -14.925 -15.714  -2.755  1.00  0.00     0.222 HD
ENDBRANCH  29  33
ENDBRANCH  28  29
ENDBRANCH   3  28
BRANCH   5  35
HETATM   35  O   UNL     1     -19.762 -12.435  -5.319  1.00  0.00    -0.286 OA
BRANCH  35  36
HETATM   36  P   UNL     1     -20.424 -12.357  -6.769  1.00  0.00     0.391 P 
HETATM   37  O   UNL     1     -21.080 -13.608  -7.256  1.00  0.00    -0.632 OA
BRANCH  36  38
HETATM   38  O   UNL     1     -21.368 -11.080  -6.706  1.00  0.00    -0.307 OA
HETATM   39  H   UNL     1     -20.852 -10.263  -6.835  1.00  0.00     0.222 HD
ENDBRANCH  36  38
BRANCH  36  40
HETATM   40  O   UNL     1     -19.246 -11.852  -7.708  1.00  0.00    -0.307 OA
HETATM   41  H   UNL     1     -18.375 -11.926  -7.278  1.00  0.00     0.222 HD
ENDBRANCH  36  40
ENDBRANCH  35  36
ENDBRANCH   5  35
BRANCH   4  42
HETATM   42  O   UNL     1     -16.936 -12.022  -5.570  1.00  0.00    -0.286 OA
BRANCH  42  43
HETATM   43  P   UNL     1     -15.513 -11.381  -5.925  1.00  0.00     0.391 P 
HETATM   44  O   UNL     1     -14.915 -11.787  -7.226  1.00  0.00    -0.632 OA
BRANCH  43  45
HETATM   45  O   UNL     1     -15.695  -9.796  -5.822  1.00  0.00    -0.307 OA
HETATM   46  H   UNL     1     -14.833  -9.364  -5.678  1.00  0.00     0.222 HD
ENDBRANCH  43  45
BRANCH  43  47
HETATM   47  O   UNL     1     -14.542 -11.691  -4.700  1.00  0.00    -0.307 OA
HETATM   48  H   UNL     1     -13.617 -11.791  -4.990  1.00  0.00     0.222 HD
ENDBRANCH  43  47
ENDBRANCH  42  43
ENDBRANCH   4  42
TORSDOF 24
ENDMDL
MODEL 6
REMARK VINA RESULT:      -4.0      2.013      5.560
REMARK  24 active torsions:
REMARK  status: ('A' for Active; 'I' for Inactive)
REMARK    1  A    between atoms: C_1  and  O_32 
REMARK    2  A    between atoms: C_2  and  O_27 
REMARK    3  A    between atoms: C_3  and  O_22 
REMARK    4  A    between atoms: C_4  and  O_17 
REMARK    5  A    between atoms: C_5  and  O_12 
REMARK    6  A    between atoms: C_6  and  O_7 
REMARK    7  A    between atoms: O_7  and  P_8 
REMARK    8  A    between atoms: P_8  and  O_10 
REMARK    9  A    between atoms: P_8  and  O_11 
REMARK   10  A    between atoms: O_12  and  P_13 
REMARK   11  A    between atoms: P_13  and  O_15 
REMARK   12  A    between atoms: P_13  and  O_16 
REMARK   13  A    between atoms: O_17  and  P_18 
REMARK   14  A    between atoms: P_18  and  O_20 
REMARK   15  A    between atoms: P_18  and  O_21 
REMARK   16  A    between atoms: O_22  and  P_23 
REMARK   17  A    between atoms: P_23  and  O_25 
REMARK   18  A    between atoms: P_23  and  O_26 
REMARK   19  A    between atoms: O_27  and  P_28 
REMARK   20  A    between atoms: P_28  and  O_30 
REMARK   21  A    between atoms: P_28  and  O_31 
REMARK   22  A    between atoms: O_32  and  P_33 
REMARK   23  A    between atoms: P_33  and  O_35 
REMARK   24  A    between atoms: P_33  and  O_36 
ROOT
HETATM    1  C   UNL     1     -18.530 -11.412  -1.950  1.00  0.00     0.198 C 
HETATM    2  C   UNL     1     -20.009 -10.987  -1.860  1.00  0.00     0.198 C 
HETATM    3  C   UNL     1     -20.514 -10.651  -3.295  1.00  0.00     0.198 C 
HETATM    4  C   UNL     1     -20.515 -11.939  -4.118  1.00  0.00     0.198 C 
HETATM    5  C   UNL     1     -19.090 -12.531  -4.214  1.00  0.00     0.198 C 
HETATM    6  C   UNL     1     -18.462 -12.688  -2.800  1.00  0.00     0.198 C 
ENDROOT
BRANCH   1   7
HETATM    7  O   UNL     1     -18.054 -11.607  -0.618  1.00  0.00    -0.286 OA
BRANCH   7   8
HETATM    8  P   UNL     1     -16.585 -12.145  -0.304  1.00  0.00     0.391 P 
HETATM    9  O   UNL     1     -15.524 -11.689  -1.241  1.00  0.00    -0.632 OA
BRANCH   8  10
HETATM   10  O   UNL     1     -16.331 -11.662   1.194  1.00  0.00    -0.307 OA
HETATM   11  H   UNL     1     -15.860 -10.807   1.219  1.00  0.00     0.222 HD
ENDBRANCH   8  10
BRANCH   8  12
HETATM   12  O   UNL     1     -16.674 -13.726  -0.125  1.00  0.00    -0.307 OA
HETATM   13  H   UNL     1     -15.851 -14.146  -0.440  1.00  0.00     0.222 HD
ENDBRANCH   8  12
ENDBRANCH   7   8
ENDBRANCH   1   7
BRANCH   2  14
HETATM   14  O   UNL     1     -20.137  -9.864  -0.985  1.00  0.00    -0.286 OA
BRANCH  14  15
HETATM   15  P   UNL     1     -21.332  -9.848   0.087  1.00  0.00     0.391 P 
HETATM   16  O   UNL     1     -21.133  -8.972   1.274  1.00  0.00    -0.632 OA
BRANCH  15  17
HETATM   17  O   UNL     1     -22.714  -9.685  -0.676  1.00  0.00    -0.307 OA
HETATM   18  H   UNL     1     -23.264  -8.980  -0.289  1.00  0.00     0.222 HD
ENDBRANCH  15  17
BRANCH  15  19
HETATM   19  O   UNL     1     -21.404 -11.379   0.531  1.00  0.00    -0.307 OA
HETATM   20  H   UNL     1     -21.291 -11.453   1.499  1.00  0.00     0.222 HD
ENDBRANCH  15  19
ENDBRANCH  14  15
ENDBRANCH   2  14
BRANCH   6  21
HETATM   21  O   UNL     1     -19.154 -13.691  -2.061  1.00  0.00    -0.286 OA
BRANCH  21  22
HETATM   22  P   UNL     1     -18.848 -15.267  -2.705  1.00  0.00     0.391 P 
HETATM   23  O   UNL     1     -18.481 -15.818  -1.330  1.00  0.00    -0.632 OA
BRANCH  22  24
HETATM   24  O   UNL     1     -20.451 -15.542  -2.788  1.00  0.00    -0.307 OA
HETATM   25  H   UNL     1     -20.627 -16.364  -2.292  1.00  0.00     0.222 HD
ENDBRANCH  22  24
BRANCH  22  26
HETATM   26  O   UNL     1     -18.543 -16.842  -3.349  1.00  0.00    -0.307 OA
HETATM   27  H   UNL     1     -17.584 -16.969  -3.196  1.00  0.00     0.222 HD
ENDBRANCH  22  26
ENDBRANCH  21  22
ENDBRANCH   6  21
BRANCH   3  28
HETATM   28  O   UNL     1     -19.658  -9.690  -3.954  1.00  0.00    -0.286 OA
BRANCH  28  29
HETATM   29  P   UNL     1     -20.595  -8.253  -4.178  1.00  0.00     0.391 P 
HETATM   30  O   UNL     1     -20.709  -8.556  -5.668  1.00  0.00    -0.632 OA
BRANCH  29  31
HETATM   31  O   UNL     1     -21.879  -8.955  -3.477  1.00  0.00    -0.307 OA
HETATM   32  H   UNL     1     -21.644  -9.898  -3.379  1.00  0.00     0.222 HD
ENDBRANCH  29  31
BRANCH  29  33
HETATM   33  O   UNL     1     -21.532  -6.816  -4.404  1.00  0.00    -0.307 OA
HETATM   34  H   UNL     1     -20.970  -6.117  -4.782  1.00  0.00     0.222 HD
ENDBRANCH  29  33
ENDBRANCH  28  29
ENDBRANCH   3  28
BRANCH   5  35
HETATM   35  O   UNL     1     -18.243 -11.742  -5.035  1.00  0.00    -0.286 OA
BRANCH  35  36
HETATM   36  P   UNL     1     -17.826 -12.328  -6.460  1.00  0.00     0.391 P 
HETATM   37  O   UNL     1     -16.374 -12.240  -6.802  1.00  0.00    -0.632 OA
BRANCH  36  38
HETATM   38  O   UNL     1     -18.437 -13.795  -6.480  1.00  0.00    -0.307 OA
HETATM   39  H   UNL     1     -17.737 -14.458  -6.630  1.00  0.00     0.222 HD
ENDBRANCH  36  38
BRANCH  36  40
HETATM   40  O   UNL     1     -18.766 -11.563  -7.487  1.00  0.00    -0.307 OA
HETATM   41  H   UNL     1     -19.319 -12.174  -8.005  1.00  0.00     0.222 HD
ENDBRANCH  36  40
ENDBRANCH  35  36
ENDBRANCH   5  35
BRANCH   4  42
HETATM   42  O   UNL     1     -21.086 -11.772  -5.411  1.00  0.00    -0.286 OA
BRANCH  42  43
HETATM   43  P   UNL     1     -21.872 -13.000  -6.071  1.00  0.00     0.391 P 
HETATM   44  O   UNL     1     -23.357 -12.895  -6.094  1.00  0.00    -0.632 OA
BRANCH  43  45
HETATM   45  O   UNL     1     -21.266 -13.185  -7.538  1.00  0.00    -0.307 OA
HETATM   46  H   UNL     1     -21.953 -13.025  -8.212  1.00  0.00     0.222 HD
ENDBRANCH  43  45
BRANCH  43  47
HETATM   47  O   UNL     1     -21.380 -14.323  -5.331  1.00  0.00    -0.307 OA
HETATM   48  H   UNL     1     -20.999 -14.125  -4.456  1.00  0.00     0.222 HD
ENDBRANCH  43  47
ENDBRANCH  42  43
ENDBRANCH   4  42
TORSDOF 24
ENDMDL
MODEL 7
REMARK VINA RESULT:      -3.9      1.049      6.118
REMARK  24 active torsions:
REMARK  status: ('A' for Active; 'I' for Inactive)
REMARK    1  A    between atoms: C_1  and  O_32 
REMARK    2  A    between atoms: C_2  and  O_27 
REMARK    3  A    between atoms: C_3  and  O_22 
REMARK    4  A    between atoms: C_4  and  O_17 
REMARK    5  A    between atoms: C_5  and  O_12 
REMARK    6  A    between atoms: C_6  and  O_7 
REMARK    7  A    between atoms: O_7  and  P_8 
REMARK    8  A    between atoms: P_8  and  O_10 
REMARK    9  A    between atoms: P_8  and  O_11 
REMARK   10  A    between atoms: O_12  and  P_13 
REMARK   11  A    between atoms: P_13  and  O_15 
REMARK   12  A    between atoms: P_13  and  O_16 
REMARK   13  A    between atoms: O_17  and  P_18 
REMARK   14  A    between atoms: P_18  and  O_20 
REMARK   15  A    between atoms: P_18  and  O_21 
REMARK   16  A    between atoms: O_22  and  P_23 
REMARK   17  A    between atoms: P_23  and  O_25 
REMARK   18  A    between atoms: P_23  and  O_26 
REMARK   19  A    between atoms: O_27  and  P_28 
REMARK   20  A    between atoms: P_28  and  O_30 
REMARK   21  A    between atoms: P_28  and  O_31 
REMARK   22  A    between atoms: O_32  and  P_33 
REMARK   23  A    between atoms: P_33  and  O_35 
REMARK   24  A    between atoms: P_33  and  O_36 
ROOT
HETATM    1  C   UNL     1     -18.821 -12.116  -2.844  1.00  0.00     0.198 C 
HETATM    2  C   UNL     1     -18.390 -10.638  -2.912  1.00  0.00     0.198 C 
HETATM    3  C   UNL     1     -19.670  -9.750  -2.934  1.00  0.00     0.198 C 
HETATM    4  C   UNL     1     -20.381  -9.900  -1.590  1.00  0.00     0.198 C 
HETATM    5  C   UNL     1     -20.794 -11.370  -1.347  1.00  0.00     0.198 C 
HETATM    6  C   UNL     1     -19.577 -12.321  -1.524  1.00  0.00     0.198 C 
ENDROOT
BRANCH   1   7
HETATM    7  O   UNL     1     -17.642 -12.915  -2.937  1.00  0.00    -0.286 OA
BRANCH   7   8
HETATM    8  P   UNL     1     -17.568 -14.231  -3.838  1.00  0.00     0.391 P 
HETATM    9  O   UNL     1     -16.323 -14.390  -4.634  1.00  0.00    -0.632 OA
BRANCH   8  10
HETATM   10  O   UNL     1     -17.780 -15.408  -2.784  1.00  0.00    -0.307 OA
HETATM   11  H   UNL     1     -17.899 -16.269  -3.228  1.00  0.00     0.222 HD
ENDBRANCH   8  10
BRANCH   8  12
HETATM   12  O   UNL     1     -18.912 -14.313  -4.691  1.00  0.00    -0.307 OA
HETATM   13  H   UNL     1     -19.372 -13.452  -4.676  1.00  0.00     0.222 HD
ENDBRANCH   8  12
ENDBRANCH   7   8
ENDBRANCH   1   7
BRANCH   2  14
HETATM   14  O   UNL     1     -17.584 -10.422  -4.073  1.00  0.00    -0.286 OA
BRANCH  14  15
HETATM   15  P   UNL     1     -16.024 -10.095  -3.886  1.00  0.00     0.391 P 
HETATM   16  O   UNL     1     -15.685  -9.119  -2.816  1.00  0.00    -0.632 OA
BRANCH  15  17
HETATM   17  O   UNL     1     -15.205 -11.456  -3.873  1.00  0.00    -0.307 OA
HETATM   18  H   UNL     1     -15.207 -11.892  -4.745  1.00  0.00     0.222 HD
ENDBRANCH  15  17
BRANCH  15  19
HETATM   19  O   UNL     1     -15.630  -9.512  -5.318  1.00  0.00    -0.307 OA
HETATM   20  H   UNL     1     -15.200  -8.641  -5.218  1.00  0.00     0.222 HD
ENDBRANCH  15  19
ENDBRANCH  14  15
ENDBRANCH   2  14
BRANCH   6  21
HETATM   21  O   UNL     1     -18.625 -12.102  -0.487  1.00  0.00    -0.286 OA
BRANCH  21  22
HETATM   22  P   UNL     1     -18.382 -13.534   0.453  1.00  0.00     0.391 P 
HETATM   23  O   UNL     1     -19.381 -14.323  -0.390  1.00  0.00    -0.632 OA
BRANCH  22  24
HETATM   24  O   UNL     1     -16.972 -13.799  -0.317  1.00  0.00    -0.307 OA
HETATM   25  H   UNL     1     -16.454 -12.974  -0.259  1.00  0.00     0.222 HD
ENDBRANCH  22  24
BRANCH  22  26
HETATM   26  O   UNL     1     -18.139 -14.965   1.393  1.00  0.00    -0.307 OA
HETATM   27  H   UNL     1     -17.347 -15.373   0.987  1.00  0.00     0.222 HD
ENDBRANCH  22  26
ENDBRANCH  21  22
ENDBRANCH   6  21
BRANCH   3  28
HETATM   28  O   UNL     1     -20.583 -10.152  -3.980  1.00  0.00    -0.286 OA
BRANCH  28  29
HETATM   29  P   UNL     1     -20.690  -8.829  -5.091  1.00  0.00     0.391 P 
HETATM   30  O   UNL     1     -21.218  -9.771  -6.167  1.00  0.00    -0.632 OA
BRANCH  29  31
HETATM   31  O   UNL     1     -21.994  -8.256  -4.315  1.00  0.00    -0.307 OA
HETATM   32  H   UNL     1     -22.473  -7.711  -4.969  1.00  0.00     0.222 HD
ENDBRANCH  29  31
BRANCH  29  33
HETATM   33  O   UNL     1     -20.796  -7.507  -6.201  1.00  0.00    -0.307 OA
HETATM   34  H   UNL     1     -20.041  -6.909  -6.069  1.00  0.00     0.222 HD
ENDBRANCH  29  33
ENDBRANCH  28  29
ENDBRANCH   3  28
BRANCH   5  35
HETATM   35  O   UNL     1     -21.852 -11.771  -2.205  1.00  0.00    -0.286 OA
BRANCH  35  36
HETATM   36  P   UNL     1     -22.927 -12.803  -1.634  1.00  0.00     0.391 P 
HETATM   37  O   UNL     1     -23.266 -13.953  -2.526  1.00  0.00    -0.632 OA
BRANCH  36  38
HETATM   38  O   UNL     1     -22.372 -13.202  -0.199  1.00  0.00    -0.307 OA
HETATM   39  H   UNL     1     -21.606 -12.648   0.040  1.00  0.00     0.222 HD
ENDBRANCH  36  38
BRANCH  36  40
HETATM   40  O   UNL     1     -24.179 -11.897  -1.266  1.00  0.00    -0.307 OA
HETATM   41  H   UNL     1     -25.001 -12.414  -1.202  1.00  0.00     0.222 HD
ENDBRANCH  36  40
ENDBRANCH  35  36
ENDBRANCH   5  35
BRANCH   4  42
HETATM   42  O   UNL     1     -21.497  -9.027  -1.451  1.00  0.00    -0.286 OA
BRANCH  42  43
HETATM   43  P   UNL     1     -22.057  -8.719   0.016  1.00  0.00     0.391 P 
HETATM   44  O   UNL     1     -21.127  -8.990   1.146  1.00  0.00    -0.632 OA
BRANCH  43  45
HETATM   45  O   UNL     1     -22.547  -7.197  -0.001  1.00  0.00    -0.307 OA
HETATM   46  H   UNL     1     -23.511  -7.149   0.136  1.00  0.00     0.222 HD
ENDBRANCH  43  45
BRANCH  43  47
HETATM   47  O   UNL     1     -23.429  -9.514   0.169  1.00  0.00    -0.307 OA
HETATM   48  H   UNL     1     -24.178  -9.017  -0.206  1.00  0.00     0.222 HD
ENDBRANCH  43  47
ENDBRANCH  42  43
ENDBRANCH   4  42
TORSDOF 24
ENDMDL
MODEL 8
REMARK VINA RESULT:      -3.9      1.762      6.142
REMARK  24 active torsions:
REMARK  status: ('A' for Active; 'I' for Inactive)
REMARK    1  A    between atoms: C_1  and  O_32 
REMARK    2  A    between atoms: C_2  and  O_27 
REMARK    3  A    between atoms: C_3  and  O_22 
REMARK    4  A    between atoms: C_4  and  O_17 
REMARK    5  A    between atoms: C_5  and  O_12 
REMARK    6  A    between atoms: C_6  and  O_7 
REMARK    7  A    between atoms: O_7  and  P_8 
REMARK    8  A    between atoms: P_8  and  O_10 
REMARK    9  A    between atoms: P_8  and  O_11 
REMARK   10  A    between atoms: O_12  and  P_13 
REMARK   11  A    between atoms: P_13  and  O_15 
REMARK   12  A    between atoms: P_13  and  O_16 
REMARK   13  A    between atoms: O_17  and  P_18 
REMARK   14  A    between atoms: P_18  and  O_20 
REMARK   15  A    between atoms: P_18  and  O_21 
REMARK   16  A    between atoms: O_22  and  P_23 
REMARK   17  A    between atoms: P_23  and  O_25 
REMARK   18  A    between atoms: P_23  and  O_26 
REMARK   19  A    between atoms: O_27  and  P_28 
REMARK   20  A    between atoms: P_28  and  O_30 
REMARK   21  A    between atoms: P_28  and  O_31 
REMARK   22  A    between atoms: O_32  and  P_33 
REMARK   23  A    between atoms: P_33  and  O_35 
REMARK   24  A    between atoms: P_33  and  O_36 
ROOT
HETATM    1  C   UNL     1     -17.571 -12.958  -2.341  1.00  0.00     0.198 C 
HETATM    2  C   UNL     1     -17.686 -11.609  -3.077  1.00  0.00     0.198 C 
HETATM    3  C   UNL     1     -19.181 -11.170  -3.074  1.00  0.00     0.198 C 
HETATM    4  C   UNL     1     -19.592 -10.877  -1.632  1.00  0.00     0.198 C 
HETATM    5  C   UNL     1     -19.437 -12.137  -0.750  1.00  0.00     0.198 C 
HETATM    6  C   UNL     1     -18.008 -12.735  -0.887  1.00  0.00     0.198 C 
ENDROOT
BRANCH   1   7
HETATM    7  O   UNL     1     -16.217 -13.398  -2.451  1.00  0.00    -0.286 OA
BRANCH   7   8
HETATM    8  P   UNL     1     -15.826 -14.937  -2.607  1.00  0.00     0.391 P 
HETATM    9  O   UNL     1     -14.747 -15.225  -3.588  1.00  0.00    -0.632 OA
BRANCH   8  10
HETATM   10  O   UNL     1     -15.439 -15.369  -1.123  1.00  0.00    -0.307 OA
HETATM   11  H   UNL     1     -16.221 -15.381  -0.538  1.00  0.00     0.222 HD
ENDBRANCH   8  10
BRANCH   8  12
HETATM   12  O   UNL     1     -17.171 -15.759  -2.845  1.00  0.00    -0.307 OA
HETATM   13  H   UNL     1     -16.979 -16.583  -3.331  1.00  0.00     0.222 HD
ENDBRANCH   8  12
ENDBRANCH   7   8
ENDBRANCH   1   7
BRANCH   2  14
HETATM   14  O   UNL     1     -17.182 -11.741  -4.409  1.00  0.00    -0.286 OA
BRANCH  14  15
HETATM   15  P   UNL     1     -16.208 -10.604  -4.987  1.00  0.00     0.391 P 
HETATM   16  O   UNL     1     -14.878 -11.066  -5.468  1.00  0.00    -0.632 OA
BRANCH  15  17
HETATM   17  O   UNL     1     -17.025  -9.674  -5.981  1.00  0.00    -0.307 OA
HETATM   18  H   UNL     1     -17.987  -9.768  -5.862  1.00  0.00     0.222 HD
ENDBRANCH  15  17
BRANCH  15  19
HETATM   19  O   UNL     1     -16.040  -9.637  -3.729  1.00  0.00    -0.307 OA
HETATM   20  H   UNL     1     -15.557 -10.097  -3.015  1.00  0.00     0.222 HD
ENDBRANCH  15  19
ENDBRANCH  14  15
ENDBRANCH   2  14
BRANCH   6  21
HETATM   21  O   UNL     1     -17.047 -11.851  -0.318  1.00  0.00    -0.286 OA
BRANCH  21  22
HETATM   22  P   UNL     1     -16.327 -12.535   1.098  1.00  0.00     0.391 P 
HETATM   23  O   UNL     1     -17.084 -13.848   0.916  1.00  0.00    -0.632 OA
BRANCH  22  24
HETATM   24  O   UNL     1     -14.949 -12.796   0.270  1.00  0.00    -0.307 OA
HETATM   25  H   UNL     1     -15.064 -13.630  -0.223  1.00  0.00     0.222 HD
ENDBRANCH  22  24
BRANCH  22  26
HETATM   26  O   UNL     1     -15.607 -13.220   2.514  1.00  0.00    -0.307 OA
HETATM   27  H   UNL     1     -14.880 -12.598   2.724  1.00  0.00     0.222 HD
ENDBRANCH  22  26
ENDBRANCH  21  22
ENDBRANCH   6  21
BRANCH   3  28
HETATM   28  O   UNL     1     -20.044 -12.207  -3.593  1.00  0.00    -0.286 OA
BRANCH  28  29
HETATM   29  P   UNL     1     -20.656 -11.639  -5.109  1.00  0.00     0.391 P 
HETATM   30  O   UNL     1     -22.020 -11.397  -4.471  1.00  0.00    -0.632 OA
BRANCH  29  31
HETATM   31  O   UNL     1     -19.830 -10.252  -4.947  1.00  0.00    -0.307 OA
HETATM   32  H   UNL     1     -19.155 -10.262  -5.653  1.00  0.00     0.222 HD
ENDBRANCH  29  31
BRANCH  29  33
HETATM   33  O   UNL     1     -21.269 -11.072  -6.624  1.00  0.00    -0.307 OA
HETATM   34  H   UNL     1     -21.876 -11.733  -6.998  1.00  0.00     0.222 HD
ENDBRANCH  29  33
ENDBRANCH  28  29
ENDBRANCH   3  28
BRANCH   5  35
HETATM   35  O   UNL     1     -20.408 -13.125  -1.062  1.00  0.00    -0.286 OA
BRANCH  35  36
HETATM   36  P   UNL     1     -21.423 -13.566   0.087  1.00  0.00     0.391 P 
HETATM   37  O   UNL     1     -20.916 -14.592   1.048  1.00  0.00    -0.632 OA
BRANCH  36  38
HETATM   38  O   UNL     1     -21.895 -12.198   0.747  1.00  0.00    -0.307 OA
HETATM   39  H   UNL     1     -22.862 -12.096   0.673  1.00  0.00     0.222 HD
ENDBRANCH  36  38
BRANCH  36  40
HETATM   40  O   UNL     1     -22.726 -14.023  -0.698  1.00  0.00    -0.307 OA
HETATM   41  H   UNL     1     -23.423 -14.345  -0.099  1.00  0.00     0.222 HD
ENDBRANCH  36  40
ENDBRANCH  35  36
ENDBRANCH   5  35
BRANCH   4  42
HETATM   42  O   UNL     1     -20.905 -10.339  -1.528  1.00  0.00    -0.286 OA
BRANCH  42  43
HETATM   43  P   UNL     1     -21.124  -8.778  -1.806  1.00  0.00     0.391 P 
HETATM   44  O   UNL     1     -19.934  -7.904  -1.618  1.00  0.00    -0.632 OA
BRANCH  43  45
HETATM   45  O   UNL     1     -21.719  -8.664  -3.285  1.00  0.00    -0.307 OA
HETATM   46  H   UNL     1     -21.994  -9.542  -3.609  1.00  0.00     0.222 HD
ENDBRANCH  43  45
BRANCH  43  47
HETATM   47  O   UNL     1     -22.354  -8.311  -0.908  1.00  0.00    -0.307 OA
HETATM   48  H   UNL     1     -23.084  -8.955  -0.934  1.00  0.00     0.222 HD
ENDBRANCH  43  47
ENDBRANCH  42  43
ENDBRANCH   4  42
TORSDOF 24
ENDMDL
MODEL 9
REMARK VINA RESULT:      -3.9      1.764      6.448
REMARK  24 active torsions:
REMARK  status: ('A' for Active; 'I' for Inactive)
REMARK    1  A    between atoms: C_1  and  O_32 
REMARK    2  A    between atoms: C_2  and  O_27 
REMARK    3  A    between atoms: C_3  and  O_22 
REMARK    4  A    between atoms: C_4  and  O_17 
REMARK    5  A    between atoms: C_5  and  O_12 
REMARK    6  A    between atoms: C_6  and  O_7 
REMARK    7  A    between atoms: O_7  and  P_8 
REMARK    8  A    between atoms: P_8  and  O_10 
REMARK    9  A    between atoms: P_8  and  O_11 
REMARK   10  A    between atoms: O_12  and  P_13 
REMARK   11  A    between atoms: P_13  and  O_15 
REMARK   12  A    between atoms: P_13  and  O_16 
REMARK   13  A    between atoms: O_17  and  P_18 
REMARK   14  A    between atoms: P_18  and  O_20 
REMARK   15  A    between atoms: P_18  and  O_21 
REMARK   16  A    between atoms: O_22  and  P_23 
REMARK   17  A    between atoms: P_23  and  O_25 
REMARK   18  A    between atoms: P_23  and  O_26 
REMARK   19  A    between atoms: O_27  and  P_28 
REMARK   20  A    between atoms: P_28  and  O_30 
REMARK   21  A    between atoms: P_28  and  O_31 
REMARK   22  A    between atoms: O_32  and  P_33 
REMARK   23  A    between atoms: P_33  and  O_35 
REMARK   24  A    between atoms: P_33  and  O_36 
ROOT
HETATM    1  C   UNL     1     -17.804 -11.776  -3.396  1.00  0.00     0.198 C 
HETATM    2  C   UNL     1     -17.588 -13.084  -2.610  1.00  0.00     0.198 C 
HETATM    3  C   UNL     1     -18.155 -12.896  -1.171  1.00  0.00     0.198 C 
HETATM    4  C   UNL     1     -19.670 -12.732  -1.269  1.00  0.00     0.198 C 
HETATM    5  C   UNL     1     -20.035 -11.492  -2.118  1.00  0.00     0.198 C 
HETATM    6  C   UNL     1     -19.317 -11.536  -3.496  1.00  0.00     0.198 C 
ENDROOT
BRANCH   1   7
HETATM    7  O   UNL     1     -17.181 -11.928  -4.671  1.00  0.00    -0.286 OA
BRANCH   7   8
HETATM    8  P   UNL     1     -16.439 -10.725  -5.411  1.00  0.00     0.391 P 
HETATM    9  O   UNL     1     -15.367 -11.125  -6.361  1.00  0.00    -0.632 OA
BRANCH   8  10
HETATM   10  O   UNL     1     -17.631  -9.941  -6.122  1.00  0.00    -0.307 OA
HETATM   11  H   UNL     1     -18.409 -10.517  -6.253  1.00  0.00     0.222 HD
ENDBRANCH   8  10
BRANCH   8  12
HETATM   12  O   UNL     1     -15.979  -9.679  -4.299  1.00  0.00    -0.307 OA
HETATM   13  H   UNL     1     -15.034  -9.462  -4.413  1.00  0.00     0.222 HD
ENDBRANCH   8  12
ENDBRANCH   7   8
ENDBRANCH   1   7
BRANCH   2  14
HETATM   14  O   UNL     1     -16.196 -13.409  -2.586  1.00  0.00    -0.286 OA
BRANCH  14  15
HETATM   15  P   UNL     1     -15.760 -14.951  -2.491  1.00  0.00     0.391 P 
HETATM   16  O   UNL     1     -16.849 -15.950  -2.662  1.00  0.00    -0.632 OA
BRANCH  15  17
HETATM   17  O   UNL     1     -14.459 -15.180  -3.371  1.00  0.00    -0.307 OA
HETATM   18  H   UNL     1     -14.281 -16.126  -3.521  1.00  0.00     0.222 HD
ENDBRANCH  15  17
BRANCH  15  19
HETATM   19  O   UNL     1     -15.153 -15.036  -1.017  1.00  0.00    -0.307 OA
HETATM   20  H   UNL     1     -15.711 -14.529  -0.396  1.00  0.00     0.222 HD
ENDBRANCH  15  19
ENDBRANCH  14  15
ENDBRANCH   2  14
BRANCH   6  21
HETATM   21  O   UNL     1     -19.833 -12.603  -4.288  1.00  0.00    -0.286 OA
BRANCH  21  22
HETATM   22  P   UNL     1     -20.725 -12.004  -5.643  1.00  0.00     0.391 P 
HETATM   23  O   UNL     1     -20.483 -10.554  -5.231  1.00  0.00    -0.632 OA
BRANCH  22  24
HETATM   24  O   UNL     1     -19.457 -12.318  -6.615  1.00  0.00    -0.307 OA
HETATM   25  H   UNL     1     -19.155 -13.224  -6.410  1.00  0.00     0.222 HD
ENDBRANCH  22  24
BRANCH  22  26
HETATM   26  O   UNL     1     -21.617 -11.405  -6.998  1.00  0.00    -0.307 OA
HETATM   27  H   UNL     1     -22.317 -12.077  -7.125  1.00  0.00     0.222 HD
ENDBRANCH  22  26
ENDBRANCH  21  22
ENDBRANCH   6  21
BRANCH   3  28
HETATM   28  O   UNL     1     -17.609 -11.720  -0.530  1.00  0.00    -0.286 OA
BRANCH  28  29
HETATM   29  P   UNL     1     -16.723 -12.266   0.852  1.00  0.00     0.391 P 
HETATM   30  O   UNL     1     -17.267 -13.676   0.648  1.00  0.00    -0.632 OA
BRANCH  29  31
HETATM   31  O   UNL     1     -15.334 -12.194   0.017  1.00  0.00    -0.307 OA
HETATM   32  H   UNL     1     -15.241 -13.064  -0.418  1.00  0.00     0.222 HD
ENDBRANCH  29  31
BRANCH  29  33
HETATM   33  O   UNL     1     -15.838 -12.813   2.235  1.00  0.00    -0.307 OA
HETATM   34  H   UNL     1     -14.895 -12.886   2.010  1.00  0.00     0.222 HD
ENDBRANCH  29  33
ENDBRANCH  28  29
ENDBRANCH   3  28
BRANCH   5  35
HETATM   35  O   UNL     1     -19.723 -10.281  -1.447  1.00  0.00    -0.286 OA
BRANCH  35  36
HETATM   36  P   UNL     1     -20.815  -9.117  -1.457  1.00  0.00     0.391 P 
HETATM   37  O   UNL     1     -20.289  -7.730  -1.637  1.00  0.00    -0.632 OA
BRANCH  36  38
HETATM   38  O   UNL     1     -21.880  -9.581  -2.542  1.00  0.00    -0.307 OA
HETATM   39  H   UNL     1     -22.641 -10.016  -2.114  1.00  0.00     0.222 HD
ENDBRANCH  36  38
BRANCH  36  40
HETATM   40  O   UNL     1     -21.614  -9.320  -0.100  1.00  0.00    -0.307 OA
HETATM   41  H   UNL     1     -22.327  -8.667   0.009  1.00  0.00     0.222 HD
ENDBRANCH  36  40
ENDBRANCH  35  36
ENDBRANCH   5  35
BRANCH   4  42
HETATM   42  O   UNL     1     -20.307 -12.685   0.003  1.00  0.00    -0.286 OA
BRANCH  42  43
HETATM   43  P   UNL     1     -21.854 -13.083   0.105  1.00  0.00     0.391 P 
HETATM   44  O   UNL     1     -22.831 -11.968  -0.028  1.00  0.00    -0.632 OA
BRANCH  43  45
HETATM   45  O   UNL     1     -22.098 -14.223  -0.989  1.00  0.00    -0.307 OA
HETATM   46  H   UNL     1     -22.941 -14.683  -0.818  1.00  0.00     0.222 HD
ENDBRANCH  43  45
BRANCH  43  47
HETATM   47  O   UNL     1     -22.042 -13.880   1.473  1.00  0.00    -0.307 OA
HETATM   48  H   UNL     1     -21.804 -13.333   2.243  1.00  0.00     0.222 HD
ENDBRANCH  43  47
ENDBRANCH  42  43
ENDBRANCH   4  42
TORSDOF 24
ENDMDL
