MODEL 1
REMARK VINA RESULT:      -1.3      0.000      0.000
REMARK  0 active torsions:
REMARK  status: ('A' for Active; 'I' for Inactive)
ROOT
HETATM    1 NA   UNL     2     -32.324  -8.576   4.529  1.00  0.00     0.000 Na
ENDROOT
TORSDOF 0
ENDMDL
MODEL 2
REMARK VINA RESULT:      -1.3     23.494     23.494
REMARK  0 active torsions:
REMARK  status: ('A' for Active; 'I' for Inactive)
ROOT
HETATM    1 NA   UNL     2     -11.257   1.620   2.468  1.00  0.00     0.000 Na
ENDROOT
TORSDOF 0
ENDMDL
MODEL 3
REMARK VINA RESULT:      -1.2     19.033     19.033
REMARK  0 active torsions:
REMARK  status: ('A' for Active; 'I' for Inactive)
ROOT
HETATM    1 NA   UNL     2     -27.015 -13.665 -13.026  1.00  0.00     0.000 Na
ENDROOT
TORSDOF 0
ENDMDL
MODEL 4
REMARK VINA RESULT:      -1.2     22.209     22.209
REMARK  0 active torsions:
REMARK  status: ('A' for Active; 'I' for Inactive)
ROOT
HETATM    1 NA   UNL     2     -25.113   0.407 -14.459  1.00  0.00     0.000 Na
ENDROOT
TORSDOF 0
ENDMDL
MODEL 5
REMARK VINA RESULT:      -1.2     14.868     14.868
REMARK  0 active torsions:
REMARK  status: ('A' for Active; 'I' for Inactive)
ROOT
HETATM    1 NA   UNL     2     -27.298  -5.624  -9.149  1.00  0.00     0.000 Na
ENDROOT
TORSDOF 0
ENDMDL
MODEL 6
REMARK VINA RESULT:      -1.1     12.328     12.328
REMARK  0 active torsions:
REMARK  status: ('A' for Active; 'I' for Inactive)
ROOT
HETATM    1 NA   UNL     2     -25.223  -5.220  -4.974  1.00  0.00     0.000 Na
ENDROOT
TORSDOF 0
ENDMDL
MODEL 7
REMARK VINA RESULT:      -1.1     27.173     27.173
REMARK  0 active torsions:
REMARK  status: ('A' for Active; 'I' for Inactive)
ROOT
HETATM    1 NA   UNL     2     -11.561   1.297  -9.956  1.00  0.00     0.000 Na
ENDROOT
TORSDOF 0
ENDMDL
MODEL 8
REMARK VINA RESULT:      -1.0      9.904      9.904
REMARK  0 active torsions:
REMARK  status: ('A' for Active; 'I' for Inactive)
ROOT
HETATM    1 NA   UNL     2     -32.732  -6.044  -5.037  1.00  0.00     0.000 Na
ENDROOT
TORSDOF 0
ENDMDL
MODEL 9
REMARK VINA RESULT:      -1.0     25.517     25.517
REMARK  0 active torsions:
REMARK  status: ('A' for Active; 'I' for Inactive)
ROOT
HETATM    1 NA   UNL     2     -23.196   0.210 -17.621  1.00  0.00     0.000 Na
ENDROOT
TORSDOF 0
ENDMDL
