MODEL 1
REMARK VINA RESULT:      -6.8      0.000      0.000
REMARK  5 active torsions:
REMARK  status: ('A' for Active; 'I' for Inactive)
REMARK    1  A    between atoms: C_2  and  C_3 
REMARK    2  A    between atoms: C_3  and  C_4 
REMARK    3  A    between atoms: C_4  and  C_5 
REMARK    4  A    between atoms: C_6  and  O_12 
REMARK    5  A    between atoms: C_8  and  O_11 
ROOT
HETATM    1  C   UNL     1     -22.950  -3.827  -9.746  1.00  0.00    -0.025 A 
HETATM    2  C   UNL     1     -24.007  -3.402 -10.565  1.00  0.00     0.074 A 
HETATM    3  C   UNL     1     -23.819  -3.157 -11.927  1.00  0.00     0.073 A 
HETATM    4  C   UNL     1     -22.567  -3.349 -12.496  1.00  0.00     0.068 A 
HETATM    5  C   UNL     1     -21.503  -3.785 -11.722  1.00  0.00     0.037 A 
HETATM    6  C   UNL     1     -21.696  -4.028 -10.358  1.00  0.00     0.012 A 
ENDROOT
BRANCH   1   7
HETATM    7  C   UNL     1     -23.080  -4.100  -8.262  1.00  0.00     0.041 C 
BRANCH   7   8
HETATM    8  C   UNL     1     -21.793  -3.809  -7.478  1.00  0.00     0.004 C 
BRANCH   8   9
HETATM    9  C   UNL     1     -21.336  -5.027  -6.671  1.00  0.00    -0.004 C 
HETATM   10  C   UNL     1     -20.074  -4.718  -5.881  1.00  0.00     0.005 C 
ENDBRANCH   8   9
ENDBRANCH   7   8
ENDBRANCH   1   7
BRANCH   2  11
HETATM   11  O   UNL     1     -25.283  -3.193 -10.120  1.00  0.00    -0.360 OA
HETATM   12  H   UNL     1     -25.338  -3.376  -9.172  1.00  0.00     0.217 HD
ENDBRANCH   2  11
BRANCH   4  13
HETATM   13  O   UNL     1     -22.344  -3.123 -13.822  1.00  0.00    -0.361 OA
HETATM   14  H   UNL     1     -23.194  -3.183 -14.290  1.00  0.00     0.217 HD
ENDBRANCH   4  13
TORSDOF 5
ENDMDL
MODEL 2
REMARK VINA RESULT:      -6.6     11.664     12.218
REMARK  5 active torsions:
REMARK  status: ('A' for Active; 'I' for Inactive)
REMARK    1  A    between atoms: C_2  and  C_3 
REMARK    2  A    between atoms: C_3  and  C_4 
REMARK    3  A    between atoms: C_4  and  C_5 
REMARK    4  A    between atoms: C_6  and  O_12 
REMARK    5  A    between atoms: C_8  and  O_11 
ROOT
HETATM    1  C   UNL     1     -33.902  -4.345 -11.451  1.00  0.00    -0.025 A 
HETATM    2  C   UNL     1     -34.372  -3.886 -12.691  1.00  0.00     0.074 A 
HETATM    3  C   UNL     1     -34.653  -2.535 -12.910  1.00  0.00     0.073 A 
HETATM    4  C   UNL     1     -34.452  -1.616 -11.888  1.00  0.00     0.068 A 
HETATM    5  C   UNL     1     -33.973  -2.029 -10.655  1.00  0.00     0.037 A 
HETATM    6  C   UNL     1     -33.695  -3.383 -10.442  1.00  0.00     0.012 A 
ENDROOT
BRANCH   1   7
HETATM    7  C   UNL     1     -33.590  -5.794 -11.142  1.00  0.00     0.041 C 
BRANCH   7   8
HETATM    8  C   UNL     1     -34.453  -6.372 -10.013  1.00  0.00     0.004 C 
BRANCH   8   9
HETATM    9  C   UNL     1     -34.888  -7.809 -10.315  1.00  0.00    -0.004 C 
HETATM   10  C   UNL     1     -33.893  -8.811  -9.749  1.00  0.00     0.005 C 
ENDBRANCH   8   9
ENDBRANCH   7   8
ENDBRANCH   1   7
BRANCH   2  11
HETATM   11  O   UNL     1     -34.593  -4.695 -13.772  1.00  0.00    -0.360 OA
HETATM   12  H   UNL     1     -35.355  -5.268 -13.607  1.00  0.00     0.217 HD
ENDBRANCH   2  11
BRANCH   4  13
HETATM   13  O   UNL     1     -34.713  -0.289 -12.063  1.00  0.00    -0.361 OA
HETATM   14  H   UNL     1     -35.551  -0.203 -12.548  1.00  0.00     0.217 HD
ENDBRANCH   4  13
TORSDOF 5
ENDMDL
MODEL 3
REMARK VINA RESULT:      -6.5      1.354      2.331
REMARK  5 active torsions:
REMARK  status: ('A' for Active; 'I' for Inactive)
REMARK    1  A    between atoms: C_2  and  C_3 
REMARK    2  A    between atoms: C_3  and  C_4 
REMARK    3  A    between atoms: C_4  and  C_5 
REMARK    4  A    between atoms: C_6  and  O_12 
REMARK    5  A    between atoms: C_8  and  O_11 
ROOT
HETATM    1  C   UNL     1     -22.053  -3.827 -10.130  1.00  0.00    -0.025 A 
HETATM    2  C   UNL     1     -21.568  -3.404 -11.376  1.00  0.00     0.074 A 
HETATM    3  C   UNL     1     -22.431  -2.954 -12.379  1.00  0.00     0.073 A 
HETATM    4  C   UNL     1     -23.798  -2.906 -12.141  1.00  0.00     0.068 A 
HETATM    5  C   UNL     1     -24.312  -3.299 -10.915  1.00  0.00     0.037 A 
HETATM    6  C   UNL     1     -23.444  -3.751  -9.915  1.00  0.00     0.012 A 
ENDROOT
BRANCH   1   7
HETATM    7  C   UNL     1     -21.177  -4.337  -9.004  1.00  0.00     0.041 C 
BRANCH   7   8
HETATM    8  C   UNL     1     -21.592  -3.806  -7.626  1.00  0.00     0.004 C 
BRANCH   8   9
HETATM    9  C   UNL     1     -20.684  -4.343  -6.517  1.00  0.00    -0.004 C 
HETATM   10  C   UNL     1     -19.334  -4.770  -7.075  1.00  0.00     0.005 C 
ENDBRANCH   8   9
ENDBRANCH   7   8
ENDBRANCH   1   7
BRANCH   2  11
HETATM   11  O   UNL     1     -20.244  -3.394 -11.719  1.00  0.00    -0.360 OA
HETATM   12  H   UNL     1     -19.754  -2.802 -11.132  1.00  0.00     0.217 HD
ENDBRANCH   2  11
BRANCH   4  13
HETATM   13  O   UNL     1     -24.672  -2.471 -13.093  1.00  0.00    -0.361 OA
HETATM   14  H   UNL     1     -25.062  -3.248 -13.528  1.00  0.00     0.217 HD
ENDBRANCH   4  13
TORSDOF 5
ENDMDL
MODEL 4
REMARK VINA RESULT:      -6.2     10.850     12.930
REMARK  5 active torsions:
REMARK  status: ('A' for Active; 'I' for Inactive)
REMARK    1  A    between atoms: C_2  and  C_3 
REMARK    2  A    between atoms: C_3  and  C_4 
REMARK    3  A    between atoms: C_4  and  C_5 
REMARK    4  A    between atoms: C_6  and  O_12 
REMARK    5  A    between atoms: C_8  and  O_11 
ROOT
HETATM    1  C   UNL     1     -34.418  -2.801 -11.420  1.00  0.00    -0.025 A 
HETATM    2  C   UNL     1     -35.288  -3.794 -10.945  1.00  0.00     0.074 A 
HETATM    3  C   UNL     1     -34.883  -5.127 -10.841  1.00  0.00     0.073 A 
HETATM    4  C   UNL     1     -33.589  -5.485 -11.198  1.00  0.00     0.068 A 
HETATM    5  C   UNL     1     -32.697  -4.527 -11.655  1.00  0.00     0.037 A 
HETATM    6  C   UNL     1     -33.108  -3.195 -11.759  1.00  0.00     0.012 A 
ENDROOT
BRANCH   1   7
HETATM    7  C   UNL     1     -34.794  -1.341 -11.570  1.00  0.00     0.041 C 
BRANCH   7   8
HETATM    8  C   UNL     1     -35.063  -0.932 -13.024  1.00  0.00     0.004 C 
BRANCH   8   9
HETATM    9  C   UNL     1     -34.878   0.574 -13.230  1.00  0.00    -0.004 C 
HETATM   10  C   UNL     1     -35.094   0.957 -14.686  1.00  0.00     0.005 C 
ENDBRANCH   8   9
ENDBRANCH   7   8
ENDBRANCH   1   7
BRANCH   2  11
HETATM   11  O   UNL     1     -36.576  -3.559 -10.552  1.00  0.00    -0.360 OA
HETATM   12  H   UNL     1     -36.596  -2.866  -9.878  1.00  0.00     0.217 HD
ENDBRANCH   2  11
BRANCH   4  13
HETATM   13  O   UNL     1     -33.156  -6.774 -11.108  1.00  0.00    -0.361 OA
HETATM   14  H   UNL     1     -33.518  -7.272 -11.861  1.00  0.00     0.217 HD
ENDBRANCH   4  13
TORSDOF 5
ENDMDL
MODEL 5
REMARK VINA RESULT:      -6.2      2.433      5.061
REMARK  5 active torsions:
REMARK  status: ('A' for Active; 'I' for Inactive)
REMARK    1  A    between atoms: C_2  and  C_3 
REMARK    2  A    between atoms: C_3  and  C_4 
REMARK    3  A    between atoms: C_4  and  C_5 
REMARK    4  A    between atoms: C_6  and  O_12 
REMARK    5  A    between atoms: C_8  and  O_11 
ROOT
HETATM    1  C   UNL     1     -21.962  -4.279  -9.389  1.00  0.00    -0.025 A 
HETATM    2  C   UNL     1     -22.581  -4.233  -8.131  1.00  0.00     0.074 A 
HETATM    3  C   UNL     1     -21.840  -4.340  -6.951  1.00  0.00     0.073 A 
HETATM    4  C   UNL     1     -20.459  -4.481  -7.014  1.00  0.00     0.068 A 
HETATM    5  C   UNL     1     -19.812  -4.514  -8.240  1.00  0.00     0.037 A 
HETATM    6  C   UNL     1     -20.559  -4.407  -9.418  1.00  0.00     0.012 A 
ENDROOT
BRANCH   1   7
HETATM    7  C   UNL     1     -22.704  -4.181 -10.706  1.00  0.00     0.041 C 
BRANCH   7   8
HETATM    8  C   UNL     1     -21.867  -3.551 -11.827  1.00  0.00     0.004 C 
BRANCH   8   9
HETATM    9  C   UNL     1     -22.750  -2.889 -12.887  1.00  0.00    -0.004 C 
HETATM   10  C   UNL     1     -24.218  -2.947 -12.490  1.00  0.00     0.005 C 
ENDBRANCH   8   9
ENDBRANCH   7   8
ENDBRANCH   1   7
BRANCH   2  11
HETATM   11  O   UNL     1     -23.927  -4.083  -7.945  1.00  0.00    -0.360 OA
HETATM   12  H   UNL     1     -24.355  -3.857  -8.782  1.00  0.00     0.217 HD
ENDBRANCH   2  11
BRANCH   4  13
HETATM   13  O   UNL     1     -19.702  -4.587  -5.886  1.00  0.00    -0.361 OA
HETATM   14  H   UNL     1     -19.092  -3.831  -5.854  1.00  0.00     0.217 HD
ENDBRANCH   4  13
TORSDOF 5
ENDMDL
MODEL 6
REMARK VINA RESULT:      -6.1     11.525     13.458
REMARK  5 active torsions:
REMARK  status: ('A' for Active; 'I' for Inactive)
REMARK    1  A    between atoms: C_2  and  C_3 
REMARK    2  A    between atoms: C_3  and  C_4 
REMARK    3  A    between atoms: C_4  and  C_5 
REMARK    4  A    between atoms: C_6  and  O_12 
REMARK    5  A    between atoms: C_8  and  O_11 
ROOT
HETATM    1  C   UNL     1     -35.085  -2.074 -12.024  1.00  0.00    -0.025 A 
HETATM    2  C   UNL     1     -35.439  -0.946 -12.779  1.00  0.00     0.074 A 
HETATM    3  C   UNL     1     -36.374  -0.020 -12.310  1.00  0.00     0.073 A 
HETATM    4  C   UNL     1     -36.961  -0.204 -11.064  1.00  0.00     0.068 A 
HETATM    5  C   UNL     1     -36.622  -1.298 -10.283  1.00  0.00     0.037 A 
HETATM    6  C   UNL     1     -35.687  -2.222 -10.758  1.00  0.00     0.012 A 
ENDROOT
BRANCH   1   7
HETATM    7  C   UNL     1     -34.089  -3.122 -12.476  1.00  0.00     0.041 C 
BRANCH   7   8
HETATM    8  C   UNL     1     -33.211  -3.655 -11.336  1.00  0.00     0.004 C 
BRANCH   8   9
HETATM    9  C   UNL     1     -33.204  -5.185 -11.297  1.00  0.00    -0.004 C 
HETATM   10  C   UNL     1     -34.337  -5.716 -10.433  1.00  0.00     0.005 C 
ENDBRANCH   8   9
ENDBRANCH   7   8
ENDBRANCH   1   7
BRANCH   2  11
HETATM   11  O   UNL     1     -34.918  -0.654 -14.009  1.00  0.00    -0.360 OA
HETATM   12  H   UNL     1     -34.744   0.294 -14.080  1.00  0.00     0.217 HD
ENDBRANCH   2  11
BRANCH   4  13
HETATM   13  O   UNL     1     -37.876   0.678 -10.571  1.00  0.00    -0.361 OA
HETATM   14  H   UNL     1     -37.954   0.535  -9.612  1.00  0.00     0.217 HD
ENDBRANCH   4  13
TORSDOF 5
ENDMDL
MODEL 7
REMARK VINA RESULT:      -5.9     11.756     13.395
REMARK  5 active torsions:
REMARK  status: ('A' for Active; 'I' for Inactive)
REMARK    1  A    between atoms: C_2  and  C_3 
REMARK    2  A    between atoms: C_3  and  C_4 
REMARK    3  A    between atoms: C_4  and  C_5 
REMARK    4  A    between atoms: C_6  and  O_12 
REMARK    5  A    between atoms: C_8  and  O_11 
ROOT
HETATM    1  C   UNL     1     -34.853  -1.370 -11.438  1.00  0.00    -0.025 A 
HETATM    2  C   UNL     1     -35.918  -0.747 -10.771  1.00  0.00     0.074 A 
HETATM    3  C   UNL     1     -36.969  -0.151 -11.473  1.00  0.00     0.073 A 
HETATM    4  C   UNL     1     -36.977  -0.185 -12.861  1.00  0.00     0.068 A 
HETATM    5  C   UNL     1     -35.951  -0.807 -13.554  1.00  0.00     0.037 A 
HETATM    6  C   UNL     1     -34.901  -1.401 -12.847  1.00  0.00     0.012 A 
ENDROOT
BRANCH   1   7
HETATM    7  C   UNL     1     -33.678  -2.024 -10.742  1.00  0.00     0.041 C 
BRANCH   7   8
HETATM    8  C   UNL     1     -33.346  -3.417 -11.294  1.00  0.00     0.004 C 
BRANCH   8   9
HETATM    9  C   UNL     1     -34.014  -4.523 -10.473  1.00  0.00    -0.004 C 
HETATM   10  C   UNL     1     -33.871  -5.874 -11.157  1.00  0.00     0.005 C 
ENDBRANCH   8   9
ENDBRANCH   7   8
ENDBRANCH   1   7
BRANCH   2  11
HETATM   11  O   UNL     1     -36.024  -0.664  -9.410  1.00  0.00    -0.360 OA
HETATM   12  H   UNL     1     -35.146  -0.678  -9.007  1.00  0.00     0.217 HD
ENDBRANCH   2  11
BRANCH   4  13
HETATM   13  O   UNL     1     -37.986   0.384 -13.582  1.00  0.00    -0.361 OA
HETATM   14  H   UNL     1     -37.683   0.492 -14.499  1.00  0.00     0.217 HD
ENDBRANCH   4  13
TORSDOF 5
ENDMDL
MODEL 8
REMARK VINA RESULT:      -5.8      2.144      3.136
REMARK  5 active torsions:
REMARK  status: ('A' for Active; 'I' for Inactive)
REMARK    1  A    between atoms: C_2  and  C_3 
REMARK    2  A    between atoms: C_3  and  C_4 
REMARK    3  A    between atoms: C_4  and  C_5 
REMARK    4  A    between atoms: C_6  and  O_12 
REMARK    5  A    between atoms: C_8  and  O_11 
ROOT
HETATM    1  C   UNL     1     -21.458  -4.804  -7.242  1.00  0.00    -0.025 A 
HETATM    2  C   UNL     1     -22.723  -4.356  -7.651  1.00  0.00     0.074 A 
HETATM    3  C   UNL     1     -22.938  -3.858  -8.939  1.00  0.00     0.073 A 
HETATM    4  C   UNL     1     -21.888  -3.816  -9.846  1.00  0.00     0.068 A 
HETATM    5  C   UNL     1     -20.628  -4.266  -9.483  1.00  0.00     0.037 A 
HETATM    6  C   UNL     1     -20.417  -4.762  -8.193  1.00  0.00     0.012 A 
ENDROOT
BRANCH   1   7
HETATM    7  C   UNL     1     -21.152  -5.344  -5.861  1.00  0.00     0.041 C 
BRANCH   7   8
HETATM    8  C   UNL     1     -21.232  -6.874  -5.777  1.00  0.00     0.004 C 
BRANCH   8   9
HETATM    9  C   UNL     1     -21.742  -7.338  -4.410  1.00  0.00    -0.004 C 
HETATM   10  C   UNL     1     -21.428  -6.311  -3.332  1.00  0.00     0.005 C 
ENDBRANCH   8   9
ENDBRANCH   7   8
ENDBRANCH   1   7
BRANCH   2  11
HETATM   11  O   UNL     1     -23.832  -4.363  -6.851  1.00  0.00    -0.360 OA
HETATM   12  H   UNL     1     -23.806  -5.123  -6.254  1.00  0.00     0.217 HD
ENDBRANCH   2  11
BRANCH   4  13
HETATM   13  O   UNL     1     -22.058  -3.339 -11.112  1.00  0.00    -0.361 OA
HETATM   14  H   UNL     1     -22.458  -4.041 -11.652  1.00  0.00     0.217 HD
ENDBRANCH   4  13
TORSDOF 5
ENDMDL
MODEL 9
REMARK VINA RESULT:      -5.7      2.104      2.778
REMARK  5 active torsions:
REMARK  status: ('A' for Active; 'I' for Inactive)
REMARK    1  A    between atoms: C_2  and  C_3 
REMARK    2  A    between atoms: C_3  and  C_4 
REMARK    3  A    between atoms: C_4  and  C_5 
REMARK    4  A    between atoms: C_6  and  O_12 
REMARK    5  A    between atoms: C_8  and  O_11 
ROOT
HETATM    1  C   UNL     1     -21.756  -3.948  -8.648  1.00  0.00    -0.025 A 
HETATM    2  C   UNL     1     -20.562  -4.171  -9.349  1.00  0.00     0.074 A 
HETATM    3  C   UNL     1     -20.520  -4.143 -10.745  1.00  0.00     0.073 A 
HETATM    4  C   UNL     1     -21.678  -3.875 -11.463  1.00  0.00     0.068 A 
HETATM    5  C   UNL     1     -22.873  -3.632 -10.804  1.00  0.00     0.037 A 
HETATM    6  C   UNL     1     -22.909  -3.662  -9.407  1.00  0.00     0.012 A 
ENDROOT
BRANCH   1   7
HETATM    7  C   UNL     1     -21.875  -3.975  -7.138  1.00  0.00     0.041 C 
BRANCH   7   8
HETATM    8  C   UNL     1     -21.664  -5.372  -6.539  1.00  0.00     0.004 C 
BRANCH   8   9
HETATM    9  C   UNL     1     -20.765  -5.325  -5.301  1.00  0.00    -0.004 C 
HETATM   10  C   UNL     1     -21.302  -6.228  -4.201  1.00  0.00     0.005 C 
ENDBRANCH   8   9
ENDBRANCH   7   8
ENDBRANCH   1   7
BRANCH   2  11
HETATM   11  O   UNL     1     -19.360  -4.430  -8.749  1.00  0.00    -0.360 OA
HETATM   12  H   UNL     1     -19.460  -5.135  -8.096  1.00  0.00     0.217 HD
ENDBRANCH   2  11
BRANCH   4  13
HETATM   13  O   UNL     1     -21.678  -3.837 -12.826  1.00  0.00    -0.361 OA
HETATM   14  H   UNL     1     -21.783  -4.745 -13.158  1.00  0.00     0.217 HD
ENDBRANCH   4  13
TORSDOF 5
ENDMDL
