MODEL 1
REMARK VINA RESULT:      -5.4      0.000      0.000
REMARK  15 active torsions:
REMARK  status: ('A' for Active; 'I' for Inactive)
REMARK    1  A    between atoms: C_2  and  O_3 
REMARK    2  A    between atoms: O_3  and  C_4 
REMARK    3  A    between atoms: C_4  and  C_5 
REMARK    4  A    between atoms: C_6  and  O_19 
REMARK    5  A    between atoms: C_7  and  O_16 
REMARK    6  A    between atoms: C_8  and  O_13 
REMARK    7  A    between atoms: C_9  and  O_11 
REMARK    8  A    between atoms: O_13  and  C_14 
REMARK    9  A    between atoms: O_16  and  C_17 
REMARK   10  A    between atoms: O_19  and  C_20 
REMARK   11  A    between atoms: C_21  and  O_31 
REMARK   12  A    between atoms: C_22  and  O_30 
REMARK   13  A    between atoms: C_23  and  O_28 
REMARK   14  A    between atoms: C_24  and  C_26 
REMARK   15  A    between atoms: C_26  and  O_27 
ROOT
HETATM    1  C   UNL     1     -18.802  -9.811  -5.269  1.00  0.00     0.180 C 
HETATM    2  C   UNL     1     -18.321 -10.014  -3.787  1.00  0.00     0.187 C 
HETATM    3  C   UNL     1     -19.612 -10.106  -2.871  1.00  0.00     0.186 C 
HETATM    4  C   UNL     1     -20.709  -9.036  -3.186  1.00  0.00     0.208 C 
HETATM    5  C   UNL     1     -20.901  -8.803  -4.709  1.00  0.00     0.291 C 
HETATM    6  O   UNL     1     -19.644  -8.653  -5.360  1.00  0.00    -0.348 OA
ENDROOT
BRANCH   2   7
HETATM    7  O   UNL     1     -17.435 -11.170  -3.630  1.00  0.00    -0.348 OA
BRANCH   7   8
HETATM    8  C   UNL     1     -16.272 -10.935  -2.793  1.00  0.00     0.292 C 
HETATM    9  C   UNL     1     -15.018 -11.715  -3.257  1.00  0.00     0.204 C 
HETATM   10  C   UNL     1     -14.905 -13.145  -2.715  1.00  0.00     0.183 C 
HETATM   11  C   UNL     1     -15.459 -13.353  -1.286  1.00  0.00     0.183 C 
HETATM   12  C   UNL     1     -16.683 -12.468  -1.008  1.00  0.00     0.179 C 
HETATM   13  O   UNL     1     -16.503 -11.098  -1.404  1.00  0.00    -0.348 OA
BRANCH   9  14
HETATM   14  O   UNL     1     -14.881 -11.738  -4.691  1.00  0.00    -0.388 OA
HETATM   15  H   UNL     1     -15.592 -11.182  -5.064  1.00  0.00     0.210 HD
ENDBRANCH   9  14
BRANCH  10  16
HETATM   16  O   UNL     1     -13.547 -13.604  -2.840  1.00  0.00    -0.390 OA
HETATM   17  H   UNL     1     -13.519 -14.498  -2.448  1.00  0.00     0.210 HD
ENDBRANCH  10  16
BRANCH  11  18
HETATM   18  O   UNL     1     -14.509 -13.436  -0.213  1.00  0.00    -0.385 OA
HETATM   19  C   UNL     1     -14.213 -14.693   0.366  1.00  0.00     0.202 C 
ENDBRANCH  11  18
BRANCH  12  20
HETATM   20  C   UNL     1     -17.079 -12.457   0.472  1.00  0.00     0.198 C 
BRANCH  20  21
HETATM   21  O   UNL     1     -16.124 -11.679   1.201  1.00  0.00    -0.398 OA
HETATM   22  H   UNL     1     -16.025 -10.849   0.696  1.00  0.00     0.209 HD
ENDBRANCH  20  21
ENDBRANCH  12  20
ENDBRANCH   7   8
ENDBRANCH   2   7
BRANCH   1  23
HETATM   23  C   UNL     1     -19.444 -11.084  -5.894  1.00  0.00     0.202 C 
BRANCH  23  24
HETATM   24  O   UNL     1     -18.900 -11.396  -7.190  1.00  0.00    -0.389 OA
BRANCH  24  25
HETATM   25  C   UNL     1     -19.388 -12.666  -7.645  1.00  0.00     0.163 C 
HETATM   26  C   UNL     1     -18.757 -13.076  -8.967  1.00  0.00     0.033 C 
ENDBRANCH  24  25
ENDBRANCH  23  24
ENDBRANCH   1  23
BRANCH   3  27
HETATM   27  O   UNL     1     -19.553 -10.293  -1.445  1.00  0.00    -0.381 OA
BRANCH  27  28
HETATM   28  C   UNL     1     -20.448 -11.118  -0.730  1.00  0.00     0.164 C 
HETATM   29  C   UNL     1     -20.770 -10.588   0.658  1.00  0.00     0.033 C 
ENDBRANCH  27  28
ENDBRANCH   3  27
BRANCH   4  30
HETATM   30  O   UNL     1     -20.582  -7.839  -2.395  1.00  0.00    -0.379 OA
BRANCH  30  31
HETATM   31  C   UNL     1     -21.631  -7.538  -1.493  1.00  0.00     0.164 C 
HETATM   32  C   UNL     1     -22.220  -6.194  -1.884  1.00  0.00     0.033 C 
ENDBRANCH  30  31
ENDBRANCH   4  30
BRANCH   5  33
HETATM   33  O   UNL     1     -21.726  -7.660  -4.958  1.00  0.00    -0.363 OA
HETATM   34  C   UNL     1     -21.058  -6.681  -5.736  1.00  0.00     0.204 C 
ENDBRANCH   5  33
TORSDOF 15
ENDMDL
MODEL 2
REMARK VINA RESULT:      -5.1      2.152      4.434
REMARK  15 active torsions:
REMARK  status: ('A' for Active; 'I' for Inactive)
REMARK    1  A    between atoms: C_2  and  O_3 
REMARK    2  A    between atoms: O_3  and  C_4 
REMARK    3  A    between atoms: C_4  and  C_5 
REMARK    4  A    between atoms: C_6  and  O_19 
REMARK    5  A    between atoms: C_7  and  O_16 
REMARK    6  A    between atoms: C_8  and  O_13 
REMARK    7  A    between atoms: C_9  and  O_11 
REMARK    8  A    between atoms: O_13  and  C_14 
REMARK    9  A    between atoms: O_16  and  C_17 
REMARK   10  A    between atoms: O_19  and  C_20 
REMARK   11  A    between atoms: C_21  and  O_31 
REMARK   12  A    between atoms: C_22  and  O_30 
REMARK   13  A    between atoms: C_23  and  O_28 
REMARK   14  A    between atoms: C_24  and  C_26 
REMARK   15  A    between atoms: C_26  and  O_27 
ROOT
HETATM    1  C   UNL     1     -20.346  -8.400  -2.445  1.00  0.00     0.180 C 
HETATM    2  C   UNL     1     -19.886  -9.886  -2.663  1.00  0.00     0.187 C 
HETATM    3  C   UNL     1     -21.158 -10.815  -2.474  1.00  0.00     0.186 C 
HETATM    4  C   UNL     1     -22.045 -10.457  -1.237  1.00  0.00     0.208 C 
HETATM    5  C   UNL     1     -22.216  -8.926  -1.044  1.00  0.00     0.291 C 
HETATM    6  O   UNL     1     -20.964  -8.259  -1.157  1.00  0.00    -0.348 OA
ENDROOT
BRANCH   2   7
HETATM    7  O   UNL     1     -19.224 -10.092  -3.953  1.00  0.00    -0.348 OA
BRANCH   7   8
HETATM    8  C   UNL     1     -17.858  -9.603  -4.019  1.00  0.00     0.292 C 
HETATM    9  C   UNL     1     -17.152  -9.942  -5.355  1.00  0.00     0.204 C 
HETATM   10  C   UNL     1     -16.480 -11.319  -5.403  1.00  0.00     0.183 C 
HETATM   11  C   UNL     1     -15.873 -11.802  -4.065  1.00  0.00     0.183 C 
HETATM   12  C   UNL     1     -16.699 -11.338  -2.856  1.00  0.00     0.179 C 
HETATM   13  O   UNL     1     -17.054  -9.946  -2.904  1.00  0.00    -0.348 OA
BRANCH   9  14
HETATM   14  O   UNL     1     -18.026  -9.800  -6.492  1.00  0.00    -0.388 OA
HETATM   15  H   UNL     1     -18.528 -10.632  -6.584  1.00  0.00     0.210 HD
ENDBRANCH   9  14
BRANCH  10  16
HETATM   16  O   UNL     1     -15.520 -11.351  -6.475  1.00  0.00    -0.390 OA
HETATM   17  H   UNL     1     -15.968 -11.764  -7.237  1.00  0.00     0.210 HD
ENDBRANCH  10  16
BRANCH  11  18
HETATM   18  O   UNL     1     -14.449 -11.697  -3.908  1.00  0.00    -0.385 OA
HETATM   19  C   UNL     1     -13.636 -12.836  -4.117  1.00  0.00     0.202 C 
ENDBRANCH  11  18
BRANCH  12  20
HETATM   20  C   UNL     1     -15.979 -11.571  -1.525  1.00  0.00     0.198 C 
BRANCH  20  21
HETATM   21  O   UNL     1     -15.725 -12.971  -1.375  1.00  0.00    -0.398 OA
HETATM   22  H   UNL     1     -16.056 -13.385  -2.194  1.00  0.00     0.209 HD
ENDBRANCH  20  21
ENDBRANCH  12  20
ENDBRANCH   7   8
ENDBRANCH   2   7
BRANCH   1  23
HETATM   23  C   UNL     1     -21.220  -7.842  -3.606  1.00  0.00     0.202 C 
BRANCH  23  24
HETATM   24  O   UNL     1     -20.453  -7.077  -4.555  1.00  0.00    -0.389 OA
BRANCH  24  25
HETATM   25  C   UNL     1     -21.040  -5.781  -4.743  1.00  0.00     0.163 C 
HETATM   26  C   UNL     1     -20.210  -4.914  -5.678  1.00  0.00     0.033 C 
ENDBRANCH  24  25
ENDBRANCH  23  24
ENDBRANCH   1  23
BRANCH   3  27
HETATM   27  O   UNL     1     -21.110 -12.248  -2.602  1.00  0.00    -0.381 OA
BRANCH  27  28
HETATM   28  C   UNL     1     -22.014 -12.989  -3.396  1.00  0.00     0.164 C 
HETATM   29  C   UNL     1     -22.477 -12.236  -4.633  1.00  0.00     0.033 C 
ENDBRANCH  27  28
ENDBRANCH   3  27
BRANCH   4  30
HETATM   30  O   UNL     1     -21.690 -11.187  -0.048  1.00  0.00    -0.379 OA
BRANCH  30  31
HETATM   31  C   UNL     1     -22.607 -12.158   0.422  1.00  0.00     0.164 C 
HETATM   32  C   UNL     1     -23.915 -11.975  -0.329  1.00  0.00     0.033 C 
ENDBRANCH  30  31
ENDBRANCH   4  30
BRANCH   5  33
HETATM   33  O   UNL     1     -22.823  -8.627   0.219  1.00  0.00    -0.363 OA
HETATM   34  C   UNL     1     -21.940  -7.931   1.081  1.00  0.00     0.204 C 
ENDBRANCH   5  33
TORSDOF 15
ENDMDL
MODEL 3
REMARK VINA RESULT:      -4.7      2.944      6.120
REMARK  15 active torsions:
REMARK  status: ('A' for Active; 'I' for Inactive)
REMARK    1  A    between atoms: C_2  and  O_3 
REMARK    2  A    between atoms: O_3  and  C_4 
REMARK    3  A    between atoms: C_4  and  C_5 
REMARK    4  A    between atoms: C_6  and  O_19 
REMARK    5  A    between atoms: C_7  and  O_16 
REMARK    6  A    between atoms: C_8  and  O_13 
REMARK    7  A    between atoms: C_9  and  O_11 
REMARK    8  A    between atoms: O_13  and  C_14 
REMARK    9  A    between atoms: O_16  and  C_17 
REMARK   10  A    between atoms: O_19  and  C_20 
REMARK   11  A    between atoms: C_21  and  O_31 
REMARK   12  A    between atoms: C_22  and  O_30 
REMARK   13  A    between atoms: C_23  and  O_28 
REMARK   14  A    between atoms: C_24  and  C_26 
REMARK   15  A    between atoms: C_26  and  O_27 
ROOT
HETATM    1  C   UNL     1     -22.297 -10.721  -1.783  1.00  0.00     0.180 C 
HETATM    2  C   UNL     1     -21.389 -10.240  -2.971  1.00  0.00     0.187 C 
HETATM    3  C   UNL     1     -20.119  -9.524  -2.348  1.00  0.00     0.186 C 
HETATM    4  C   UNL     1     -20.441  -8.538  -1.176  1.00  0.00     0.208 C 
HETATM    5  C   UNL     1     -21.526  -9.087  -0.211  1.00  0.00     0.291 C 
HETATM    6  O   UNL     1     -22.632  -9.611  -0.938  1.00  0.00    -0.348 OA
ENDROOT
BRANCH   2   7
HETATM    7  O   UNL     1     -21.030 -11.326  -3.887  1.00  0.00    -0.348 OA
BRANCH   7   8
HETATM    8  C   UNL     1     -21.088 -10.977  -5.296  1.00  0.00     0.292 C 
HETATM    9  C   UNL     1     -21.621 -12.124  -6.188  1.00  0.00     0.204 C 
HETATM   10  C   UNL     1     -20.561 -13.129  -6.657  1.00  0.00     0.183 C 
HETATM   11  C   UNL     1     -19.160 -12.530  -6.923  1.00  0.00     0.183 C 
HETATM   12  C   UNL     1     -18.828 -11.385  -5.955  1.00  0.00     0.179 C 
HETATM   13  O   UNL     1     -19.890 -10.425  -5.816  1.00  0.00    -0.348 OA
BRANCH   9  14
HETATM   14  O   UNL     1     -22.713 -12.838  -5.576  1.00  0.00    -0.388 OA
HETATM   15  H   UNL     1     -22.633 -13.776  -5.833  1.00  0.00     0.210 HD
ENDBRANCH   9  14
BRANCH  10  16
HETATM   16  O   UNL     1     -21.058 -13.864  -7.789  1.00  0.00    -0.390 OA
HETATM   17  H   UNL     1     -22.031 -13.866  -7.714  1.00  0.00     0.210 HD
ENDBRANCH  10  16
BRANCH  11  18
HETATM   18  O   UNL     1     -18.787 -12.301  -8.291  1.00  0.00    -0.385 OA
HETATM   19  C   UNL     1     -17.948 -13.229  -8.953  1.00  0.00     0.202 C 
ENDBRANCH  11  18
BRANCH  12  20
HETATM   20  C   UNL     1     -17.576 -10.607  -6.369  1.00  0.00     0.198 C 
BRANCH  20  21
HETATM   21  O   UNL     1     -16.452 -11.493  -6.346  1.00  0.00    -0.398 OA
HETATM   22  H   UNL     1     -15.967 -11.319  -7.175  1.00  0.00     0.209 HD
ENDBRANCH  20  21
ENDBRANCH  12  20
ENDBRANCH   7   8
ENDBRANCH   2   7
BRANCH   1  23
HETATM   23  C   UNL     1     -21.707 -11.930  -0.998  1.00  0.00     0.202 C 
BRANCH  23  24
HETATM   24  O   UNL     1     -22.716 -12.674  -0.291  1.00  0.00    -0.389 OA
BRANCH  24  25
HETATM   25  C   UNL     1     -23.851 -12.905  -1.137  1.00  0.00     0.163 C 
HETATM   26  C   UNL     1     -24.385 -14.322  -0.993  1.00  0.00     0.033 C 
ENDBRANCH  24  25
ENDBRANCH  23  24
ENDBRANCH   1  23
BRANCH   3  27
HETATM   27  O   UNL     1     -19.066  -8.956  -3.147  1.00  0.00    -0.381 OA
BRANCH  27  28
HETATM   28  C   UNL     1     -17.710  -9.337  -3.034  1.00  0.00     0.164 C 
HETATM   29  C   UNL     1     -17.525 -10.691  -2.367  1.00  0.00     0.033 C 
ENDBRANCH  27  28
ENDBRANCH   3  27
BRANCH   4  30
HETATM   30  O   UNL     1     -20.639  -7.180  -1.611  1.00  0.00    -0.379 OA
BRANCH  30  31
HETATM   31  C   UNL     1     -21.774  -6.909  -2.412  1.00  0.00     0.164 C 
HETATM   32  C   UNL     1     -21.302  -6.231  -3.687  1.00  0.00     0.033 C 
ENDBRANCH  30  31
ENDBRANCH   4  30
BRANCH   5  33
HETATM   33  O   UNL     1     -21.968  -8.074   0.700  1.00  0.00    -0.363 OA
HETATM   34  C   UNL     1     -23.381  -7.962   0.725  1.00  0.00     0.204 C 
ENDBRANCH   5  33
TORSDOF 15
ENDMDL
MODEL 4
REMARK VINA RESULT:      -4.7      1.789      2.212
REMARK  15 active torsions:
REMARK  status: ('A' for Active; 'I' for Inactive)
REMARK    1  A    between atoms: C_2  and  O_3 
REMARK    2  A    between atoms: O_3  and  C_4 
REMARK    3  A    between atoms: C_4  and  C_5 
REMARK    4  A    between atoms: C_6  and  O_19 
REMARK    5  A    between atoms: C_7  and  O_16 
REMARK    6  A    between atoms: C_8  and  O_13 
REMARK    7  A    between atoms: C_9  and  O_11 
REMARK    8  A    between atoms: O_13  and  C_14 
REMARK    9  A    between atoms: O_16  and  C_17 
REMARK   10  A    between atoms: O_19  and  C_20 
REMARK   11  A    between atoms: C_21  and  O_31 
REMARK   12  A    between atoms: C_22  and  O_30 
REMARK   13  A    between atoms: C_23  and  O_28 
REMARK   14  A    between atoms: C_24  and  C_26 
REMARK   15  A    between atoms: C_26  and  O_27 
ROOT
HETATM    1  C   UNL     1     -18.770  -9.544  -3.251  1.00  0.00     0.180 C 
HETATM    2  C   UNL     1     -18.709 -10.586  -2.077  1.00  0.00     0.187 C 
HETATM    3  C   UNL     1     -20.182 -10.774  -1.522  1.00  0.00     0.186 C 
HETATM    4  C   UNL     1     -20.977  -9.440  -1.327  1.00  0.00     0.208 C 
HETATM    5  C   UNL     1     -20.747  -8.430  -2.484  1.00  0.00     0.291 C 
HETATM    6  O   UNL     1     -19.362  -8.319  -2.792  1.00  0.00    -0.348 OA
ENDROOT
BRANCH   2   7
HETATM    7  O   UNL     1     -18.091 -11.853  -2.475  1.00  0.00    -0.348 OA
BRANCH   7   8
HETATM    8  C   UNL     1     -16.649 -11.800  -2.643  1.00  0.00     0.292 C 
HETATM    9  C   UNL     1     -16.092 -12.955  -3.510  1.00  0.00     0.204 C 
HETATM   10  C   UNL     1     -15.783 -14.249  -2.747  1.00  0.00     0.183 C 
HETATM   11  C   UNL     1     -15.273 -14.054  -1.300  1.00  0.00     0.183 C 
HETATM   12  C   UNL     1     -15.920 -12.839  -0.619  1.00  0.00     0.179 C 
HETATM   13  O   UNL     1     -15.920 -11.656  -1.436  1.00  0.00    -0.348 OA
BRANCH   9  14
HETATM   14  O   UNL     1     -16.939 -13.258  -4.636  1.00  0.00    -0.388 OA
HETATM   15  H   UNL     1     -17.825 -12.895  -4.445  1.00  0.00     0.210 HD
ENDBRANCH   9  14
BRANCH  10  16
HETATM   16  O   UNL     1     -14.895 -15.070  -3.527  1.00  0.00    -0.390 OA
HETATM   17  H   UNL     1     -15.354 -15.254  -4.369  1.00  0.00     0.210 HD
ENDBRANCH  10  16
BRANCH  11  18
HETATM   18  O   UNL     1     -13.864 -14.205  -1.069  1.00  0.00    -0.385 OA
HETATM   19  C   UNL     1     -13.378 -15.376  -0.440  1.00  0.00     0.202 C 
ENDBRANCH  11  18
BRANCH  12  20
HETATM   20  C   UNL     1     -15.238 -12.471   0.702  1.00  0.00     0.198 C 
BRANCH  20  21
HETATM   21  O   UNL     1     -16.125 -11.651   1.468  1.00  0.00    -0.398 OA
HETATM   22  H   UNL     1     -15.623 -11.401   2.267  1.00  0.00     0.209 HD
ENDBRANCH  20  21
ENDBRANCH  12  20
ENDBRANCH   7   8
ENDBRANCH   2   7
BRANCH   1  23
HETATM   23  C   UNL     1     -19.439 -10.099  -4.542  1.00  0.00     0.202 C 
BRANCH  23  24
HETATM   24  O   UNL     1     -18.831  -9.588  -5.742  1.00  0.00    -0.389 OA
BRANCH  24  25
HETATM   25  C   UNL     1     -17.787 -10.466  -6.188  1.00  0.00     0.163 C 
HETATM   26  C   UNL     1     -16.407  -9.871  -5.952  1.00  0.00     0.033 C 
ENDBRANCH  24  25
ENDBRANCH  23  24
ENDBRANCH   1  23
BRANCH   3  27
HETATM   27  O   UNL     1     -20.507 -11.661  -0.437  1.00  0.00    -0.381 OA
BRANCH  27  28
HETATM   28  C   UNL     1     -21.628 -12.520  -0.441  1.00  0.00     0.164 C 
HETATM   29  C   UNL     1     -22.207 -12.753   0.945  1.00  0.00     0.033 C 
ENDBRANCH  27  28
ENDBRANCH   3  27
BRANCH   4  30
HETATM   30  O   UNL     1     -20.854  -8.890  -0.002  1.00  0.00    -0.379 OA
BRANCH  30  31
HETATM   31  C   UNL     1     -22.048  -8.551   0.678  1.00  0.00     0.164 C 
HETATM   32  C   UNL     1     -23.199  -9.280   0.006  1.00  0.00     0.033 C 
ENDBRANCH  30  31
ENDBRANCH   4  30
BRANCH   5  33
HETATM   33  O   UNL     1     -21.287  -7.143  -2.163  1.00  0.00    -0.363 OA
HETATM   34  C   UNL     1     -21.526  -6.363  -3.321  1.00  0.00     0.204 C 
ENDBRANCH   5  33
TORSDOF 15
ENDMDL
MODEL 5
REMARK VINA RESULT:      -4.6      2.813      6.149
REMARK  15 active torsions:
REMARK  status: ('A' for Active; 'I' for Inactive)
REMARK    1  A    between atoms: C_2  and  O_3 
REMARK    2  A    between atoms: O_3  and  C_4 
REMARK    3  A    between atoms: C_4  and  C_5 
REMARK    4  A    between atoms: C_6  and  O_19 
REMARK    5  A    between atoms: C_7  and  O_16 
REMARK    6  A    between atoms: C_8  and  O_13 
REMARK    7  A    between atoms: C_9  and  O_11 
REMARK    8  A    between atoms: O_13  and  C_14 
REMARK    9  A    between atoms: O_16  and  C_17 
REMARK   10  A    between atoms: O_19  and  C_20 
REMARK   11  A    between atoms: C_21  and  O_31 
REMARK   12  A    between atoms: C_22  and  O_30 
REMARK   13  A    between atoms: C_23  and  O_28 
REMARK   14  A    between atoms: C_24  and  C_26 
REMARK   15  A    between atoms: C_26  and  O_27 
ROOT
HETATM    1  C   UNL     1     -21.520  -8.876  -2.911  1.00  0.00     0.180 C 
HETATM    2  C   UNL     1     -21.120 -10.392  -2.815  1.00  0.00     0.187 C 
HETATM    3  C   UNL     1     -19.607 -10.520  -3.272  1.00  0.00     0.186 C 
HETATM    4  C   UNL     1     -19.248  -9.709  -4.561  1.00  0.00     0.208 C 
HETATM    5  C   UNL     1     -19.911  -8.305  -4.590  1.00  0.00     0.291 C 
HETATM    6  O   UNL     1     -21.288  -8.388  -4.241  1.00  0.00    -0.348 OA
ENDROOT
BRANCH   2   7
HETATM    7  O   UNL     1     -21.357 -10.958  -1.485  1.00  0.00    -0.348 OA
BRANCH   7   8
HETATM    8  C   UNL     1     -22.068 -12.225  -1.482  1.00  0.00     0.292 C 
HETATM    9  C   UNL     1     -23.047 -12.373  -0.291  1.00  0.00     0.204 C 
HETATM   10  C   UNL     1     -22.421 -12.917   1.000  1.00  0.00     0.183 C 
HETATM   11  C   UNL     1     -21.289 -13.950   0.797  1.00  0.00     0.183 C 
HETATM   12  C   UNL     1     -20.449 -13.649  -0.453  1.00  0.00     0.179 C 
HETATM   13  O   UNL     1     -21.240 -13.367  -1.620  1.00  0.00    -0.348 OA
BRANCH   9  14
HETATM   14  O   UNL     1     -23.750 -11.149   0.001  1.00  0.00    -0.388 OA
HETATM   15  H   UNL     1     -23.905 -10.690  -0.846  1.00  0.00     0.210 HD
ENDBRANCH   9  14
BRANCH  10  16
HETATM   16  O   UNL     1     -23.457 -13.412   1.867  1.00  0.00    -0.390 OA
HETATM   17  H   UNL     1     -23.694 -12.678   2.465  1.00  0.00     0.210 HD
ENDBRANCH  10  16
BRANCH  11  18
HETATM   18  O   UNL     1     -21.613 -15.335   0.996  1.00  0.00    -0.385 OA
HETATM   19  C   UNL     1     -22.566 -15.959   0.156  1.00  0.00     0.202 C 
ENDBRANCH  11  18
BRANCH  12  20
HETATM   20  C   UNL     1     -19.505 -14.798  -0.820  1.00  0.00     0.198 C 
BRANCH  20  21
HETATM   21  O   UNL     1     -18.756 -15.171   0.341  1.00  0.00    -0.398 OA
HETATM   22  H   UNL     1     -18.219 -14.388   0.566  1.00  0.00     0.209 HD
ENDBRANCH  20  21
ENDBRANCH  12  20
ENDBRANCH   7   8
ENDBRANCH   2   7
BRANCH   1  23
HETATM   23  C   UNL     1     -20.866  -7.989  -1.812  1.00  0.00     0.202 C 
BRANCH  23  24
HETATM   24  O   UNL     1     -21.789  -7.038  -1.248  1.00  0.00    -0.389 OA
BRANCH  24  25
HETATM   25  C   UNL     1     -22.606  -7.666  -0.251  1.00  0.00     0.163 C 
HETATM   26  C   UNL     1     -21.774  -8.234   0.888  1.00  0.00     0.033 C 
ENDBRANCH  24  25
ENDBRANCH  23  24
ENDBRANCH   1  23
BRANCH   3  27
HETATM   27  O   UNL     1     -18.902 -11.774  -3.310  1.00  0.00    -0.381 OA
BRANCH  27  28
HETATM   28  C   UNL     1     -17.626 -11.968  -2.734  1.00  0.00     0.164 C 
HETATM   29  C   UNL     1     -17.549 -11.508  -1.287  1.00  0.00     0.033 C 
ENDBRANCH  27  28
ENDBRANCH   3  27
BRANCH   4  30
HETATM   30  O   UNL     1     -19.382 -10.474  -5.773  1.00  0.00    -0.379 OA
BRANCH  30  31
HETATM   31  C   UNL     1     -18.192 -10.913  -6.404  1.00  0.00     0.164 C 
HETATM   32  C   UNL     1     -17.055 -10.018  -5.943  1.00  0.00     0.033 C 
ENDBRANCH  30  31
ENDBRANCH   4  30
BRANCH   5  33
HETATM   33  O   UNL     1     -19.762  -7.690  -5.875  1.00  0.00    -0.363 OA
HETATM   34  C   UNL     1     -20.357  -6.404  -5.920  1.00  0.00     0.204 C 
ENDBRANCH   5  33
TORSDOF 15
ENDMDL
MODEL 6
REMARK VINA RESULT:      -4.5      2.857      5.323
REMARK  15 active torsions:
REMARK  status: ('A' for Active; 'I' for Inactive)
REMARK    1  A    between atoms: C_2  and  O_3 
REMARK    2  A    between atoms: O_3  and  C_4 
REMARK    3  A    between atoms: C_4  and  C_5 
REMARK    4  A    between atoms: C_6  and  O_19 
REMARK    5  A    between atoms: C_7  and  O_16 
REMARK    6  A    between atoms: C_8  and  O_13 
REMARK    7  A    between atoms: C_9  and  O_11 
REMARK    8  A    between atoms: O_13  and  C_14 
REMARK    9  A    between atoms: O_16  and  C_17 
REMARK   10  A    between atoms: O_19  and  C_20 
REMARK   11  A    between atoms: C_21  and  O_31 
REMARK   12  A    between atoms: C_22  and  O_30 
REMARK   13  A    between atoms: C_23  and  O_28 
REMARK   14  A    between atoms: C_24  and  C_26 
REMARK   15  A    between atoms: C_26  and  O_27 
ROOT
HETATM    1  C   UNL     1     -20.713  -8.615  -2.076  1.00  0.00     0.180 C 
HETATM    2  C   UNL     1     -20.268 -10.084  -2.413  1.00  0.00     0.187 C 
HETATM    3  C   UNL     1     -21.568 -10.991  -2.418  1.00  0.00     0.186 C 
HETATM    4  C   UNL     1     -22.542 -10.737  -1.221  1.00  0.00     0.208 C 
HETATM    5  C   UNL     1     -22.696  -9.229  -0.883  1.00  0.00     0.291 C 
HETATM    6  O   UNL     1     -21.426  -8.589  -0.831  1.00  0.00    -0.348 OA
ENDROOT
BRANCH   2   7
HETATM    7  O   UNL     1     -19.512 -10.175  -3.665  1.00  0.00    -0.348 OA
BRANCH   7   8
HETATM    8  C   UNL     1     -18.501 -11.218  -3.689  1.00  0.00     0.292 C 
HETATM    9  C   UNL     1     -17.060 -10.669  -3.819  1.00  0.00     0.204 C 
HETATM   10  C   UNL     1     -16.587 -10.415  -5.256  1.00  0.00     0.183 C 
HETATM   11  C   UNL     1     -17.135 -11.403  -6.312  1.00  0.00     0.183 C 
HETATM   12  C   UNL     1     -18.567 -11.856  -5.990  1.00  0.00     0.179 C 
HETATM   13  O   UNL     1     -18.749 -12.257  -4.621  1.00  0.00    -0.348 OA
BRANCH   9  14
HETATM   14  O   UNL     1     -16.850  -9.479  -3.033  1.00  0.00    -0.388 OA
HETATM   15  H   UNL     1     -15.903  -9.248  -3.094  1.00  0.00     0.210 HD
ENDBRANCH   9  14
BRANCH  10  16
HETATM   16  O   UNL     1     -15.151 -10.334  -5.286  1.00  0.00    -0.390 OA
HETATM   17  H   UNL     1     -14.927  -9.384  -5.312  1.00  0.00     0.210 HD
ENDBRANCH  10  16
BRANCH  11  18
HETATM   18  O   UNL     1     -16.254 -12.442  -6.767  1.00  0.00    -0.385 OA
HETATM   19  C   UNL     1     -15.786 -13.415  -5.851  1.00  0.00     0.202 C 
ENDBRANCH  11  18
BRANCH  12  20
HETATM   20  C   UNL     1     -19.025 -13.029  -6.863  1.00  0.00     0.198 C 
BRANCH  20  21
HETATM   21  O   UNL     1     -19.429 -14.108  -6.014  1.00  0.00    -0.398 OA
HETATM   22  H   UNL     1     -20.028 -14.655  -6.557  1.00  0.00     0.209 HD
ENDBRANCH  20  21
ENDBRANCH  12  20
ENDBRANCH   7   8
ENDBRANCH   2   7
BRANCH   1  23
HETATM   23  C   UNL     1     -21.483  -7.917  -3.236  1.00  0.00     0.202 C 
BRANCH  23  24
HETATM   24  O   UNL     1     -21.393  -6.481  -3.171  1.00  0.00    -0.389 OA
BRANCH  24  25
HETATM   25  C   UNL     1     -21.200  -5.933  -4.483  1.00  0.00     0.163 C 
HETATM   26  C   UNL     1     -21.185  -7.015  -5.552  1.00  0.00     0.033 C 
ENDBRANCH  24  25
ENDBRANCH  23  24
ENDBRANCH   1  23
BRANCH   3  27
HETATM   27  O   UNL     1     -21.539 -12.404  -2.691  1.00  0.00    -0.381 OA
BRANCH  27  28
HETATM   28  C   UNL     1     -22.325 -13.020  -3.691  1.00  0.00     0.164 C 
HETATM   29  C   UNL     1     -22.314 -12.263  -5.009  1.00  0.00     0.033 C 
ENDBRANCH  27  28
ENDBRANCH   3  27
BRANCH   4  30
HETATM   30  O   UNL     1     -22.294 -11.595  -0.091  1.00  0.00    -0.379 OA
BRANCH  30  31
HETATM   31  C   UNL     1     -23.332 -12.473   0.304  1.00  0.00     0.164 C 
HETATM   32  C   UNL     1     -22.814 -13.337   1.440  1.00  0.00     0.033 C 
ENDBRANCH  30  31
ENDBRANCH   4  30
BRANCH   5  33
HETATM   33  O   UNL     1     -23.393  -9.045   0.355  1.00  0.00    -0.363 OA
HETATM   34  C   UNL     1     -23.072  -7.807   0.966  1.00  0.00     0.204 C 
ENDBRANCH   5  33
TORSDOF 15
ENDMDL
MODEL 7
REMARK VINA RESULT:      -4.3     19.273     23.176
REMARK  15 active torsions:
REMARK  status: ('A' for Active; 'I' for Inactive)
REMARK    1  A    between atoms: C_2  and  O_3 
REMARK    2  A    between atoms: O_3  and  C_4 
REMARK    3  A    between atoms: C_4  and  C_5 
REMARK    4  A    between atoms: C_6  and  O_19 
REMARK    5  A    between atoms: C_7  and  O_16 
REMARK    6  A    between atoms: C_8  and  O_13 
REMARK    7  A    between atoms: C_9  and  O_11 
REMARK    8  A    between atoms: O_13  and  C_14 
REMARK    9  A    between atoms: O_16  and  C_17 
REMARK   10  A    between atoms: O_19  and  C_20 
REMARK   11  A    between atoms: C_21  and  O_31 
REMARK   12  A    between atoms: C_22  and  O_30 
REMARK   13  A    between atoms: C_23  and  O_28 
REMARK   14  A    between atoms: C_24  and  C_26 
REMARK   15  A    between atoms: C_26  and  O_27 
ROOT
HETATM    1  C   UNL     1     -25.856   9.411  -0.967  1.00  0.00     0.180 C 
HETATM    2  C   UNL     1     -25.870   8.970  -2.476  1.00  0.00     0.187 C 
HETATM    3  C   UNL     1     -25.306   7.490  -2.550  1.00  0.00     0.186 C 
HETATM    4  C   UNL     1     -24.027   7.239  -1.686  1.00  0.00     0.208 C 
HETATM    5  C   UNL     1     -24.093   7.934  -0.299  1.00  0.00     0.291 C 
HETATM    6  O   UNL     1     -24.532   9.282  -0.429  1.00  0.00    -0.348 OA
ENDROOT
BRANCH   2   7
HETATM    7  O   UNL     1     -27.192   9.102  -3.093  1.00  0.00    -0.348 OA
BRANCH   7   8
HETATM    8  C   UNL     1     -27.608  10.469  -3.351  1.00  0.00     0.292 C 
HETATM    9  C   UNL     1     -29.115  10.709  -3.088  1.00  0.00     0.204 C 
HETATM   10  C   UNL     1     -30.040  10.386  -4.267  1.00  0.00     0.183 C 
HETATM   11  C   UNL     1     -29.446  10.672  -5.666  1.00  0.00     0.183 C 
HETATM   12  C   UNL     1     -27.934  10.404  -5.717  1.00  0.00     0.179 C 
HETATM   13  O   UNL     1     -27.213  10.979  -4.614  1.00  0.00    -0.348 OA
BRANCH   9  14
HETATM   14  O   UNL     1     -29.586  10.020  -1.913  1.00  0.00    -0.388 OA
HETATM   15  H   UNL     1     -29.003   9.251  -1.768  1.00  0.00     0.210 HD
ENDBRANCH   9  14
BRANCH  10  16
HETATM   16  O   UNL     1     -31.310  11.035  -4.078  1.00  0.00    -0.390 OA
HETATM   17  H   UNL     1     -31.545  10.917  -3.138  1.00  0.00     0.210 HD
ENDBRANCH  10  16
BRANCH  11  18
HETATM   18  O   UNL     1     -29.877  11.865  -6.338  1.00  0.00    -0.385 OA
HETATM   19  C   UNL     1     -30.867  11.783  -7.346  1.00  0.00     0.202 C 
ENDBRANCH  11  18
BRANCH  12  20
HETATM   20  C   UNL     1     -27.284  10.932  -6.999  1.00  0.00     0.198 C 
BRANCH  20  21
HETATM   21  O   UNL     1     -27.051  12.337  -6.855  1.00  0.00    -0.398 OA
HETATM   22  H   UNL     1     -26.385  12.418  -6.146  1.00  0.00     0.209 HD
ENDBRANCH  20  21
ENDBRANCH  12  20
ENDBRANCH   7   8
ENDBRANCH   2   7
BRANCH   1  23
HETATM   23  C   UNL     1     -26.940   8.702  -0.102  1.00  0.00     0.202 C 
BRANCH  23  24
HETATM   24  O   UNL     1     -27.968   9.606   0.343  1.00  0.00    -0.389 OA
BRANCH  24  25
HETATM   25  C   UNL     1     -27.948   9.721   1.772  1.00  0.00     0.163 C 
HETATM   26  C   UNL     1     -28.153   8.376   2.452  1.00  0.00     0.033 C 
ENDBRANCH  24  25
ENDBRANCH  23  24
ENDBRANCH   1  23
BRANCH   3  27
HETATM   27  O   UNL     1     -25.175   6.760  -3.783  1.00  0.00    -0.381 OA
BRANCH  27  28
HETATM   28  C   UNL     1     -25.022   7.381  -5.043  1.00  0.00     0.164 C 
HETATM   29  C   UNL     1     -26.142   7.045  -6.014  1.00  0.00     0.033 C 
ENDBRANCH  27  28
ENDBRANCH   3  27
BRANCH   4  30
HETATM   30  O   UNL     1     -22.800   7.439  -2.412  1.00  0.00    -0.379 OA
BRANCH  30  31
HETATM   31  C   UNL     1     -22.501   8.754  -2.842  1.00  0.00     0.164 C 
HETATM   32  C   UNL     1     -21.552   8.661  -4.024  1.00  0.00     0.033 C 
ENDBRANCH  30  31
ENDBRANCH   4  30
BRANCH   5  33
HETATM   33  O   UNL     1     -22.824   7.889   0.364  1.00  0.00    -0.363 OA
HETATM   34  C   UNL     1     -22.665   8.959   1.279  1.00  0.00     0.204 C 
ENDBRANCH   5  33
TORSDOF 15
ENDMDL
MODEL 8
REMARK VINA RESULT:      -4.3      2.206      6.059
REMARK  15 active torsions:
REMARK  status: ('A' for Active; 'I' for Inactive)
REMARK    1  A    between atoms: C_2  and  O_3 
REMARK    2  A    between atoms: O_3  and  C_4 
REMARK    3  A    between atoms: C_4  and  C_5 
REMARK    4  A    between atoms: C_6  and  O_19 
REMARK    5  A    between atoms: C_7  and  O_16 
REMARK    6  A    between atoms: C_8  and  O_13 
REMARK    7  A    between atoms: C_9  and  O_11 
REMARK    8  A    between atoms: O_13  and  C_14 
REMARK    9  A    between atoms: O_16  and  C_17 
REMARK   10  A    between atoms: O_19  and  C_20 
REMARK   11  A    between atoms: C_21  and  O_31 
REMARK   12  A    between atoms: C_22  and  O_30 
REMARK   13  A    between atoms: C_23  and  O_28 
REMARK   14  A    between atoms: C_24  and  C_26 
REMARK   15  A    between atoms: C_26  and  O_27 
ROOT
HETATM    1  C   UNL     1     -19.579 -12.254  -0.844  1.00  0.00     0.180 C 
HETATM    2  C   UNL     1     -19.859 -10.891  -1.572  1.00  0.00     0.187 C 
HETATM    3  C   UNL     1     -20.502  -9.902  -0.512  1.00  0.00     0.186 C 
HETATM    4  C   UNL     1     -21.615 -10.542   0.381  1.00  0.00     0.208 C 
HETATM    5  C   UNL     1     -21.265 -11.984   0.836  1.00  0.00     0.291 C 
HETATM    6  O   UNL     1     -20.788 -12.759  -0.259  1.00  0.00    -0.348 OA
ENDROOT
BRANCH   2   7
HETATM    7  O   UNL     1     -18.666 -10.333  -2.213  1.00  0.00    -0.348 OA
BRANCH   7   8
HETATM    8  C   UNL     1     -18.030 -11.210  -3.180  1.00  0.00     0.292 C 
HETATM    9  C   UNL     1     -16.909 -10.514  -3.991  1.00  0.00     0.204 C 
HETATM   10  C   UNL     1     -17.383  -9.761  -5.241  1.00  0.00     0.183 C 
HETATM   11  C   UNL     1     -18.586 -10.397  -5.975  1.00  0.00     0.183 C 
HETATM   12  C   UNL     1     -19.570 -11.064  -5.001  1.00  0.00     0.179 C 
HETATM   13  O   UNL     1     -18.930 -11.905  -4.027  1.00  0.00    -0.348 OA
BRANCH   9  14
HETATM   14  O   UNL     1     -16.108  -9.631  -3.181  1.00  0.00    -0.388 OA
HETATM   15  H   UNL     1     -15.363  -9.322  -3.730  1.00  0.00     0.210 HD
ENDBRANCH   9  14
BRANCH  10  16
HETATM   16  O   UNL     1     -16.269  -9.538  -6.123  1.00  0.00    -0.390 OA
HETATM   17  H   UNL     1     -15.642 -10.270  -5.969  1.00  0.00     0.210 HD
ENDBRANCH  10  16
BRANCH  11  18
HETATM   18  O   UNL     1     -18.313 -11.142  -7.172  1.00  0.00    -0.385 OA
HETATM   19  C   UNL     1     -17.557 -12.336  -7.098  1.00  0.00     0.202 C 
ENDBRANCH  11  18
BRANCH  12  20
HETATM   20  C   UNL     1     -20.615 -11.925  -5.716  1.00  0.00     0.198 C 
BRANCH  20  21
HETATM   21  O   UNL     1     -21.264 -11.131  -6.715  1.00  0.00    -0.398 OA
HETATM   22  H   UNL     1     -22.141 -10.915  -6.344  1.00  0.00     0.209 HD
ENDBRANCH  20  21
ENDBRANCH  12  20
ENDBRANCH   7   8
ENDBRANCH   2   7
BRANCH   1  23
HETATM   23  C   UNL     1     -18.394 -12.188   0.165  1.00  0.00     0.202 C 
BRANCH  23  24
HETATM   24  O   UNL     1     -17.245 -12.930  -0.285  1.00  0.00    -0.389 OA
BRANCH  24  25
HETATM   25  C   UNL     1     -16.060 -12.130  -0.178  1.00  0.00     0.163 C 
HETATM   26  C   UNL     1     -15.331 -12.369   1.135  1.00  0.00     0.033 C 
ENDBRANCH  24  25
ENDBRANCH  23  24
ENDBRANCH   1  23
BRANCH   3  27
HETATM   27  O   UNL     1     -20.890  -8.553  -0.830  1.00  0.00    -0.381 OA
BRANCH  27  28
HETATM   28  C   UNL     1     -21.119  -8.099  -2.148  1.00  0.00     0.164 C 
HETATM   29  C   UNL     1     -21.778  -6.729  -2.201  1.00  0.00     0.033 C 
ENDBRANCH  27  28
ENDBRANCH   3  27
BRANCH   4  30
HETATM   30  O   UNL     1     -22.942 -10.375  -0.154  1.00  0.00    -0.379 OA
BRANCH  30  31
HETATM   31  C   UNL     1     -23.214 -10.948  -1.420  1.00  0.00     0.164 C 
HETATM   32  C   UNL     1     -24.348 -11.945  -1.253  1.00  0.00     0.033 C 
ENDBRANCH  30  31
ENDBRANCH   4  30
BRANCH   5  33
HETATM   33  O   UNL     1     -22.394 -12.625   1.440  1.00  0.00    -0.363 OA
HETATM   34  C   UNL     1     -22.311 -14.038   1.357  1.00  0.00     0.204 C 
ENDBRANCH   5  33
TORSDOF 15
ENDMDL
MODEL 9
REMARK VINA RESULT:      -4.3      2.347      5.093
REMARK  15 active torsions:
REMARK  status: ('A' for Active; 'I' for Inactive)
REMARK    1  A    between atoms: C_2  and  O_3 
REMARK    2  A    between atoms: O_3  and  C_4 
REMARK    3  A    between atoms: C_4  and  C_5 
REMARK    4  A    between atoms: C_6  and  O_19 
REMARK    5  A    between atoms: C_7  and  O_16 
REMARK    6  A    between atoms: C_8  and  O_13 
REMARK    7  A    between atoms: C_9  and  O_11 
REMARK    8  A    between atoms: O_13  and  C_14 
REMARK    9  A    between atoms: O_16  and  C_17 
REMARK   10  A    between atoms: O_19  and  C_20 
REMARK   11  A    between atoms: C_21  and  O_31 
REMARK   12  A    between atoms: C_22  and  O_30 
REMARK   13  A    between atoms: C_23  and  O_28 
REMARK   14  A    between atoms: C_24  and  C_26 
REMARK   15  A    between atoms: C_26  and  O_27 
ROOT
HETATM    1  C   UNL     1     -19.419 -12.014  -1.464  1.00  0.00     0.180 C 
HETATM    2  C   UNL     1     -18.675 -11.635  -2.795  1.00  0.00     0.187 C 
HETATM    3  C   UNL     1     -18.556 -10.055  -2.846  1.00  0.00     0.186 C 
HETATM    4  C   UNL     1     -19.863  -9.293  -2.450  1.00  0.00     0.208 C 
HETATM    5  C   UNL     1     -20.592  -9.938  -1.240  1.00  0.00     0.291 C 
HETATM    6  O   UNL     1     -20.689 -11.349  -1.402  1.00  0.00    -0.348 OA
ENDROOT
BRANCH   2   7
HETATM    7  O   UNL     1     -17.378 -12.303  -2.930  1.00  0.00    -0.348 OA
BRANCH   7   8
HETATM    8  C   UNL     1     -17.381 -13.464  -3.802  1.00  0.00     0.292 C 
HETATM    9  C   UNL     1     -16.937 -14.765  -3.090  1.00  0.00     0.204 C 
HETATM   10  C   UNL     1     -15.423 -15.005  -3.060  1.00  0.00     0.183 C 
HETATM   11  C   UNL     1     -14.653 -14.505  -4.305  1.00  0.00     0.183 C 
HETATM   12  C   UNL     1     -15.265 -13.221  -4.885  1.00  0.00     0.179 C 
HETATM   13  O   UNL     1     -16.695 -13.282  -5.029  1.00  0.00    -0.348 OA
BRANCH   9  14
HETATM   14  O   UNL     1     -17.460 -14.867  -1.751  1.00  0.00    -0.388 OA
HETATM   15  H   UNL     1     -16.787 -15.315  -1.204  1.00  0.00     0.210 HD
ENDBRANCH   9  14
BRANCH  10  16
HETATM   16  O   UNL     1     -15.158 -16.391  -2.782  1.00  0.00    -0.390 OA
HETATM   17  H   UNL     1     -15.688 -16.909  -3.417  1.00  0.00     0.210 HD
ENDBRANCH  10  16
BRANCH  11  18
HETATM   18  O   UNL     1     -14.257 -15.485  -5.276  1.00  0.00    -0.385 OA
HETATM   19  C   UNL     1     -12.936 -15.993  -5.261  1.00  0.00     0.202 C 
ENDBRANCH  11  18
BRANCH  12  20
HETATM   20  C   UNL     1     -14.693 -12.864  -6.259  1.00  0.00     0.198 C 
BRANCH  20  21
HETATM   21  O   UNL     1     -13.284 -12.647  -6.131  1.00  0.00    -0.398 OA
HETATM   22  H   UNL     1     -12.872 -13.199  -6.823  1.00  0.00     0.209 HD
ENDBRANCH  20  21
ENDBRANCH  12  20
ENDBRANCH   7   8
ENDBRANCH   2   7
BRANCH   1  23
HETATM   23  C   UNL     1     -18.556 -11.802  -0.186  1.00  0.00     0.202 C 
BRANCH  23  24
HETATM   24  O   UNL     1     -17.962 -13.025   0.289  1.00  0.00    -0.389 OA
BRANCH  24  25
HETATM   25  C   UNL     1     -16.758 -12.746   1.017  1.00  0.00     0.163 C 
HETATM   26  C   UNL     1     -15.769 -11.938   0.190  1.00  0.00     0.033 C 
ENDBRANCH  24  25
ENDBRANCH  23  24
ENDBRANCH   1  23
BRANCH   3  27
HETATM   27  O   UNL     1     -17.926  -9.349  -3.930  1.00  0.00    -0.381 OA
BRANCH  27  28
HETATM   28  C   UNL     1     -17.854  -9.852  -5.249  1.00  0.00     0.164 C 
HETATM   29  C   UNL     1     -16.458  -9.764  -5.845  1.00  0.00     0.033 C 
ENDBRANCH  27  28
ENDBRANCH   3  27
BRANCH   4  30
HETATM   30  O   UNL     1     -20.705  -8.981  -3.576  1.00  0.00    -0.379 OA
BRANCH  30  31
HETATM   31  C   UNL     1     -20.900  -7.613  -3.887  1.00  0.00     0.164 C 
HETATM   32  C   UNL     1     -20.761  -7.447  -5.391  1.00  0.00     0.033 C 
ENDBRANCH  30  31
ENDBRANCH   4  30
BRANCH   5  33
HETATM   33  O   UNL     1     -21.894  -9.370  -1.057  1.00  0.00    -0.363 OA
HETATM   34  C   UNL     1     -22.893 -10.367  -0.921  1.00  0.00     0.204 C 
ENDBRANCH   5  33
TORSDOF 15
ENDMDL
