MODEL 1
REMARK VINA RESULT:      -5.9      0.000      0.000
REMARK  9 active torsions:
REMARK  status: ('A' for Active; 'I' for Inactive)
REMARK    1  A    between atoms: C_2  and  O_4 
REMARK    2  A    between atoms: O_4  and  C_5 
REMARK    3  A    between atoms: C_5  and  C_7 
REMARK    4  A    between atoms: C_7  and  C_8 
REMARK    5  A    between atoms: C_8  and  C_9 
REMARK    6  A    between atoms: C_9  and  C_10 
REMARK    7  A    between atoms: C_10  and  C_11 
REMARK    8  A    between atoms: C_11  and  O_13 
REMARK    9  A    between atoms: O_13  and  C_14 
ROOT
HETATM    1  C   UNL     1     -21.258  -4.637  -8.485  1.00  0.00     0.010 C 
ENDROOT
BRANCH   1   2
HETATM    2  C   UNL     1     -20.292  -4.356  -7.328  1.00  0.00     0.111 C 
BRANCH   2   3
HETATM    3  C   UNL     1     -20.108  -5.585  -6.469  1.00  0.00     0.259 C 
HETATM    4  O   UNL     1     -19.671  -6.654  -6.874  1.00  0.00    -0.265 OA
BRANCH   3   5
HETATM    5  O   UNL     1     -20.486  -5.334  -5.184  1.00  0.00    -0.317 OA
BRANCH   5   6
HETATM    6  C   UNL     1     -21.249  -6.384  -4.554  1.00  0.00     0.123 C 
HETATM    7  C   UNL     1     -21.347  -6.118  -3.056  1.00  0.00     0.040 C 
HETATM    8  C   UNL     1     -22.640  -6.404  -5.181  1.00  0.00     0.040 C 
ENDBRANCH   5   6
ENDBRANCH   3   5
ENDBRANCH   2   3
ENDBRANCH   1   2
BRANCH   1   9
HETATM    9  C   UNL     1     -22.557  -3.845  -8.352  1.00  0.00     0.010 C 
BRANCH   9  10
HETATM   10  C   UNL     1     -23.697  -4.473  -9.159  1.00  0.00     0.111 C 
BRANCH  10  11
HETATM   11  C   UNL     1     -24.409  -3.429  -9.991  1.00  0.00     0.259 C 
HETATM   12  O   UNL     1     -25.594  -3.141  -9.884  1.00  0.00    -0.265 OA
BRANCH  11  13
HETATM   13  O   UNL     1     -23.544  -2.862 -10.881  1.00  0.00    -0.317 OA
BRANCH  13  14
HETATM   14  C   UNL     1     -23.174  -3.696 -11.997  1.00  0.00     0.123 C 
HETATM   15  C   UNL     1     -23.715  -3.099 -13.292  1.00  0.00     0.040 C 
HETATM   16  C   UNL     1     -21.652  -3.776 -12.043  1.00  0.00     0.040 C 
ENDBRANCH  13  14
ENDBRANCH  11  13
ENDBRANCH  10  11
ENDBRANCH   9  10
ENDBRANCH   1   9
TORSDOF 9
ENDMDL
MODEL 2
REMARK VINA RESULT:      -5.9      0.558      6.932
REMARK  9 active torsions:
REMARK  status: ('A' for Active; 'I' for Inactive)
REMARK    1  A    between atoms: C_2  and  O_4 
REMARK    2  A    between atoms: O_4  and  C_5 
REMARK    3  A    between atoms: C_5  and  C_7 
REMARK    4  A    between atoms: C_7  and  C_8 
REMARK    5  A    between atoms: C_8  and  C_9 
REMARK    6  A    between atoms: C_9  and  C_10 
REMARK    7  A    between atoms: C_10  and  C_11 
REMARK    8  A    between atoms: C_11  and  O_13 
REMARK    9  A    between atoms: O_13  and  C_14 
ROOT
HETATM    1  C   UNL     1     -22.185  -3.653  -8.072  1.00  0.00     0.010 C 
ENDROOT
BRANCH   1   2
HETATM    2  C   UNL     1     -23.515  -4.324  -8.435  1.00  0.00     0.111 C 
BRANCH   2   3
HETATM    3  C   UNL     1     -24.178  -3.615  -9.592  1.00  0.00     0.259 C 
HETATM    4  O   UNL     1     -25.110  -2.830  -9.480  1.00  0.00    -0.265 OA
BRANCH   3   5
HETATM    5  O   UNL     1     -23.591  -3.966 -10.771  1.00  0.00    -0.317 OA
BRANCH   5   6
HETATM    6  C   UNL     1     -23.076  -2.866 -11.549  1.00  0.00     0.123 C 
HETATM    7  C   UNL     1     -21.566  -3.012 -11.705  1.00  0.00     0.040 C 
HETATM    8  C   UNL     1     -23.754  -2.889 -12.916  1.00  0.00     0.040 C 
ENDBRANCH   5   6
ENDBRANCH   3   5
ENDBRANCH   2   3
ENDBRANCH   1   2
BRANCH   1   9
HETATM    9  C   UNL     1     -20.989  -4.557  -8.361  1.00  0.00     0.010 C 
BRANCH   9  10
HETATM   10  C   UNL     1     -19.935  -4.488  -7.251  1.00  0.00     0.111 C 
BRANCH  10  11
HETATM   11  C   UNL     1     -19.979  -5.728  -6.387  1.00  0.00     0.259 C 
HETATM   12  O   UNL     1     -19.665  -6.851  -6.761  1.00  0.00    -0.265 OA
BRANCH  11  13
HETATM   13  O   UNL     1     -20.425  -5.418  -5.135  1.00  0.00    -0.317 OA
BRANCH  13  14
HETATM   14  C   UNL     1     -21.232  -6.430  -4.500  1.00  0.00     0.123 C 
HETATM   15  C   UNL     1     -21.412  -6.098  -3.022  1.00  0.00     0.040 C 
HETATM   16  C   UNL     1     -22.583  -6.470  -5.206  1.00  0.00     0.040 C 
ENDBRANCH  13  14
ENDBRANCH  11  13
ENDBRANCH  10  11
ENDBRANCH   9  10
ENDBRANCH   1   9
TORSDOF 9
ENDMDL
MODEL 3
REMARK VINA RESULT:      -5.8     11.850     15.250
REMARK  9 active torsions:
REMARK  status: ('A' for Active; 'I' for Inactive)
REMARK    1  A    between atoms: C_2  and  O_4 
REMARK    2  A    between atoms: O_4  and  C_5 
REMARK    3  A    between atoms: C_5  and  C_7 
REMARK    4  A    between atoms: C_7  and  C_8 
REMARK    5  A    between atoms: C_8  and  C_9 
REMARK    6  A    between atoms: C_9  and  C_10 
REMARK    7  A    between atoms: C_10  and  C_11 
REMARK    8  A    between atoms: C_11  and  O_13 
REMARK    9  A    between atoms: O_13  and  C_14 
ROOT
HETATM    1  C   UNL     1     -36.140  -1.035 -10.592  1.00  0.00     0.010 C 
ENDROOT
BRANCH   1   2
HETATM    2  C   UNL     1     -35.790  -0.226 -11.846  1.00  0.00     0.111 C 
BRANCH   2   3
HETATM    3  C   UNL     1     -36.792  -0.479 -12.948  1.00  0.00     0.259 C 
HETATM    4  O   UNL     1     -38.000  -0.326 -12.834  1.00  0.00    -0.265 OA
BRANCH   3   5
HETATM    5  O   UNL     1     -36.162  -0.893 -14.085  1.00  0.00    -0.317 OA
BRANCH   5   6
HETATM    6  C   UNL     1     -36.393  -0.069 -15.247  1.00  0.00     0.123 C 
HETATM    7  C   UNL     1     -35.502   1.167 -15.183  1.00  0.00     0.040 C 
HETATM    8  C   UNL     1     -36.067  -0.894 -16.487  1.00  0.00     0.040 C 
ENDBRANCH   5   6
ENDBRANCH   3   5
ENDBRANCH   2   3
ENDBRANCH   1   2
BRANCH   1   9
HETATM    9  C   UNL     1     -35.418  -2.381 -10.560  1.00  0.00     0.010 C 
BRANCH   9  10
HETATM   10  C   UNL     1     -33.948  -2.254 -10.971  1.00  0.00     0.111 C 
BRANCH  10  11
HETATM   11  C   UNL     1     -33.304  -3.616 -11.104  1.00  0.00     0.259 C 
HETATM   12  O   UNL     1     -32.321  -3.860 -11.793  1.00  0.00    -0.265 OA
BRANCH  11  13
HETATM   13  O   UNL     1     -33.978  -4.534 -10.352  1.00  0.00    -0.317 OA
BRANCH  13  14
HETATM   14  C   UNL     1     -34.093  -5.846 -10.940  1.00  0.00     0.123 C 
HETATM   15  C   UNL     1     -34.752  -6.802  -9.950  1.00  0.00     0.040 C 
HETATM   16  C   UNL     1     -34.937  -5.725 -12.205  1.00  0.00     0.040 C 
ENDBRANCH  13  14
ENDBRANCH  11  13
ENDBRANCH  10  11
ENDBRANCH   9  10
ENDBRANCH   1   9
TORSDOF 9
ENDMDL
MODEL 4
REMARK VINA RESULT:      -5.8     11.923     14.728
REMARK  9 active torsions:
REMARK  status: ('A' for Active; 'I' for Inactive)
REMARK    1  A    between atoms: C_2  and  O_4 
REMARK    2  A    between atoms: O_4  and  C_5 
REMARK    3  A    between atoms: C_5  and  C_7 
REMARK    4  A    between atoms: C_7  and  C_8 
REMARK    5  A    between atoms: C_8  and  C_9 
REMARK    6  A    between atoms: C_9  and  C_10 
REMARK    7  A    between atoms: C_10  and  C_11 
REMARK    8  A    between atoms: C_11  and  O_13 
REMARK    9  A    between atoms: O_13  and  C_14 
ROOT
HETATM    1  C   UNL     1     -34.010  -1.802 -11.404  1.00  0.00     0.010 C 
ENDROOT
BRANCH   1   2
HETATM    2  C   UNL     1     -35.483  -1.833 -11.827  1.00  0.00     0.111 C 
BRANCH   2   3
HETATM    3  C   UNL     1     -36.072  -0.442 -11.830  1.00  0.00     0.259 C 
HETATM    4  O   UNL     1     -36.087   0.305 -10.862  1.00  0.00    -0.265 OA
BRANCH   3   5
HETATM    5  O   UNL     1     -36.575  -0.136 -13.059  1.00  0.00    -0.317 OA
BRANCH   5   6
HETATM    6  C   UNL     1     -35.623  -0.192 -14.142  1.00  0.00     0.123 C 
HETATM    7  C   UNL     1     -36.363  -0.308 -15.470  1.00  0.00     0.040 C 
HETATM    8  C   UNL     1     -34.790   1.085 -14.110  1.00  0.00     0.040 C 
ENDBRANCH   5   6
ENDBRANCH   3   5
ENDBRANCH   2   3
ENDBRANCH   1   2
BRANCH   1   9
HETATM    9  C   UNL     1     -33.600  -3.074 -10.663  1.00  0.00     0.010 C 
BRANCH   9  10
HETATM   10  C   UNL     1     -32.987  -4.115 -11.606  1.00  0.00     0.111 C 
BRANCH  10  11
HETATM   11  C   UNL     1     -33.891  -5.319 -11.742  1.00  0.00     0.259 C 
HETATM   12  O   UNL     1     -34.884  -5.370 -12.457  1.00  0.00    -0.265 OA
BRANCH  11  13
HETATM   13  O   UNL     1     -33.447  -6.337 -10.950  1.00  0.00    -0.317 OA
BRANCH  13  14
HETATM   14  C   UNL     1     -34.450  -7.296 -10.557  1.00  0.00     0.123 C 
HETATM   15  C   UNL     1     -33.784  -8.603 -10.139  1.00  0.00     0.040 C 
HETATM   16  C   UNL     1     -35.239  -6.704  -9.394  1.00  0.00     0.040 C 
ENDBRANCH  13  14
ENDBRANCH  11  13
ENDBRANCH  10  11
ENDBRANCH   9  10
ENDBRANCH   1   9
TORSDOF 9
ENDMDL
MODEL 5
REMARK VINA RESULT:      -5.6      2.094      6.896
REMARK  9 active torsions:
REMARK  status: ('A' for Active; 'I' for Inactive)
REMARK    1  A    between atoms: C_2  and  O_4 
REMARK    2  A    between atoms: O_4  and  C_5 
REMARK    3  A    between atoms: C_5  and  C_7 
REMARK    4  A    between atoms: C_7  and  C_8 
REMARK    5  A    between atoms: C_8  and  C_9 
REMARK    6  A    between atoms: C_9  and  C_10 
REMARK    7  A    between atoms: C_10  and  C_11 
REMARK    8  A    between atoms: C_11  and  O_13 
REMARK    9  A    between atoms: O_13  and  C_14 
ROOT
HETATM    1  C   UNL     1     -20.112  -5.273  -7.716  1.00  0.00     0.010 C 
ENDROOT
BRANCH   1   2
HETATM    2  C   UNL     1     -19.829  -4.046  -8.591  1.00  0.00     0.111 C 
BRANCH   2   3
HETATM    3  C   UNL     1     -20.604  -4.116  -9.885  1.00  0.00     0.259 C 
HETATM    4  O   UNL     1     -20.223  -3.641 -10.947  1.00  0.00    -0.265 OA
BRANCH   3   5
HETATM    5  O   UNL     1     -21.777  -4.787  -9.708  1.00  0.00    -0.317 OA
BRANCH   5   6
HETATM    6  C   UNL     1     -22.962  -4.062 -10.097  1.00  0.00     0.123 C 
HETATM    7  C   UNL     1     -23.645  -4.781 -11.255  1.00  0.00     0.040 C 
HETATM    8  C   UNL     1     -23.895  -3.991  -8.893  1.00  0.00     0.040 C 
ENDBRANCH   5   6
ENDBRANCH   3   5
ENDBRANCH   2   3
ENDBRANCH   1   2
BRANCH   1   9
HETATM    9  C   UNL     1     -20.554  -4.882  -6.307  1.00  0.00     0.010 C 
BRANCH   9  10
HETATM   10  C   UNL     1     -20.485  -6.064  -5.335  1.00  0.00     0.111 C 
BRANCH  10  11
HETATM   11  C   UNL     1     -21.863  -6.430  -4.831  1.00  0.00     0.259 C 
HETATM   12  O   UNL     1     -22.910  -5.962  -5.260  1.00  0.00    -0.265 OA
BRANCH  11  13
HETATM   13  O   UNL     1     -21.771  -7.351  -3.829  1.00  0.00    -0.317 OA
BRANCH  13  14
HETATM   14  C   UNL     1     -21.186  -6.868  -2.602  1.00  0.00     0.123 C 
HETATM   15  C   UNL     1     -22.279  -6.336  -1.681  1.00  0.00     0.040 C 
HETATM   16  C   UNL     1     -20.451  -8.029  -1.941  1.00  0.00     0.040 C 
ENDBRANCH  13  14
ENDBRANCH  11  13
ENDBRANCH  10  11
ENDBRANCH   9  10
ENDBRANCH   1   9
TORSDOF 9
ENDMDL
MODEL 6
REMARK VINA RESULT:      -5.5     11.905     13.502
REMARK  9 active torsions:
REMARK  status: ('A' for Active; 'I' for Inactive)
REMARK    1  A    between atoms: C_2  and  O_4 
REMARK    2  A    between atoms: O_4  and  C_5 
REMARK    3  A    between atoms: C_5  and  C_7 
REMARK    4  A    between atoms: C_7  and  C_8 
REMARK    5  A    between atoms: C_8  and  C_9 
REMARK    6  A    between atoms: C_9  and  C_10 
REMARK    7  A    between atoms: C_10  and  C_11 
REMARK    8  A    between atoms: C_11  and  O_13 
REMARK    9  A    between atoms: O_13  and  C_14 
ROOT
HETATM    1  C   UNL     1     -33.148  -2.777 -10.978  1.00  0.00     0.010 C 
ENDROOT
BRANCH   1   2
HETATM    2  C   UNL     1     -33.097  -3.835 -12.086  1.00  0.00     0.111 C 
BRANCH   2   3
HETATM    3  C   UNL     1     -34.128  -4.914 -11.850  1.00  0.00     0.259 C 
HETATM    4  O   UNL     1     -35.056  -5.161 -12.607  1.00  0.00    -0.265 OA
BRANCH   3   5
HETATM    5  O   UNL     1     -33.874  -5.575 -10.685  1.00  0.00    -0.317 OA
BRANCH   5   6
HETATM    6  C   UNL     1     -34.346  -6.938 -10.640  1.00  0.00     0.123 C 
HETATM    7  C   UNL     1     -33.173  -7.877 -10.383  1.00  0.00     0.040 C 
HETATM    8  C   UNL     1     -35.371  -7.050  -9.516  1.00  0.00     0.040 C 
ENDBRANCH   5   6
ENDBRANCH   3   5
ENDBRANCH   2   3
ENDBRANCH   1   2
BRANCH   1   9
HETATM    9  C   UNL     1     -34.481  -2.032 -10.959  1.00  0.00     0.010 C 
BRANCH   9  10
HETATM   10  C   UNL     1     -34.539  -0.933 -12.026  1.00  0.00     0.111 C 
BRANCH  10  11
HETATM   11  C   UNL     1     -35.704  -1.153 -12.965  1.00  0.00     0.259 C 
HETATM   12  O   UNL     1     -36.880  -1.184 -12.624  1.00  0.00    -0.265 OA
BRANCH  11  13
HETATM   13  O   UNL     1     -35.256  -1.318 -14.244  1.00  0.00    -0.317 OA
BRANCH  13  14
HETATM   14  C   UNL     1     -35.923  -0.514 -15.238  1.00  0.00     0.123 C 
HETATM   15  C   UNL     1     -35.438   0.930 -15.147  1.00  0.00     0.040 C 
HETATM   16  C   UNL     1     -35.604  -1.097 -16.610  1.00  0.00     0.040 C 
ENDBRANCH  13  14
ENDBRANCH  11  13
ENDBRANCH  10  11
ENDBRANCH   9  10
ENDBRANCH   1   9
TORSDOF 9
ENDMDL
MODEL 7
REMARK VINA RESULT:      -5.5      1.637      7.180
REMARK  9 active torsions:
REMARK  status: ('A' for Active; 'I' for Inactive)
REMARK    1  A    between atoms: C_2  and  O_4 
REMARK    2  A    between atoms: O_4  and  C_5 
REMARK    3  A    between atoms: C_5  and  C_7 
REMARK    4  A    between atoms: C_7  and  C_8 
REMARK    5  A    between atoms: C_8  and  C_9 
REMARK    6  A    between atoms: C_9  and  C_10 
REMARK    7  A    between atoms: C_10  and  C_11 
REMARK    8  A    between atoms: C_11  and  O_13 
REMARK    9  A    between atoms: O_13  and  C_14 
ROOT
HETATM    1  C   UNL     1     -20.788  -5.440  -7.778  1.00  0.00     0.010 C 
ENDROOT
BRANCH   1   2
HETATM    2  C   UNL     1     -21.655  -4.177  -7.710  1.00  0.00     0.111 C 
BRANCH   2   3
HETATM    3  C   UNL     1     -22.754  -4.222  -8.746  1.00  0.00     0.259 C 
HETATM    4  O   UNL     1     -23.917  -3.908  -8.534  1.00  0.00    -0.265 OA
BRANCH   3   5
HETATM    5  O   UNL     1     -22.267  -4.651  -9.945  1.00  0.00    -0.317 OA
BRANCH   5   6
HETATM    6  C   UNL     1     -21.815  -3.607 -10.831  1.00  0.00     0.123 C 
HETATM    7  C   UNL     1     -20.350  -3.836 -11.186  1.00  0.00     0.040 C 
HETATM    8  C   UNL     1     -22.677  -3.643 -12.089  1.00  0.00     0.040 C 
ENDBRANCH   5   6
ENDBRANCH   3   5
ENDBRANCH   2   3
ENDBRANCH   1   2
BRANCH   1   9
HETATM    9  C   UNL     1     -19.944  -5.623  -6.517  1.00  0.00     0.010 C 
BRANCH   9  10
HETATM   10  C   UNL     1     -20.667  -5.118  -5.264  1.00  0.00     0.111 C 
BRANCH  10  11
HETATM   11  C   UNL     1     -21.575  -6.185  -4.696  1.00  0.00     0.259 C 
HETATM   12  O   UNL     1     -22.764  -6.304  -4.963  1.00  0.00    -0.265 OA
BRANCH  11  13
HETATM   13  O   UNL     1     -20.881  -6.991  -3.841  1.00  0.00    -0.317 OA
BRANCH  13  14
HETATM   14  C   UNL     1     -21.582  -7.357  -2.635  1.00  0.00     0.123 C 
HETATM   15  C   UNL     1     -20.662  -8.164  -1.725  1.00  0.00     0.040 C 
HETATM   16  C   UNL     1     -22.028  -6.075  -1.940  1.00  0.00     0.040 C 
ENDBRANCH  13  14
ENDBRANCH  11  13
ENDBRANCH  10  11
ENDBRANCH   9  10
ENDBRANCH   1   9
TORSDOF 9
ENDMDL
MODEL 8
REMARK VINA RESULT:      -5.5      2.064      3.007
REMARK  9 active torsions:
REMARK  status: ('A' for Active; 'I' for Inactive)
REMARK    1  A    between atoms: C_2  and  O_4 
REMARK    2  A    between atoms: O_4  and  C_5 
REMARK    3  A    between atoms: C_5  and  C_7 
REMARK    4  A    between atoms: C_7  and  C_8 
REMARK    5  A    between atoms: C_8  and  C_9 
REMARK    6  A    between atoms: C_9  and  C_10 
REMARK    7  A    between atoms: C_10  and  C_11 
REMARK    8  A    between atoms: C_11  and  O_13 
REMARK    9  A    between atoms: O_13  and  C_14 
ROOT
HETATM    1  C   UNL     1     -20.906  -5.524  -5.507  1.00  0.00     0.010 C 
ENDROOT
BRANCH   1   2
HETATM    2  C   UNL     1     -21.238  -6.967  -5.905  1.00  0.00     0.111 C 
BRANCH   2   3
HETATM    3  C   UNL     1     -21.165  -7.887  -4.709  1.00  0.00     0.259 C 
HETATM    4  O   UNL     1     -21.345  -9.096  -4.754  1.00  0.00    -0.265 OA
BRANCH   3   5
HETATM    5  O   UNL     1     -20.864  -7.185  -3.580  1.00  0.00    -0.317 OA
BRANCH   5   6
HETATM    6  C   UNL     1     -21.593  -7.581  -2.400  1.00  0.00     0.123 C 
HETATM    7  C   UNL     1     -20.643  -8.247  -1.410  1.00  0.00     0.040 C 
HETATM    8  C   UNL     1     -22.214  -6.333  -1.781  1.00  0.00     0.040 C 
ENDBRANCH   5   6
ENDBRANCH   3   5
ENDBRANCH   2   3
ENDBRANCH   1   2
BRANCH   1   9
HETATM    9  C   UNL     1     -20.245  -4.753  -6.647  1.00  0.00     0.010 C 
BRANCH   9  10
HETATM   10  C   UNL     1     -21.145  -3.634  -7.181  1.00  0.00     0.111 C 
BRANCH  10  11
HETATM   11  C   UNL     1     -22.279  -4.201  -8.006  1.00  0.00     0.259 C 
HETATM   12  O   UNL     1     -23.458  -4.188  -7.673  1.00  0.00    -0.265 OA
BRANCH  11  13
HETATM   13  O   UNL     1     -21.801  -4.732  -9.168  1.00  0.00    -0.317 OA
BRANCH  13  14
HETATM   14  C   UNL     1     -22.080  -3.964 -10.356  1.00  0.00     0.123 C 
HETATM   15  C   UNL     1     -20.789  -3.719 -11.130  1.00  0.00     0.040 C 
HETATM   16  C   UNL     1     -23.070  -4.752 -11.207  1.00  0.00     0.040 C 
ENDBRANCH  13  14
ENDBRANCH  11  13
ENDBRANCH  10  11
ENDBRANCH   9  10
ENDBRANCH   1   9
TORSDOF 9
ENDMDL
MODEL 9
REMARK VINA RESULT:      -5.4      3.697      6.637
REMARK  9 active torsions:
REMARK  status: ('A' for Active; 'I' for Inactive)
REMARK    1  A    between atoms: C_2  and  O_4 
REMARK    2  A    between atoms: O_4  and  C_5 
REMARK    3  A    between atoms: C_5  and  C_7 
REMARK    4  A    between atoms: C_7  and  C_8 
REMARK    5  A    between atoms: C_8  and  C_9 
REMARK    6  A    between atoms: C_9  and  C_10 
REMARK    7  A    between atoms: C_10  and  C_11 
REMARK    8  A    between atoms: C_11  and  O_13 
REMARK    9  A    between atoms: O_13  and  C_14 
ROOT
HETATM    1  C   UNL     1     -21.389  -7.188  -2.207  1.00  0.00     0.010 C 
ENDROOT
BRANCH   1   2
HETATM    2  C   UNL     1     -22.337  -6.770  -1.077  1.00  0.00     0.111 C 
BRANCH   2   3
HETATM    3  C   UNL     1     -22.737  -7.961  -0.240  1.00  0.00     0.259 C 
HETATM    4  O   UNL     1     -23.234  -7.888   0.876  1.00  0.00    -0.265 OA
BRANCH   3   5
HETATM    5  O   UNL     1     -22.476  -9.124  -0.902  1.00  0.00    -0.317 OA
BRANCH   5   6
HETATM    6  C   UNL     1     -22.900 -10.324  -0.222  1.00  0.00     0.123 C 
HETATM    7  C   UNL     1     -23.759 -11.166  -1.158  1.00  0.00     0.040 C 
HETATM    8  C   UNL     1     -21.655 -11.100   0.196  1.00  0.00     0.040 C 
ENDBRANCH   5   6
ENDBRANCH   3   5
ENDBRANCH   2   3
ENDBRANCH   1   2
BRANCH   1   9
HETATM    9  C   UNL     1     -21.350  -6.158  -3.334  1.00  0.00     0.010 C 
BRANCH   9  10
HETATM   10  C   UNL     1     -22.049  -6.664  -4.599  1.00  0.00     0.111 C 
BRANCH  10  11
HETATM   11  C   UNL     1     -21.052  -6.886  -5.715  1.00  0.00     0.259 C 
HETATM   12  O   UNL     1     -20.188  -7.754  -5.716  1.00  0.00    -0.265 OA
BRANCH  11  13
HETATM   13  O   UNL     1     -21.251  -5.979  -6.715  1.00  0.00    -0.317 OA
BRANCH  13  14
HETATM   14  C   UNL     1     -20.590  -4.710  -6.534  1.00  0.00     0.123 C 
HETATM   15  C   UNL     1     -19.213  -4.745  -7.190  1.00  0.00     0.040 C 
HETATM   16  C   UNL     1     -21.457  -3.631  -7.173  1.00  0.00     0.040 C 
ENDBRANCH  13  14
ENDBRANCH  11  13
ENDBRANCH  10  11
ENDBRANCH   9  10
ENDBRANCH   1   9
TORSDOF 9
ENDMDL
