MODEL 1
REMARK VINA RESULT:      -6.7      0.000      0.000
REMARK  21 active torsions:
REMARK  status: ('A' for Active; 'I' for Inactive)
REMARK    1  A    between atoms: C_2  and  C_3 
REMARK    2  A    between atoms: C_3  and  C_4 
REMARK    3  A    between atoms: C_4  and  C_5 
REMARK    4  A    between atoms: C_5  and  C_6 
REMARK    5  A    between atoms: C_6  and  C_7 
REMARK    6  A    between atoms: C_7  and  C_8 
REMARK    7  A    between atoms: C_8  and  C_9 
REMARK    8  A    between atoms: C_9  and  C_10 
REMARK    9  A    between atoms: C_10  and  C_11 
REMARK   10  A    between atoms: C_11  and  C_12 
REMARK   11  A    between atoms: C_12  and  C_13 
REMARK   12  A    between atoms: C_13  and  C_14 
REMARK   13  A    between atoms: C_14  and  C_15 
REMARK   14  A    between atoms: C_15  and  C_16 
REMARK   15  A    between atoms: C_16  and  O_17 
REMARK   16  A    between atoms: O_17  and  C_18 
REMARK   17  A    between atoms: C_18  and  C_20 
REMARK   18  A    between atoms: C_20  and  C_21 
REMARK   19  A    between atoms: C_20  and  C_23 
REMARK   20  A    between atoms: C_23  and  C_24 
REMARK   21  A    between atoms: C_24  and  C_25 
ROOT
HETATM    1  C   UNL     1     -21.920  -7.591  -1.428  1.00  0.00     0.000 C 
ENDROOT
BRANCH   1   2
HETATM    2  C   UNL     1     -22.072  -6.163  -1.934  1.00  0.00     0.000 C 
BRANCH   2   3
HETATM    3  C   UNL     1     -21.304  -5.976  -3.224  1.00  0.00     0.000 C 
BRANCH   3   4
HETATM    4  C   UNL     1     -21.998  -6.720  -4.350  1.00  0.00     0.000 C 
BRANCH   4   5
HETATM    5  C   UNL     1     -21.876  -5.929  -5.639  1.00  0.00     0.000 C 
BRANCH   5   6
HETATM    6  C   UNL     1     -20.419  -5.847  -6.059  1.00  0.00     0.000 C 
BRANCH   6   7
HETATM    7  C   UNL     1     -20.201  -4.620  -6.924  1.00  0.00     0.000 C 
BRANCH   7   8
HETATM    8  C   UNL     1     -21.539  -4.053  -7.360  1.00  0.00     0.000 C 
BRANCH   8   9
HETATM    9  C   UNL     1     -21.736  -4.279  -8.847  1.00  0.00     0.000 C 
BRANCH   9  10
HETATM   10  C   UNL     1     -20.390  -4.308  -9.548  1.00  0.00     0.000 C 
BRANCH  10  11
HETATM   11  C   UNL     1     -20.565  -3.976 -11.021  1.00  0.00    -0.000 C 
BRANCH  11  12
HETATM   12  C   UNL     1     -21.796  -3.108 -11.225  1.00  0.00    -0.005 C 
HETATM   13  C   UNL     1     -22.325  -3.274 -12.634  1.00  0.00     0.005 C 
ENDBRANCH  11  12
ENDBRANCH  10  11
ENDBRANCH   9  10
ENDBRANCH   8   9
ENDBRANCH   7   8
ENDBRANCH   6   7
ENDBRANCH   5   6
ENDBRANCH   4   5
ENDBRANCH   3   4
ENDBRANCH   2   3
ENDBRANCH   1   2
BRANCH   1  14
HETATM   14  C   UNL     1     -22.510  -7.730  -0.033  1.00  0.00     0.002 C 
BRANCH  14  15
HETATM   15  C   UNL     1     -21.573  -8.513   0.884  1.00  0.00     0.027 C 
BRANCH  15  16
HETATM   16  C   UNL     1     -20.971  -9.704   0.157  1.00  0.00     0.178 C 
BRANCH  16  17
HETATM   17  O   UNL     1     -20.751 -10.796   1.074  1.00  0.00    -0.321 OA
BRANCH  17  18
HETATM   18  C   UNL     1     -21.061 -12.021   0.567  1.00  0.00     0.263 C 
HETATM   19  O   UNL     1     -20.263 -12.725  -0.074  1.00  0.00    -0.265 OA
BRANCH  18  20
HETATM   20  C   UNL     1     -22.490 -12.450   0.880  1.00  0.00     0.085 C 
BRANCH  20  21
HETATM   21  C   UNL     1     -23.336 -12.600  -0.398  1.00  0.00     0.010 C 
HETATM   22  C   UNL     1     -24.057 -11.322  -0.778  1.00  0.00     0.006 C 
ENDBRANCH  20  21
BRANCH  20  23
HETATM   23  C   UNL     1     -22.474 -13.801   1.628  1.00  0.00     0.014 C 
BRANCH  23  24
HETATM   24  C   UNL     1     -23.737 -14.025   2.461  1.00  0.00     0.000 C 
BRANCH  24  25
HETATM   25  C   UNL     1     -23.697 -15.371   3.174  1.00  0.00    -0.005 C 
HETATM   26  C   UNL     1     -22.867 -15.258   4.440  1.00  0.00     0.005 C 
ENDBRANCH  24  25
ENDBRANCH  23  24
ENDBRANCH  20  23
ENDBRANCH  18  20
ENDBRANCH  17  18
ENDBRANCH  16  17
ENDBRANCH  15  16
ENDBRANCH  14  15
ENDBRANCH   1  14
TORSDOF 21
ENDMDL
MODEL 2
REMARK VINA RESULT:      -6.6      2.465      4.294
REMARK  21 active torsions:
REMARK  status: ('A' for Active; 'I' for Inactive)
REMARK    1  A    between atoms: C_2  and  C_3 
REMARK    2  A    between atoms: C_3  and  C_4 
REMARK    3  A    between atoms: C_4  and  C_5 
REMARK    4  A    between atoms: C_5  and  C_6 
REMARK    5  A    between atoms: C_6  and  C_7 
REMARK    6  A    between atoms: C_7  and  C_8 
REMARK    7  A    between atoms: C_8  and  C_9 
REMARK    8  A    between atoms: C_9  and  C_10 
REMARK    9  A    between atoms: C_10  and  C_11 
REMARK   10  A    between atoms: C_11  and  C_12 
REMARK   11  A    between atoms: C_12  and  C_13 
REMARK   12  A    between atoms: C_13  and  C_14 
REMARK   13  A    between atoms: C_14  and  C_15 
REMARK   14  A    between atoms: C_15  and  C_16 
REMARK   15  A    between atoms: C_16  and  O_17 
REMARK   16  A    between atoms: O_17  and  C_18 
REMARK   17  A    between atoms: C_18  and  C_20 
REMARK   18  A    between atoms: C_20  and  C_21 
REMARK   19  A    between atoms: C_20  and  C_23 
REMARK   20  A    between atoms: C_23  and  C_24 
REMARK   21  A    between atoms: C_24  and  C_25 
ROOT
HETATM    1  C   UNL     1     -20.105  -7.939  -5.190  1.00  0.00     0.000 C 
ENDROOT
BRANCH   1   2
HETATM    2  C   UNL     1     -21.532  -7.718  -4.707  1.00  0.00     0.000 C 
BRANCH   2   3
HETATM    3  C   UNL     1     -22.051  -6.380  -5.187  1.00  0.00     0.000 C 
BRANCH   3   4
HETATM    4  C   UNL     1     -20.937  -5.611  -5.874  1.00  0.00     0.000 C 
BRANCH   4   5
HETATM    5  C   UNL     1     -21.492  -4.865  -7.072  1.00  0.00     0.000 C 
BRANCH   5   6
HETATM    6  C   UNL     1     -20.702  -5.228  -8.317  1.00  0.00     0.000 C 
BRANCH   6   7
HETATM    7  C   UNL     1     -20.572  -4.014  -9.217  1.00  0.00     0.000 C 
BRANCH   7   8
HETATM    8  C   UNL     1     -20.247  -4.454 -10.632  1.00  0.00     0.000 C 
BRANCH   8   9
HETATM    9  C   UNL     1     -21.490  -4.370 -11.498  1.00  0.00     0.000 C 
BRANCH   9  10
HETATM   10  C   UNL     1     -21.911  -2.920 -11.658  1.00  0.00     0.000 C 
BRANCH  10  11
HETATM   11  C   UNL     1     -23.427  -2.825 -11.729  1.00  0.00    -0.000 C 
BRANCH  11  12
HETATM   12  C   UNL     1     -24.066  -3.929 -10.901  1.00  0.00    -0.005 C 
HETATM   13  C   UNL     1     -24.394  -3.418  -9.514  1.00  0.00     0.005 C 
ENDBRANCH  11  12
ENDBRANCH  10  11
ENDBRANCH   9  10
ENDBRANCH   8   9
ENDBRANCH   7   8
ENDBRANCH   6   7
ENDBRANCH   5   6
ENDBRANCH   4   5
ENDBRANCH   3   4
ENDBRANCH   2   3
ENDBRANCH   1   2
BRANCH   1  14
HETATM   14  C   UNL     1     -19.674  -9.377  -4.947  1.00  0.00     0.002 C 
BRANCH  14  15
HETATM   15  C   UNL     1     -18.402  -9.434  -4.103  1.00  0.00     0.027 C 
BRANCH  15  16
HETATM   16  C   UNL     1     -18.643 -10.195  -2.809  1.00  0.00     0.178 C 
BRANCH  16  17
HETATM   17  O   UNL     1     -19.609  -9.503  -1.990  1.00  0.00    -0.321 OA
BRANCH  17  18
HETATM   18  C   UNL     1     -20.462 -10.325  -1.318  1.00  0.00     0.263 C 
HETATM   19  O   UNL     1     -20.090 -11.291  -0.631  1.00  0.00    -0.265 OA
BRANCH  18  20
HETATM   20  C   UNL     1     -21.924  -9.928  -1.483  1.00  0.00     0.085 C 
BRANCH  20  21
HETATM   21  C   UNL     1     -22.709 -10.965  -2.307  1.00  0.00     0.010 C 
HETATM   22  C   UNL     1     -23.608 -11.837  -1.452  1.00  0.00     0.006 C 
ENDBRANCH  20  21
BRANCH  20  23
HETATM   23  C   UNL     1     -22.584  -9.794  -0.094  1.00  0.00     0.014 C 
BRANCH  23  24
HETATM   24  C   UNL     1     -23.194  -8.409   0.134  1.00  0.00     0.000 C 
BRANCH  24  25
HETATM   25  C   UNL     1     -22.144  -7.313  -0.007  1.00  0.00    -0.005 C 
HETATM   26  C   UNL     1     -22.347  -6.573  -1.317  1.00  0.00     0.005 C 
ENDBRANCH  24  25
ENDBRANCH  23  24
ENDBRANCH  20  23
ENDBRANCH  18  20
ENDBRANCH  17  18
ENDBRANCH  16  17
ENDBRANCH  15  16
ENDBRANCH  14  15
ENDBRANCH   1  14
TORSDOF 21
ENDMDL
MODEL 3
REMARK VINA RESULT:      -6.5      4.205     11.543
REMARK  21 active torsions:
REMARK  status: ('A' for Active; 'I' for Inactive)
REMARK    1  A    between atoms: C_2  and  C_3 
REMARK    2  A    between atoms: C_3  and  C_4 
REMARK    3  A    between atoms: C_4  and  C_5 
REMARK    4  A    between atoms: C_5  and  C_6 
REMARK    5  A    between atoms: C_6  and  C_7 
REMARK    6  A    between atoms: C_7  and  C_8 
REMARK    7  A    between atoms: C_8  and  C_9 
REMARK    8  A    between atoms: C_9  and  C_10 
REMARK    9  A    between atoms: C_10  and  C_11 
REMARK   10  A    between atoms: C_11  and  C_12 
REMARK   11  A    between atoms: C_12  and  C_13 
REMARK   12  A    between atoms: C_13  and  C_14 
REMARK   13  A    between atoms: C_14  and  C_15 
REMARK   14  A    between atoms: C_15  and  C_16 
REMARK   15  A    between atoms: C_16  and  O_17 
REMARK   16  A    between atoms: O_17  and  C_18 
REMARK   17  A    between atoms: C_18  and  C_20 
REMARK   18  A    between atoms: C_20  and  C_21 
REMARK   19  A    between atoms: C_20  and  C_23 
REMARK   20  A    between atoms: C_23  and  C_24 
REMARK   21  A    between atoms: C_24  and  C_25 
ROOT
HETATM    1  C   UNL     1     -21.766  -6.342  -5.272  1.00  0.00     0.000 C 
ENDROOT
BRANCH   1   2
HETATM    2  C   UNL     1     -21.501  -7.163  -4.018  1.00  0.00     0.000 C 
BRANCH   2   3
HETATM    3  C   UNL     1     -21.842  -6.362  -2.781  1.00  0.00     0.000 C 
BRANCH   3   4
HETATM    4  C   UNL     1     -21.386  -7.109  -1.540  1.00  0.00     0.000 C 
BRANCH   4   5
HETATM    5  C   UNL     1     -22.522  -7.182  -0.538  1.00  0.00     0.000 C 
BRANCH   5   6
HETATM    6  C   UNL     1     -22.103  -8.022   0.656  1.00  0.00     0.000 C 
BRANCH   6   7
HETATM    7  C   UNL     1     -22.148  -9.494   0.291  1.00  0.00     0.000 C 
BRANCH   7   8
HETATM    8  C   UNL     1     -20.898 -10.188   0.798  1.00  0.00     0.000 C 
BRANCH   8   9
HETATM    9  C   UNL     1     -20.365 -11.132  -0.264  1.00  0.00     0.000 C 
BRANCH   9  10
HETATM   10  C   UNL     1     -21.045 -10.852  -1.592  1.00  0.00     0.000 C 
BRANCH  10  11
HETATM   11  C   UNL     1     -20.034 -10.311  -2.589  1.00  0.00    -0.000 C 
BRANCH  11  12
HETATM   12  C   UNL     1     -20.364 -10.794  -3.993  1.00  0.00    -0.005 C 
HETATM   13  C   UNL     1     -21.864 -10.830  -4.193  1.00  0.00     0.005 C 
ENDBRANCH  11  12
ENDBRANCH  10  11
ENDBRANCH   9  10
ENDBRANCH   8   9
ENDBRANCH   7   8
ENDBRANCH   6   7
ENDBRANCH   5   6
ENDBRANCH   4   5
ENDBRANCH   3   4
ENDBRANCH   2   3
ENDBRANCH   1   2
BRANCH   1  14
HETATM   14  C   UNL     1     -20.493  -6.188  -6.090  1.00  0.00     0.002 C 
BRANCH  14  15
HETATM   15  C   UNL     1     -20.178  -4.715  -6.344  1.00  0.00     0.027 C 
BRANCH  15  16
HETATM   16  C   UNL     1     -19.402  -4.541  -7.639  1.00  0.00     0.178 C 
BRANCH  16  17
HETATM   17  O   UNL     1     -20.175  -3.782  -8.592  1.00  0.00    -0.321 OA
BRANCH  17  18
HETATM   18  C   UNL     1     -20.533  -4.482  -9.704  1.00  0.00     0.263 C 
HETATM   19  O   UNL     1     -19.718  -4.972 -10.503  1.00  0.00    -0.265 OA
BRANCH  18  20
HETATM   20  C   UNL     1     -22.043  -4.618  -9.861  1.00  0.00     0.085 C 
BRANCH  20  21
HETATM   21  C   UNL     1     -22.804  -3.617  -8.972  1.00  0.00     0.010 C 
HETATM   22  C   UNL     1     -24.309  -3.762  -9.078  1.00  0.00     0.006 C 
ENDBRANCH  20  21
BRANCH  20  23
HETATM   23  C   UNL     1     -22.435  -4.373 -11.334  1.00  0.00     0.014 C 
BRANCH  23  24
HETATM   24  C   UNL     1     -22.068  -2.968 -11.813  1.00  0.00     0.000 C 
BRANCH  24  25
HETATM   25  C   UNL     1     -23.048  -2.470 -12.868  1.00  0.00    -0.005 C 
HETATM   26  C   UNL     1     -24.416  -3.083 -12.629  1.00  0.00     0.005 C 
ENDBRANCH  24  25
ENDBRANCH  23  24
ENDBRANCH  20  23
ENDBRANCH  18  20
ENDBRANCH  17  18
ENDBRANCH  16  17
ENDBRANCH  15  16
ENDBRANCH  14  15
ENDBRANCH   1  14
TORSDOF 21
ENDMDL
MODEL 4
REMARK VINA RESULT:      -6.5      2.545      3.761
REMARK  21 active torsions:
REMARK  status: ('A' for Active; 'I' for Inactive)
REMARK    1  A    between atoms: C_2  and  C_3 
REMARK    2  A    between atoms: C_3  and  C_4 
REMARK    3  A    between atoms: C_4  and  C_5 
REMARK    4  A    between atoms: C_5  and  C_6 
REMARK    5  A    between atoms: C_6  and  C_7 
REMARK    6  A    between atoms: C_7  and  C_8 
REMARK    7  A    between atoms: C_8  and  C_9 
REMARK    8  A    between atoms: C_9  and  C_10 
REMARK    9  A    between atoms: C_10  and  C_11 
REMARK   10  A    between atoms: C_11  and  C_12 
REMARK   11  A    between atoms: C_12  and  C_13 
REMARK   12  A    between atoms: C_13  and  C_14 
REMARK   13  A    between atoms: C_14  and  C_15 
REMARK   14  A    between atoms: C_15  and  C_16 
REMARK   15  A    between atoms: C_16  and  O_17 
REMARK   16  A    between atoms: O_17  and  C_18 
REMARK   17  A    between atoms: C_18  and  C_20 
REMARK   18  A    between atoms: C_20  and  C_21 
REMARK   19  A    between atoms: C_20  and  C_23 
REMARK   20  A    between atoms: C_23  and  C_24 
REMARK   21  A    between atoms: C_24  and  C_25 
ROOT
HETATM    1  C   UNL     1     -21.884  -7.396  -1.428  1.00  0.00     0.000 C 
ENDROOT
BRANCH   1   2
HETATM    2  C   UNL     1     -22.065  -6.084  -2.178  1.00  0.00     0.000 C 
BRANCH   2   3
HETATM    3  C   UNL     1     -21.303  -6.115  -3.485  1.00  0.00     0.000 C 
BRANCH   3   4
HETATM    4  C   UNL     1     -21.669  -7.363  -4.267  1.00  0.00     0.000 C 
BRANCH   4   5
HETATM    5  C   UNL     1     -21.235  -7.209  -5.713  1.00  0.00     0.000 C 
BRANCH   5   6
HETATM    6  C   UNL     1     -20.889  -5.757  -5.996  1.00  0.00     0.000 C 
BRANCH   6   7
HETATM    7  C   UNL     1     -19.678  -5.685  -6.907  1.00  0.00     0.000 C 
BRANCH   7   8
HETATM    8  C   UNL     1     -19.830  -4.526  -7.874  1.00  0.00     0.000 C 
BRANCH   8   9
HETATM    9  C   UNL     1     -21.226  -3.944  -7.768  1.00  0.00     0.000 C 
BRANCH   9  10
HETATM   10  C   UNL     1     -21.916  -4.006  -9.119  1.00  0.00     0.000 C 
BRANCH  10  11
HETATM   11  C   UNL     1     -20.880  -4.000 -10.231  1.00  0.00    -0.000 C 
BRANCH  11  12
HETATM   12  C   UNL     1     -21.550  -4.209 -11.580  1.00  0.00    -0.005 C 
HETATM   13  C   UNL     1     -22.293  -2.955 -11.993  1.00  0.00     0.005 C 
ENDBRANCH  11  12
ENDBRANCH  10  11
ENDBRANCH   9  10
ENDBRANCH   8   9
ENDBRANCH   7   8
ENDBRANCH   6   7
ENDBRANCH   5   6
ENDBRANCH   4   5
ENDBRANCH   3   4
ENDBRANCH   2   3
ENDBRANCH   1   2
BRANCH   1  14
HETATM   14  C   UNL     1     -22.746  -7.419  -0.174  1.00  0.00     0.002 C 
BRANCH  14  15
HETATM   15  C   UNL     1     -22.666  -8.776   0.523  1.00  0.00     0.027 C 
BRANCH  15  16
HETATM   16  C   UNL     1     -21.221  -9.181   0.760  1.00  0.00     0.178 C 
BRANCH  16  17
HETATM   17  O   UNL     1     -21.089 -10.617   0.734  1.00  0.00    -0.321 OA
BRANCH  17  18
HETATM   18  C   UNL     1     -20.201 -11.080  -0.189  1.00  0.00     0.263 C 
HETATM   19  O   UNL     1     -19.245 -11.824   0.085  1.00  0.00    -0.265 OA
BRANCH  18  20
HETATM   20  C   UNL     1     -20.509 -10.601  -1.603  1.00  0.00     0.085 C 
BRANCH  20  21
HETATM   21  C   UNL     1     -19.259 -10.626  -2.502  1.00  0.00     0.010 C 
HETATM   22  C   UNL     1     -18.790  -9.239  -2.896  1.00  0.00     0.006 C 
ENDBRANCH  20  21
BRANCH  20  23
HETATM   23  C   UNL     1     -21.592 -11.504  -2.232  1.00  0.00     0.014 C 
BRANCH  23  24
HETATM   24  C   UNL     1     -22.235 -10.874  -3.468  1.00  0.00     0.000 C 
BRANCH  24  25
HETATM   25  C   UNL     1     -22.008 -11.732  -4.707  1.00  0.00    -0.005 C 
HETATM   26  C   UNL     1     -21.226 -10.944  -5.742  1.00  0.00     0.005 C 
ENDBRANCH  24  25
ENDBRANCH  23  24
ENDBRANCH  20  23
ENDBRANCH  18  20
ENDBRANCH  17  18
ENDBRANCH  16  17
ENDBRANCH  15  16
ENDBRANCH  14  15
ENDBRANCH   1  14
TORSDOF 21
ENDMDL
MODEL 5
REMARK VINA RESULT:      -6.5      1.853      3.540
REMARK  21 active torsions:
REMARK  status: ('A' for Active; 'I' for Inactive)
REMARK    1  A    between atoms: C_2  and  C_3 
REMARK    2  A    between atoms: C_3  and  C_4 
REMARK    3  A    between atoms: C_4  and  C_5 
REMARK    4  A    between atoms: C_5  and  C_6 
REMARK    5  A    between atoms: C_6  and  C_7 
REMARK    6  A    between atoms: C_7  and  C_8 
REMARK    7  A    between atoms: C_8  and  C_9 
REMARK    8  A    between atoms: C_9  and  C_10 
REMARK    9  A    between atoms: C_10  and  C_11 
REMARK   10  A    between atoms: C_11  and  C_12 
REMARK   11  A    between atoms: C_12  and  C_13 
REMARK   12  A    between atoms: C_13  and  C_14 
REMARK   13  A    between atoms: C_14  and  C_15 
REMARK   14  A    between atoms: C_15  and  C_16 
REMARK   15  A    between atoms: C_16  and  O_17 
REMARK   16  A    between atoms: O_17  and  C_18 
REMARK   17  A    between atoms: C_18  and  C_20 
REMARK   18  A    between atoms: C_20  and  C_21 
REMARK   19  A    between atoms: C_20  and  C_23 
REMARK   20  A    between atoms: C_23  and  C_24 
REMARK   21  A    between atoms: C_24  and  C_25 
ROOT
HETATM    1  C   UNL     1     -20.556  -8.134  -4.715  1.00  0.00     0.000 C 
ENDROOT
BRANCH   1   2
HETATM    2  C   UNL     1     -21.742  -7.221  -4.434  1.00  0.00     0.000 C 
BRANCH   2   3
HETATM    3  C   UNL     1     -21.604  -5.926  -5.203  1.00  0.00     0.000 C 
BRANCH   3   4
HETATM    4  C   UNL     1     -20.215  -5.830  -5.808  1.00  0.00     0.000 C 
BRANCH   4   5
HETATM    5  C   UNL     1     -20.175  -4.709  -6.830  1.00  0.00     0.000 C 
BRANCH   5   6
HETATM    6  C   UNL     1     -20.644  -5.224  -8.179  1.00  0.00     0.000 C 
BRANCH   6   7
HETATM    7  C   UNL     1     -20.867  -4.060  -9.126  1.00  0.00     0.000 C 
BRANCH   7   8
HETATM    8  C   UNL     1     -20.311  -4.397 -10.497  1.00  0.00     0.000 C 
BRANCH   8   9
HETATM    9  C   UNL     1     -21.406  -4.278 -11.541  1.00  0.00     0.000 C 
BRANCH   9  10
HETATM   10  C   UNL     1     -21.952  -2.861 -11.558  1.00  0.00     0.000 C 
BRANCH  10  11
HETATM   11  C   UNL     1     -23.454  -2.887 -11.784  1.00  0.00    -0.000 C 
BRANCH  11  12
HETATM   12  C   UNL     1     -24.104  -3.943 -10.903  1.00  0.00    -0.005 C 
HETATM   13  C   UNL     1     -24.524  -3.333  -9.582  1.00  0.00     0.005 C 
ENDBRANCH  11  12
ENDBRANCH  10  11
ENDBRANCH   9  10
ENDBRANCH   8   9
ENDBRANCH   7   8
ENDBRANCH   6   7
ENDBRANCH   5   6
ENDBRANCH   4   5
ENDBRANCH   3   4
ENDBRANCH   2   3
ENDBRANCH   1   2
BRANCH   1  14
HETATM   14  C   UNL     1     -20.713  -9.456  -3.978  1.00  0.00     0.002 C 
BRANCH  14  15
HETATM   15  C   UNL     1     -19.352 -10.079  -3.674  1.00  0.00     0.027 C 
BRANCH  15  16
HETATM   16  C   UNL     1     -19.282 -10.555  -2.231  1.00  0.00     0.178 C 
BRANCH  16  17
HETATM   17  O   UNL     1     -20.045  -9.679  -1.375  1.00  0.00    -0.321 OA
BRANCH  17  18
HETATM   18  C   UNL     1     -20.553 -10.286  -0.267  1.00  0.00     0.263 C 
HETATM   19  O   UNL     1     -20.056 -11.298   0.254  1.00  0.00    -0.265 OA
BRANCH  18  20
HETATM   20  C   UNL     1     -21.791  -9.585   0.281  1.00  0.00     0.085 C 
BRANCH  20  21
HETATM   21  C   UNL     1     -21.601  -8.058   0.350  1.00  0.00     0.010 C 
HETATM   22  C   UNL     1     -22.392  -7.320  -0.713  1.00  0.00     0.006 C 
ENDBRANCH  20  21
BRANCH  20  23
HETATM   23  C   UNL     1     -23.004  -9.896  -0.621  1.00  0.00     0.014 C 
BRANCH  23  24
HETATM   24  C   UNL     1     -24.050 -10.762   0.083  1.00  0.00     0.000 C 
BRANCH  24  25
HETATM   25  C   UNL     1     -23.628 -12.226   0.111  1.00  0.00    -0.005 C 
HETATM   26  C   UNL     1     -23.531 -12.761  -1.307  1.00  0.00     0.005 C 
ENDBRANCH  24  25
ENDBRANCH  23  24
ENDBRANCH  20  23
ENDBRANCH  18  20
ENDBRANCH  17  18
ENDBRANCH  16  17
ENDBRANCH  15  16
ENDBRANCH  14  15
ENDBRANCH   1  14
TORSDOF 21
ENDMDL
MODEL 6
REMARK VINA RESULT:      -6.5      3.770     11.567
REMARK  21 active torsions:
REMARK  status: ('A' for Active; 'I' for Inactive)
REMARK    1  A    between atoms: C_2  and  C_3 
REMARK    2  A    between atoms: C_3  and  C_4 
REMARK    3  A    between atoms: C_4  and  C_5 
REMARK    4  A    between atoms: C_5  and  C_6 
REMARK    5  A    between atoms: C_6  and  C_7 
REMARK    6  A    between atoms: C_7  and  C_8 
REMARK    7  A    between atoms: C_8  and  C_9 
REMARK    8  A    between atoms: C_9  and  C_10 
REMARK    9  A    between atoms: C_10  and  C_11 
REMARK   10  A    between atoms: C_11  and  C_12 
REMARK   11  A    between atoms: C_12  and  C_13 
REMARK   12  A    between atoms: C_13  and  C_14 
REMARK   13  A    between atoms: C_14  and  C_15 
REMARK   14  A    between atoms: C_15  and  C_16 
REMARK   15  A    between atoms: C_16  and  O_17 
REMARK   16  A    between atoms: O_17  and  C_18 
REMARK   17  A    between atoms: C_18  and  C_20 
REMARK   18  A    between atoms: C_20  and  C_21 
REMARK   19  A    between atoms: C_20  and  C_23 
REMARK   20  A    between atoms: C_23  and  C_24 
REMARK   21  A    between atoms: C_24  and  C_25 
ROOT
HETATM    1  C   UNL     1     -21.542  -6.830  -5.619  1.00  0.00     0.000 C 
ENDROOT
BRANCH   1   2
HETATM    2  C   UNL     1     -21.669  -7.641  -4.338  1.00  0.00     0.000 C 
BRANCH   2   3
HETATM    3  C   UNL     1     -20.646  -8.755  -4.315  1.00  0.00     0.000 C 
BRANCH   3   4
HETATM    4  C   UNL     1     -21.165  -9.950  -5.094  1.00  0.00     0.000 C 
BRANCH   4   5
HETATM    5  C   UNL     1     -21.442 -11.101  -4.145  1.00  0.00     0.000 C 
BRANCH   5   6
HETATM    6  C   UNL     1     -22.795 -10.910  -3.483  1.00  0.00     0.000 C 
BRANCH   6   7
HETATM    7  C   UNL     1     -22.897 -11.796  -2.256  1.00  0.00     0.000 C 
BRANCH   7   8
HETATM    8  C   UNL     1     -23.375 -10.981  -1.070  1.00  0.00     0.000 C 
BRANCH   8   9
HETATM    9  C   UNL     1     -22.323 -10.992   0.023  1.00  0.00     0.000 C 
BRANCH   9  10
HETATM   10  C   UNL     1     -21.309  -9.888  -0.225  1.00  0.00     0.000 C 
BRANCH  10  11
HETATM   11  C   UNL     1     -21.355  -8.877   0.909  1.00  0.00    -0.000 C 
BRANCH  11  12
HETATM   12  C   UNL     1     -22.462  -7.862   0.668  1.00  0.00    -0.005 C 
HETATM   13  C   UNL     1     -22.333  -7.269  -0.719  1.00  0.00     0.005 C 
ENDBRANCH  11  12
ENDBRANCH  10  11
ENDBRANCH   9  10
ENDBRANCH   8   9
ENDBRANCH   7   8
ENDBRANCH   6   7
ENDBRANCH   5   6
ENDBRANCH   4   5
ENDBRANCH   3   4
ENDBRANCH   2   3
ENDBRANCH   1   2
BRANCH   1  14
HETATM   14  C   UNL     1     -20.083  -6.696  -6.026  1.00  0.00     0.002 C 
BRANCH  14  15
HETATM   15  C   UNL     1     -19.896  -5.573  -7.044  1.00  0.00     0.027 C 
BRANCH  15  16
HETATM   16  C   UNL     1     -20.616  -4.310  -6.597  1.00  0.00     0.178 C 
BRANCH  16  17
HETATM   17  O   UNL     1     -21.321  -3.714  -7.706  1.00  0.00    -0.321 OA
BRANCH  17  18
HETATM   18  C   UNL     1     -22.547  -4.257  -7.945  1.00  0.00     0.263 C 
HETATM   19  O   UNL     1     -23.407  -4.434  -7.066  1.00  0.00    -0.265 OA
BRANCH  18  20
HETATM   20  C   UNL     1     -22.764  -4.615  -9.411  1.00  0.00     0.085 C 
BRANCH  20  21
HETATM   21  C   UNL     1     -24.258  -4.630  -9.782  1.00  0.00     0.010 C 
HETATM   22  C   UNL     1     -24.885  -3.250  -9.751  1.00  0.00     0.006 C 
ENDBRANCH  20  21
BRANCH  20  23
HETATM   23  C   UNL     1     -22.039  -3.589 -10.308  1.00  0.00     0.014 C 
BRANCH  23  24
HETATM   24  C   UNL     1     -21.889  -4.074 -11.750  1.00  0.00     0.000 C 
BRANCH  24  25
HETATM   25  C   UNL     1     -22.391  -3.029 -12.740  1.00  0.00    -0.005 C 
HETATM   26  C   UNL     1     -23.775  -3.412 -13.232  1.00  0.00     0.005 C 
ENDBRANCH  24  25
ENDBRANCH  23  24
ENDBRANCH  20  23
ENDBRANCH  18  20
ENDBRANCH  17  18
ENDBRANCH  16  17
ENDBRANCH  15  16
ENDBRANCH  14  15
ENDBRANCH   1  14
TORSDOF 21
ENDMDL
MODEL 7
REMARK VINA RESULT:      -6.5      3.571     10.523
REMARK  21 active torsions:
REMARK  status: ('A' for Active; 'I' for Inactive)
REMARK    1  A    between atoms: C_2  and  C_3 
REMARK    2  A    between atoms: C_3  and  C_4 
REMARK    3  A    between atoms: C_4  and  C_5 
REMARK    4  A    between atoms: C_5  and  C_6 
REMARK    5  A    between atoms: C_6  and  C_7 
REMARK    6  A    between atoms: C_7  and  C_8 
REMARK    7  A    between atoms: C_8  and  C_9 
REMARK    8  A    between atoms: C_9  and  C_10 
REMARK    9  A    between atoms: C_10  and  C_11 
REMARK   10  A    between atoms: C_11  and  C_12 
REMARK   11  A    between atoms: C_12  and  C_13 
REMARK   12  A    between atoms: C_13  and  C_14 
REMARK   13  A    between atoms: C_14  and  C_15 
REMARK   14  A    between atoms: C_15  and  C_16 
REMARK   15  A    between atoms: C_16  and  O_17 
REMARK   16  A    between atoms: O_17  and  C_18 
REMARK   17  A    between atoms: C_18  and  C_20 
REMARK   18  A    between atoms: C_20  and  C_21 
REMARK   19  A    between atoms: C_20  and  C_23 
REMARK   20  A    between atoms: C_23  and  C_24 
REMARK   21  A    between atoms: C_24  and  C_25 
ROOT
HETATM    1  C   UNL     1     -21.248  -6.974  -2.196  1.00  0.00     0.000 C 
ENDROOT
BRANCH   1   2
HETATM    2  C   UNL     1     -22.352  -6.827  -1.158  1.00  0.00     0.000 C 
BRANCH   2   3
HETATM    3  C   UNL     1     -22.049  -7.677   0.057  1.00  0.00     0.000 C 
BRANCH   3   4
HETATM    4  C   UNL     1     -23.142  -8.714   0.247  1.00  0.00     0.000 C 
BRANCH   4   5
HETATM    5  C   UNL     1     -22.598 -10.096  -0.061  1.00  0.00     0.000 C 
BRANCH   5   6
HETATM    6  C   UNL     1     -23.268 -10.648  -1.307  1.00  0.00     0.000 C 
BRANCH   6   7
HETATM    7  C   UNL     1     -22.289 -10.636  -2.466  1.00  0.00     0.000 C 
BRANCH   7   8
HETATM    8  C   UNL     1     -20.867 -10.690  -1.940  1.00  0.00     0.000 C 
BRANCH   8   9
HETATM    9  C   UNL     1     -19.891 -10.384  -3.059  1.00  0.00     0.000 C 
BRANCH   9  10
HETATM   10  C   UNL     1     -18.582  -9.878  -2.479  1.00  0.00     0.000 C 
BRANCH  10  11
HETATM   11  C   UNL     1     -17.412 -10.582  -3.147  1.00  0.00    -0.000 C 
BRANCH  11  12
HETATM   12  C   UNL     1     -16.318  -9.582  -3.488  1.00  0.00    -0.005 C 
HETATM   13  C   UNL     1     -15.716  -9.908  -4.839  1.00  0.00     0.005 C 
ENDBRANCH  11  12
ENDBRANCH  10  11
ENDBRANCH   9  10
ENDBRANCH   8   9
ENDBRANCH   7   8
ENDBRANCH   6   7
ENDBRANCH   5   6
ENDBRANCH   4   5
ENDBRANCH   3   4
ENDBRANCH   2   3
ENDBRANCH   1   2
BRANCH   1  14
HETATM   14  C   UNL     1     -21.716  -6.463  -3.550  1.00  0.00     0.002 C 
BRANCH  14  15
HETATM   15  C   UNL     1     -21.732  -7.586  -4.586  1.00  0.00     0.027 C 
BRANCH  15  16
HETATM   16  C   UNL     1     -21.238  -7.088  -5.934  1.00  0.00     0.178 C 
BRANCH  16  17
HETATM   17  O   UNL     1     -21.401  -5.658  -6.034  1.00  0.00    -0.321 OA
BRANCH  17  18
HETATM   18  C   UNL     1     -20.589  -5.066  -6.954  1.00  0.00     0.263 C 
HETATM   19  O   UNL     1     -19.426  -4.702  -6.714  1.00  0.00    -0.265 OA
BRANCH  18  20
HETATM   20  C   UNL     1     -21.250  -4.909  -8.318  1.00  0.00     0.085 C 
BRANCH  20  21
HETATM   21  C   UNL     1     -22.190  -3.690  -8.362  1.00  0.00     0.010 C 
HETATM   22  C   UNL     1     -23.624  -4.065  -8.681  1.00  0.00     0.006 C 
ENDBRANCH  20  21
BRANCH  20  23
HETATM   23  C   UNL     1     -20.166  -4.742  -9.404  1.00  0.00     0.014 C 
BRANCH  23  24
HETATM   24  C   UNL     1     -20.521  -3.662 -10.426  1.00  0.00     0.000 C 
BRANCH  24  25
HETATM   25  C   UNL     1     -21.158  -4.267 -11.672  1.00  0.00    -0.005 C 
HETATM   26  C   UNL     1     -22.267  -3.360 -12.174  1.00  0.00     0.005 C 
ENDBRANCH  24  25
ENDBRANCH  23  24
ENDBRANCH  20  23
ENDBRANCH  18  20
ENDBRANCH  17  18
ENDBRANCH  16  17
ENDBRANCH  15  16
ENDBRANCH  14  15
ENDBRANCH   1  14
TORSDOF 21
ENDMDL
MODEL 8
REMARK VINA RESULT:      -6.5      1.514      3.194
REMARK  21 active torsions:
REMARK  status: ('A' for Active; 'I' for Inactive)
REMARK    1  A    between atoms: C_2  and  C_3 
REMARK    2  A    between atoms: C_3  and  C_4 
REMARK    3  A    between atoms: C_4  and  C_5 
REMARK    4  A    between atoms: C_5  and  C_6 
REMARK    5  A    between atoms: C_6  and  C_7 
REMARK    6  A    between atoms: C_7  and  C_8 
REMARK    7  A    between atoms: C_8  and  C_9 
REMARK    8  A    between atoms: C_9  and  C_10 
REMARK    9  A    between atoms: C_10  and  C_11 
REMARK   10  A    between atoms: C_11  and  C_12 
REMARK   11  A    between atoms: C_12  and  C_13 
REMARK   12  A    between atoms: C_13  and  C_14 
REMARK   13  A    between atoms: C_14  and  C_15 
REMARK   14  A    between atoms: C_15  and  C_16 
REMARK   15  A    between atoms: C_16  and  O_17 
REMARK   16  A    between atoms: O_17  and  C_18 
REMARK   17  A    between atoms: C_18  and  C_20 
REMARK   18  A    between atoms: C_20  and  C_21 
REMARK   19  A    between atoms: C_20  and  C_23 
REMARK   20  A    between atoms: C_23  and  C_24 
REMARK   21  A    between atoms: C_24  and  C_25 
ROOT
HETATM    1  C   UNL     1     -21.816  -7.800  -3.890  1.00  0.00     0.000 C 
ENDROOT
BRANCH   1   2
HETATM    2  C   UNL     1     -21.093  -7.669  -5.224  1.00  0.00     0.000 C 
BRANCH   2   3
HETATM    3  C   UNL     1     -20.711  -6.227  -5.476  1.00  0.00     0.000 C 
BRANCH   3   4
HETATM    4  C   UNL     1     -19.929  -6.119  -6.773  1.00  0.00     0.000 C 
BRANCH   4   5
HETATM    5  C   UNL     1     -20.734  -5.337  -7.795  1.00  0.00     0.000 C 
BRANCH   5   6
HETATM    6  C   UNL     1     -19.814  -4.429  -8.591  1.00  0.00     0.000 C 
BRANCH   6   7
HETATM    7  C   UNL     1     -20.621  -3.638  -9.603  1.00  0.00     0.000 C 
BRANCH   7   8
HETATM    8  C   UNL     1     -20.298  -4.116 -11.006  1.00  0.00     0.000 C 
BRANCH   8   9
HETATM    9  C   UNL     1     -21.572  -4.220 -11.823  1.00  0.00     0.000 C 
BRANCH   9  10
HETATM   10  C   UNL     1     -22.551  -3.142 -11.392  1.00  0.00     0.000 C 
BRANCH  10  11
HETATM   11  C   UNL     1     -23.972  -3.675 -11.461  1.00  0.00    -0.000 C 
BRANCH  11  12
HETATM   12  C   UNL     1     -24.304  -4.461 -10.202  1.00  0.00    -0.005 C 
HETATM   13  C   UNL     1     -23.946  -3.653  -8.973  1.00  0.00     0.005 C 
ENDBRANCH  11  12
ENDBRANCH  10  11
ENDBRANCH   9  10
ENDBRANCH   8   9
ENDBRANCH   7   8
ENDBRANCH   6   7
ENDBRANCH   5   6
ENDBRANCH   4   5
ENDBRANCH   3   4
ENDBRANCH   2   3
ENDBRANCH   1   2
BRANCH   1  14
HETATM   14  C   UNL     1     -21.154  -6.929  -2.834  1.00  0.00     0.002 C 
BRANCH  14  15
HETATM   15  C   UNL     1     -22.195  -6.286  -1.920  1.00  0.00     0.027 C 
BRANCH  15  16
HETATM   16  C   UNL     1     -22.438  -7.143  -0.688  1.00  0.00     0.178 C 
BRANCH  16  17
HETATM   17  O   UNL     1     -21.324  -8.033  -0.466  1.00  0.00    -0.321 OA
BRANCH  17  18
HETATM   18  C   UNL     1     -21.677  -9.263   0.001  1.00  0.00     0.263 C 
HETATM   19  O   UNL     1     -21.151  -9.803   0.988  1.00  0.00    -0.265 OA
BRANCH  18  20
HETATM   20  C   UNL     1     -22.798  -9.907  -0.807  1.00  0.00     0.085 C 
BRANCH  20  21
HETATM   21  C   UNL     1     -22.251 -10.817  -1.922  1.00  0.00     0.010 C 
HETATM   22  C   UNL     1     -20.738 -10.791  -2.011  1.00  0.00     0.006 C 
ENDBRANCH  20  21
BRANCH  20  23
HETATM   23  C   UNL     1     -23.693 -10.748   0.128  1.00  0.00     0.014 C 
BRANCH  23  24
HETATM   24  C   UNL     1     -23.545 -12.251  -0.114  1.00  0.00     0.000 C 
BRANCH  24  25
HETATM   25  C   UNL     1     -22.662 -12.898   0.946  1.00  0.00    -0.005 C 
HETATM   26  C   UNL     1     -23.525 -13.635   1.954  1.00  0.00     0.005 C 
ENDBRANCH  24  25
ENDBRANCH  23  24
ENDBRANCH  20  23
ENDBRANCH  18  20
ENDBRANCH  17  18
ENDBRANCH  16  17
ENDBRANCH  15  16
ENDBRANCH  14  15
ENDBRANCH   1  14
TORSDOF 21
ENDMDL
MODEL 9
REMARK VINA RESULT:      -6.5      2.640      4.986
REMARK  21 active torsions:
REMARK  status: ('A' for Active; 'I' for Inactive)
REMARK    1  A    between atoms: C_2  and  C_3 
REMARK    2  A    between atoms: C_3  and  C_4 
REMARK    3  A    between atoms: C_4  and  C_5 
REMARK    4  A    between atoms: C_5  and  C_6 
REMARK    5  A    between atoms: C_6  and  C_7 
REMARK    6  A    between atoms: C_7  and  C_8 
REMARK    7  A    between atoms: C_8  and  C_9 
REMARK    8  A    between atoms: C_9  and  C_10 
REMARK    9  A    between atoms: C_10  and  C_11 
REMARK   10  A    between atoms: C_11  and  C_12 
REMARK   11  A    between atoms: C_12  and  C_13 
REMARK   12  A    between atoms: C_13  and  C_14 
REMARK   13  A    between atoms: C_14  and  C_15 
REMARK   14  A    between atoms: C_15  and  C_16 
REMARK   15  A    between atoms: C_16  and  O_17 
REMARK   16  A    between atoms: O_17  and  C_18 
REMARK   17  A    between atoms: C_18  and  C_20 
REMARK   18  A    between atoms: C_20  and  C_21 
REMARK   19  A    between atoms: C_20  and  C_23 
REMARK   20  A    between atoms: C_23  and  C_24 
REMARK   21  A    between atoms: C_24  and  C_25 
ROOT
HETATM    1  C   UNL     1     -21.823  -9.393   0.188  1.00  0.00     0.000 C 
ENDROOT
BRANCH   1   2
HETATM    2  C   UNL     1     -21.296  -8.141  -0.499  1.00  0.00     0.000 C 
BRANCH   2   3
HETATM    3  C   UNL     1     -22.349  -7.053  -0.492  1.00  0.00     0.000 C 
BRANCH   3   4
HETATM    4  C   UNL     1     -22.296  -6.275  -1.794  1.00  0.00     0.000 C 
BRANCH   4   5
HETATM    5  C   UNL     1     -21.492  -7.048  -2.823  1.00  0.00     0.000 C 
BRANCH   5   6
HETATM    6  C   UNL     1     -21.260  -6.186  -4.051  1.00  0.00     0.000 C 
BRANCH   6   7
HETATM    7  C   UNL     1     -21.182  -7.062  -5.287  1.00  0.00     0.000 C 
BRANCH   7   8
HETATM    8  C   UNL     1     -20.198  -6.468  -6.277  1.00  0.00     0.000 C 
BRANCH   8   9
HETATM    9  C   UNL     1     -19.973  -5.001  -5.966  1.00  0.00     0.000 C 
BRANCH   9  10
HETATM   10  C   UNL     1     -20.146  -4.173  -7.228  1.00  0.00     0.000 C 
BRANCH  10  11
HETATM   11  C   UNL     1     -21.604  -3.772  -7.389  1.00  0.00    -0.000 C 
BRANCH  11  12
HETATM   12  C   UNL     1     -22.091  -4.102  -8.791  1.00  0.00    -0.005 C 
HETATM   13  C   UNL     1     -20.913  -4.309  -9.718  1.00  0.00     0.005 C 
ENDBRANCH  11  12
ENDBRANCH  10  11
ENDBRANCH   9  10
ENDBRANCH   8   9
ENDBRANCH   7   8
ENDBRANCH   6   7
ENDBRANCH   5   6
ENDBRANCH   4   5
ENDBRANCH   3   4
ENDBRANCH   2   3
ENDBRANCH   1   2
BRANCH   1  14
HETATM   14  C   UNL     1     -23.343  -9.431   0.140  1.00  0.00     0.002 C 
BRANCH  14  15
HETATM   15  C   UNL     1     -23.843 -10.791  -0.343  1.00  0.00     0.027 C 
BRANCH  15  16
HETATM   16  C   UNL     1     -22.734 -11.561  -1.040  1.00  0.00     0.178 C 
BRANCH  16  17
HETATM   17  O   UNL     1     -22.651 -11.180  -2.429  1.00  0.00    -0.321 OA
BRANCH  17  18
HETATM   18  C   UNL     1     -21.560 -11.670  -3.079  1.00  0.00     0.263 C 
HETATM   19  O   UNL     1     -21.603 -12.616  -3.883  1.00  0.00    -0.265 OA
BRANCH  18  20
HETATM   20  C   UNL     1     -20.275 -10.928  -2.728  1.00  0.00     0.085 C 
BRANCH  20  21
HETATM   21  C   UNL     1     -19.206 -11.874  -2.151  1.00  0.00     0.010 C 
HETATM   22  C   UNL     1     -18.981 -11.669  -0.666  1.00  0.00     0.006 C 
ENDBRANCH  20  21
BRANCH  20  23
HETATM   23  C   UNL     1     -19.708 -10.248  -3.993  1.00  0.00     0.014 C 
BRANCH  23  24
HETATM   24  C   UNL     1     -18.598  -9.246  -3.672  1.00  0.00     0.000 C 
BRANCH  24  25
HETATM   25  C   UNL     1     -17.247  -9.736  -4.182  1.00  0.00    -0.005 C 
HETATM   26  C   UNL     1     -16.216  -9.647  -3.071  1.00  0.00     0.005 C 
ENDBRANCH  24  25
ENDBRANCH  23  24
ENDBRANCH  20  23
ENDBRANCH  18  20
ENDBRANCH  17  18
ENDBRANCH  16  17
ENDBRANCH  15  16
ENDBRANCH  14  15
ENDBRANCH   1  14
TORSDOF 21
ENDMDL
