MODEL 1
REMARK VINA RESULT:      -5.7      0.000      0.000
REMARK WARNING: 32 MAX_TORS EXCEEDED!!!
REMARK  35 active torsions:
REMARK  status: ('A' for Active; 'I' for Inactive)
REMARK    1  A    between atoms: C_2  and  C_3 
REMARK    2  A    between atoms: C_3  and  C_4 
REMARK    3  A    between atoms: C_4  and  C_5 
REMARK    4  A    between atoms: C_5  and  C_6 
REMARK    5  A    between atoms: C_6  and  C_7 
REMARK    6  A    between atoms: C_7  and  C_8 
REMARK    7  A    between atoms: C_8  and  C_9 
REMARK    8  A    between atoms: C_9  and  C_10 
REMARK    9  A    between atoms: C_10  and  C_11 
REMARK   10  A    between atoms: C_11  and  C_12 
REMARK   11  A    between atoms: C_12  and  O_14 
REMARK   12  A    between atoms: O_14  and  C_15 
REMARK   13  A    between atoms: C_15  and  C_16 
REMARK   14  A    between atoms: C_16  and  O_17 
REMARK   15  A    between atoms: O_17  and  C_18 
REMARK   16  A    between atoms: C_18  and  C_19 
REMARK   17  A    between atoms: C_19  and  O_20 
REMARK   18  A    between atoms: O_20  and  C_21 
REMARK   19  A    between atoms: C_21  and  C_22 
REMARK   20  A    between atoms: C_22  and  O_23 
REMARK   21  A    between atoms: O_23  and  C_24 
REMARK   22  A    between atoms: C_24  and  C_25 
REMARK   23  A    between atoms: C_25  and  O_26 
REMARK   24  A    between atoms: O_26  and  C_27 
REMARK   25  A    between atoms: C_27  and  C_28 
REMARK   26  A    between atoms: C_28  and  O_29 
REMARK   27  A    between atoms: O_29  and  C_30 
REMARK   28  A    between atoms: C_30  and  C_31 
REMARK   29  A    between atoms: C_31  and  O_32 
REMARK   30  A    between atoms: O_32  and  C_33 
REMARK   31  A    between atoms: C_33  and  C_34 
REMARK   32  A    between atoms: C_34  and  O_35 
REMARK   33  A    between atoms: O_35  and  C_36 
REMARK   34  A    between atoms: C_36  and  C_37 
REMARK   35  A    between atoms: C_37  and  O_38 
ROOT
HETATM    1  O   UNL     1     -21.424  -3.371  -9.845  1.00  0.00    -0.387 OA
ENDROOT
BRANCH   1   2
HETATM    2  C   UNL     1     -21.798  -4.593  -9.217  1.00  0.00     0.193 C 
BRANCH   2   3
HETATM    3  C   UNL     1     -22.388  -4.295  -7.850  1.00  0.00     0.193 C 
BRANCH   3   4
HETATM    4  O   UNL     1     -21.448  -3.555  -7.073  1.00  0.00    -0.387 OA
BRANCH   4   5
HETATM    5  C   UNL     1     -20.543  -4.441  -6.406  1.00  0.00     0.194 C 
BRANCH   5   6
HETATM    6  C   UNL     1     -21.297  -5.650  -5.855  1.00  0.00     0.205 C 
BRANCH   6   7
HETATM    7  O   UNL     1     -20.752  -6.085  -4.586  1.00  0.00    -0.319 OA
BRANCH   7   8
HETATM    8  C   UNL     1     -21.574  -6.893  -3.870  1.00  0.00     0.258 C 
HETATM    9  O   UNL     1     -21.932  -8.018  -4.228  1.00  0.00    -0.265 OA
BRANCH   8  10
HETATM   10  C   UNL     1     -21.986  -6.291  -2.549  1.00  0.00     0.111 C 
BRANCH  10  11
HETATM   11  C   UNL     1     -21.453  -7.116  -1.379  1.00  0.00     0.010 C 
BRANCH  11  12
HETATM   12  C   UNL     1     -22.545  -7.405  -0.357  1.00  0.00     0.000 C 
BRANCH  12  13
HETATM   13  C   UNL     1     -21.967  -8.121   0.851  1.00  0.00     0.000 C 
BRANCH  13  14
HETATM   14  C   UNL     1     -22.002  -9.624   0.633  1.00  0.00     0.000 C 
BRANCH  14  15
HETATM   15  C   UNL     1     -23.263 -10.015  -0.115  1.00  0.00     0.000 C 
BRANCH  15  16
HETATM   16  C   UNL     1     -23.462 -11.519  -0.049  1.00  0.00     0.000 C 
BRANCH  16  17
HETATM   17  C   UNL     1     -23.703 -12.072  -1.443  1.00  0.00     0.000 C 
BRANCH  17  18
HETATM   18  C   UNL     1     -23.194 -11.092  -2.487  1.00  0.00    -0.000 C 
BRANCH  18  19
HETATM   19  C   UNL     1     -22.044 -11.705  -3.272  1.00  0.00    -0.005 C 
HETATM   20  C   UNL     1     -22.506 -12.085  -4.664  1.00  0.00     0.005 C 
ENDBRANCH  18  19
ENDBRANCH  17  18
ENDBRANCH  16  17
ENDBRANCH  15  16
ENDBRANCH  14  15
ENDBRANCH  13  14
ENDBRANCH  12  13
ENDBRANCH  11  12
ENDBRANCH  10  11
ENDBRANCH   8  10
ENDBRANCH   7   8
ENDBRANCH   6   7
ENDBRANCH   5   6
ENDBRANCH   4   5
ENDBRANCH   3   4
ENDBRANCH   2   3
ENDBRANCH   1   2
BRANCH   1  21
HETATM   21  C   UNL     1     -20.947  -3.619 -11.165  1.00  0.00     0.193 C 
BRANCH  21  22
HETATM   22  C   UNL     1     -22.125  -3.911 -12.073  1.00  0.00     0.193 C 
BRANCH  22  23
HETATM   23  O   UNL     1     -22.733  -2.682 -12.456  1.00  0.00    -0.387 OA
BRANCH  23  24
HETATM   24  C   UNL     1     -23.685  -2.904 -13.492  1.00  0.00     0.193 C 
BRANCH  24  25
HETATM   25  C   UNL     1     -24.083  -4.367 -13.490  1.00  0.00     0.193 C 
BRANCH  25  26
HETATM   26  O   UNL     1     -24.594  -4.708 -14.776  1.00  0.00    -0.387 OA
BRANCH  26  27
HETATM   27  C   UNL     1     -24.950  -6.086 -14.813  1.00  0.00     0.193 C 
BRANCH  27  28
HETATM   28  C   UNL     1     -25.350  -6.459 -16.226  1.00  0.00     0.193 C 
BRANCH  28  29
HETATM   29  O   UNL     1     -26.652  -5.950 -16.493  1.00  0.00    -0.387 OA
BRANCH  29  30
HETATM   30  C   UNL     1     -27.619  -6.639 -15.708  1.00  0.00     0.193 C 
BRANCH  30  31
HETATM   31  C   UNL     1     -28.624  -7.300 -16.629  1.00  0.00     0.193 C 
BRANCH  31  32
HETATM   32  O   UNL     1     -28.576  -6.664 -17.902  1.00  0.00    -0.387 OA
BRANCH  32  33
HETATM   33  C   UNL     1     -29.856  -6.138 -18.236  1.00  0.00     0.193 C 
BRANCH  33  34
HETATM   34  C   UNL     1     -30.931  -7.090 -17.744  1.00  0.00     0.193 C 
BRANCH  34  35
HETATM   35  O   UNL     1     -32.021  -6.341 -17.209  1.00  0.00    -0.387 OA
BRANCH  35  36
HETATM   36  C   UNL     1     -31.609  -4.997 -16.942  1.00  0.00     0.193 C 
BRANCH  36  37
HETATM   37  C   UNL     1     -32.838  -4.151 -16.640  1.00  0.00     0.190 C 
BRANCH  37  38
HETATM   38  O   UNL     1     -32.999  -3.134 -17.627  1.00  0.00    -0.399 OA
HETATM   39  H   UNL     1     -33.963  -3.047 -17.762  1.00  0.00     0.209 HD
ENDBRANCH  37  38
ENDBRANCH  36  37
ENDBRANCH  35  36
ENDBRANCH  34  35
ENDBRANCH  33  34
ENDBRANCH  32  33
ENDBRANCH  31  32
ENDBRANCH  30  31
ENDBRANCH  29  30
ENDBRANCH  28  29
ENDBRANCH  27  28
ENDBRANCH  26  27
ENDBRANCH  25  26
ENDBRANCH  24  25
ENDBRANCH  23  24
ENDBRANCH  22  23
ENDBRANCH  21  22
ENDBRANCH   1  21
TORSDOF 35
ENDMDL
MODEL 2
REMARK VINA RESULT:      -5.5      1.734      3.734
REMARK WARNING: 32 MAX_TORS EXCEEDED!!!
REMARK  35 active torsions:
REMARK  status: ('A' for Active; 'I' for Inactive)
REMARK    1  A    between atoms: C_2  and  C_3 
REMARK    2  A    between atoms: C_3  and  C_4 
REMARK    3  A    between atoms: C_4  and  C_5 
REMARK    4  A    between atoms: C_5  and  C_6 
REMARK    5  A    between atoms: C_6  and  C_7 
REMARK    6  A    between atoms: C_7  and  C_8 
REMARK    7  A    between atoms: C_8  and  C_9 
REMARK    8  A    between atoms: C_9  and  C_10 
REMARK    9  A    between atoms: C_10  and  C_11 
REMARK   10  A    between atoms: C_11  and  C_12 
REMARK   11  A    between atoms: C_12  and  O_14 
REMARK   12  A    between atoms: O_14  and  C_15 
REMARK   13  A    between atoms: C_15  and  C_16 
REMARK   14  A    between atoms: C_16  and  O_17 
REMARK   15  A    between atoms: O_17  and  C_18 
REMARK   16  A    between atoms: C_18  and  C_19 
REMARK   17  A    between atoms: C_19  and  O_20 
REMARK   18  A    between atoms: O_20  and  C_21 
REMARK   19  A    between atoms: C_21  and  C_22 
REMARK   20  A    between atoms: C_22  and  O_23 
REMARK   21  A    between atoms: O_23  and  C_24 
REMARK   22  A    between atoms: C_24  and  C_25 
REMARK   23  A    between atoms: C_25  and  O_26 
REMARK   24  A    between atoms: O_26  and  C_27 
REMARK   25  A    between atoms: C_27  and  C_28 
REMARK   26  A    between atoms: C_28  and  O_29 
REMARK   27  A    between atoms: O_29  and  C_30 
REMARK   28  A    between atoms: C_30  and  C_31 
REMARK   29  A    between atoms: C_31  and  O_32 
REMARK   30  A    between atoms: O_32  and  C_33 
REMARK   31  A    between atoms: C_33  and  C_34 
REMARK   32  A    between atoms: C_34  and  O_35 
REMARK   33  A    between atoms: O_35  and  C_36 
REMARK   34  A    between atoms: C_36  and  C_37 
REMARK   35  A    between atoms: C_37  and  O_38 
ROOT
HETATM    1  O   UNL     1     -21.225  -3.985 -10.753  1.00  0.00    -0.387 OA
ENDROOT
BRANCH   1   2
HETATM    2  C   UNL     1     -20.678  -4.437  -9.518  1.00  0.00     0.193 C 
BRANCH   2   3
HETATM    3  C   UNL     1     -21.781  -4.504  -8.475  1.00  0.00     0.193 C 
BRANCH   3   4
HETATM    4  O   UNL     1     -21.418  -3.716  -7.343  1.00  0.00    -0.387 OA
BRANCH   4   5
HETATM    5  C   UNL     1     -20.635  -4.487  -6.426  1.00  0.00     0.194 C 
BRANCH   5   6
HETATM    6  C   UNL     1     -21.457  -5.652  -5.879  1.00  0.00     0.205 C 
BRANCH   6   7
HETATM    7  O   UNL     1     -20.721  -6.404  -4.885  1.00  0.00    -0.319 OA
BRANCH   7   8
HETATM    8  C   UNL     1     -20.219  -7.583  -5.331  1.00  0.00     0.258 C 
HETATM    9  O   UNL     1     -19.462  -7.697  -6.300  1.00  0.00    -0.265 OA
BRANCH   8  10
HETATM   10  C   UNL     1     -20.647  -8.761  -4.491  1.00  0.00     0.111 C 
BRANCH  10  11
HETATM   11  C   UNL     1     -20.983  -9.967  -5.365  1.00  0.00     0.010 C 
BRANCH  11  12
HETATM   12  C   UNL     1     -21.938 -10.920  -4.657  1.00  0.00     0.000 C 
BRANCH  12  13
HETATM   13  C   UNL     1     -21.838 -10.751  -3.151  1.00  0.00     0.000 C 
BRANCH  13  14
HETATM   14  C   UNL     1     -23.142 -11.168  -2.492  1.00  0.00     0.000 C 
BRANCH  14  15
HETATM   15  C   UNL     1     -22.862 -12.037  -1.279  1.00  0.00     0.000 C 
BRANCH  15  16
HETATM   16  C   UNL     1     -23.519 -11.440  -0.049  1.00  0.00     0.000 C 
BRANCH  16  17
HETATM   17  C   UNL     1     -23.536  -9.925  -0.153  1.00  0.00     0.000 C 
BRANCH  17  18
HETATM   18  C   UNL     1     -22.244  -9.350   0.401  1.00  0.00    -0.000 C 
BRANCH  18  19
HETATM   19  C   UNL     1     -21.637  -8.365  -0.586  1.00  0.00    -0.005 C 
HETATM   20  C   UNL     1     -22.366  -7.038  -0.516  1.00  0.00     0.005 C 
ENDBRANCH  18  19
ENDBRANCH  17  18
ENDBRANCH  16  17
ENDBRANCH  15  16
ENDBRANCH  14  15
ENDBRANCH  13  14
ENDBRANCH  12  13
ENDBRANCH  11  12
ENDBRANCH  10  11
ENDBRANCH   8  10
ENDBRANCH   7   8
ENDBRANCH   6   7
ENDBRANCH   5   6
ENDBRANCH   4   5
ENDBRANCH   3   4
ENDBRANCH   2   3
ENDBRANCH   1   2
BRANCH   1  21
HETATM   21  C   UNL     1     -22.644  -3.892 -10.660  1.00  0.00     0.193 C 
BRANCH  21  22
HETATM   22  C   UNL     1     -23.145  -2.883 -11.673  1.00  0.00     0.193 C 
BRANCH  22  23
HETATM   23  O   UNL     1     -22.363  -2.987 -12.859  1.00  0.00    -0.387 OA
BRANCH  23  24
HETATM   24  C   UNL     1     -23.208  -3.025 -14.005  1.00  0.00     0.193 C 
BRANCH  24  25
HETATM   25  C   UNL     1     -24.283  -4.073 -13.791  1.00  0.00     0.193 C 
BRANCH  25  26
HETATM   26  O   UNL     1     -24.569  -4.702 -15.036  1.00  0.00    -0.387 OA
BRANCH  26  27
HETATM   27  C   UNL     1     -24.824  -6.089 -14.839  1.00  0.00     0.193 C 
BRANCH  27  28
HETATM   28  C   UNL     1     -25.683  -6.604 -15.976  1.00  0.00     0.193 C 
BRANCH  28  29
HETATM   29  O   UNL     1     -26.962  -5.982 -15.913  1.00  0.00    -0.387 OA
BRANCH  29  30
HETATM   30  C   UNL     1     -27.980  -6.966 -15.762  1.00  0.00     0.193 C 
BRANCH  30  31
HETATM   31  C   UNL     1     -29.107  -6.664 -16.728  1.00  0.00     0.193 C 
BRANCH  31  32
HETATM   32  O   UNL     1     -28.602  -5.873 -17.799  1.00  0.00    -0.387 OA
BRANCH  32  33
HETATM   33  C   UNL     1     -28.396  -6.683 -18.951  1.00  0.00     0.193 C 
BRANCH  33  34
HETATM   34  C   UNL     1     -27.053  -6.341 -19.569  1.00  0.00     0.193 C 
BRANCH  34  35
HETATM   35  O   UNL     1     -26.764  -7.261 -20.621  1.00  0.00    -0.387 OA
BRANCH  35  36
HETATM   36  C   UNL     1     -25.382  -7.627 -20.586  1.00  0.00     0.193 C 
BRANCH  36  37
HETATM   37  C   UNL     1     -24.691  -6.855 -19.471  1.00  0.00     0.190 C 
BRANCH  37  38
HETATM   38  O   UNL     1     -23.557  -7.576 -18.990  1.00  0.00    -0.399 OA
HETATM   39  H   UNL     1     -23.256  -8.124 -19.741  1.00  0.00     0.209 HD
ENDBRANCH  37  38
ENDBRANCH  36  37
ENDBRANCH  35  36
ENDBRANCH  34  35
ENDBRANCH  33  34
ENDBRANCH  32  33
ENDBRANCH  31  32
ENDBRANCH  30  31
ENDBRANCH  29  30
ENDBRANCH  28  29
ENDBRANCH  27  28
ENDBRANCH  26  27
ENDBRANCH  25  26
ENDBRANCH  24  25
ENDBRANCH  23  24
ENDBRANCH  22  23
ENDBRANCH  21  22
ENDBRANCH   1  21
TORSDOF 35
ENDMDL
MODEL 3
REMARK VINA RESULT:      -5.4      6.423     14.492
REMARK WARNING: 32 MAX_TORS EXCEEDED!!!
REMARK  35 active torsions:
REMARK  status: ('A' for Active; 'I' for Inactive)
REMARK    1  A    between atoms: C_2  and  C_3 
REMARK    2  A    between atoms: C_3  and  C_4 
REMARK    3  A    between atoms: C_4  and  C_5 
REMARK    4  A    between atoms: C_5  and  C_6 
REMARK    5  A    between atoms: C_6  and  C_7 
REMARK    6  A    between atoms: C_7  and  C_8 
REMARK    7  A    between atoms: C_8  and  C_9 
REMARK    8  A    between atoms: C_9  and  C_10 
REMARK    9  A    between atoms: C_10  and  C_11 
REMARK   10  A    between atoms: C_11  and  C_12 
REMARK   11  A    between atoms: C_12  and  O_14 
REMARK   12  A    between atoms: O_14  and  C_15 
REMARK   13  A    between atoms: C_15  and  C_16 
REMARK   14  A    between atoms: C_16  and  O_17 
REMARK   15  A    between atoms: O_17  and  C_18 
REMARK   16  A    between atoms: C_18  and  C_19 
REMARK   17  A    between atoms: C_19  and  O_20 
REMARK   18  A    between atoms: O_20  and  C_21 
REMARK   19  A    between atoms: C_21  and  C_22 
REMARK   20  A    between atoms: C_22  and  O_23 
REMARK   21  A    between atoms: O_23  and  C_24 
REMARK   22  A    between atoms: C_24  and  C_25 
REMARK   23  A    between atoms: C_25  and  O_26 
REMARK   24  A    between atoms: O_26  and  C_27 
REMARK   25  A    between atoms: C_27  and  C_28 
REMARK   26  A    between atoms: C_28  and  O_29 
REMARK   27  A    between atoms: O_29  and  C_30 
REMARK   28  A    between atoms: C_30  and  C_31 
REMARK   29  A    between atoms: C_31  and  O_32 
REMARK   30  A    between atoms: O_32  and  C_33 
REMARK   31  A    between atoms: C_33  and  C_34 
REMARK   32  A    between atoms: C_34  and  O_35 
REMARK   33  A    between atoms: O_35  and  C_36 
REMARK   34  A    between atoms: C_36  and  C_37 
REMARK   35  A    between atoms: C_37  and  O_38 
ROOT
HETATM    1  O   UNL     1     -22.792  -7.701  -0.060  1.00  0.00    -0.387 OA
ENDROOT
BRANCH   1   2
HETATM    2  C   UNL     1     -22.053  -7.482  -1.258  1.00  0.00     0.193 C 
BRANCH   2   3
HETATM    3  C   UNL     1     -22.121  -6.010  -1.628  1.00  0.00     0.193 C 
BRANCH   3   4
HETATM    4  O   UNL     1     -21.792  -5.846  -3.006  1.00  0.00    -0.387 OA
BRANCH   4   5
HETATM    5  C   UNL     1     -21.324  -7.080  -3.560  1.00  0.00     0.194 C 
BRANCH   5   6
HETATM    6  C   UNL     1     -21.948  -7.313  -4.934  1.00  0.00     0.205 C 
BRANCH   6   7
HETATM    7  O   UNL     1     -21.664  -6.219  -5.841  1.00  0.00    -0.319 OA
BRANCH   7   8
HETATM    8  C   UNL     1     -20.387  -6.185  -6.296  1.00  0.00     0.258 C 
HETATM    9  O   UNL     1     -19.715  -7.185  -6.568  1.00  0.00    -0.265 OA
BRANCH   8  10
HETATM   10  C   UNL     1     -19.866  -4.782  -6.483  1.00  0.00     0.111 C 
BRANCH  10  11
HETATM   11  C   UNL     1     -20.887  -3.907  -7.206  1.00  0.00     0.010 C 
BRANCH  11  12
HETATM   12  C   UNL     1     -20.763  -4.039  -8.718  1.00  0.00     0.000 C 
BRANCH  12  13
HETATM   13  C   UNL     1     -21.975  -4.753  -9.291  1.00  0.00     0.000 C 
BRANCH  13  14
HETATM   14  C   UNL     1     -23.245  -4.008  -8.916  1.00  0.00     0.000 C 
BRANCH  14  15
HETATM   15  C   UNL     1     -24.344  -4.309  -9.920  1.00  0.00     0.000 C 
BRANCH  15  16
HETATM   16  C   UNL     1     -24.307  -3.296 -11.050  1.00  0.00     0.000 C 
BRANCH  16  17
HETATM   17  C   UNL     1     -23.686  -3.921 -12.287  1.00  0.00     0.000 C 
BRANCH  17  18
HETATM   18  C   UNL     1     -22.687  -2.962 -12.910  1.00  0.00    -0.000 C 
BRANCH  18  19
HETATM   19  C   UNL     1     -22.936  -2.837 -14.406  1.00  0.00    -0.005 C 
HETATM   20  C   UNL     1     -23.666  -1.544 -14.709  1.00  0.00     0.005 C 
ENDBRANCH  18  19
ENDBRANCH  17  18
ENDBRANCH  16  17
ENDBRANCH  15  16
ENDBRANCH  14  15
ENDBRANCH  13  14
ENDBRANCH  12  13
ENDBRANCH  11  12
ENDBRANCH  10  11
ENDBRANCH   8  10
ENDBRANCH   7   8
ENDBRANCH   6   7
ENDBRANCH   5   6
ENDBRANCH   4   5
ENDBRANCH   3   4
ENDBRANCH   2   3
ENDBRANCH   1   2
BRANCH   1  21
HETATM   21  C   UNL     1     -22.850  -9.094   0.237  1.00  0.00     0.193 C 
BRANCH  21  22
HETATM   22  C   UNL     1     -21.576  -9.758  -0.245  1.00  0.00     0.193 C 
BRANCH  22  23
HETATM   23  O   UNL     1     -21.168 -10.731   0.711  1.00  0.00    -0.387 OA
BRANCH  23  24
HETATM   24  C   UNL     1     -19.938 -11.329   0.313  1.00  0.00     0.193 C 
BRANCH  24  25
HETATM   25  C   UNL     1     -20.196 -12.768  -0.089  1.00  0.00     0.193 C 
BRANCH  25  26
HETATM   26  O   UNL     1     -19.149 -13.201  -0.952  1.00  0.00    -0.387 OA
BRANCH  26  27
HETATM   27  C   UNL     1     -18.912 -14.593  -0.777  1.00  0.00     0.193 C 
BRANCH  27  28
HETATM   28  C   UNL     1     -18.077 -15.106  -1.933  1.00  0.00     0.193 C 
BRANCH  28  29
HETATM   29  O   UNL     1     -17.264 -14.048  -2.427  1.00  0.00    -0.387 OA
BRANCH  29  30
HETATM   30  C   UNL     1     -15.910 -14.242  -2.030  1.00  0.00     0.193 C 
BRANCH  30  31
HETATM   31  C   UNL     1     -15.176 -12.919  -2.113  1.00  0.00     0.193 C 
BRANCH  31  32
HETATM   32  O   UNL     1     -16.041 -11.942  -2.681  1.00  0.00    -0.387 OA
BRANCH  32  33
HETATM   33  C   UNL     1     -15.772 -10.663  -2.119  1.00  0.00     0.193 C 
BRANCH  33  34
HETATM   34  C   UNL     1     -16.239  -9.586  -3.081  1.00  0.00     0.193 C 
BRANCH  34  35
HETATM   35  O   UNL     1     -17.566  -9.187  -2.740  1.00  0.00    -0.387 OA
BRANCH  35  36
HETATM   36  C   UNL     1     -18.461  -9.493  -3.813  1.00  0.00     0.193 C 
BRANCH  36  37
HETATM   37  C   UNL     1     -19.445 -10.558  -3.351  1.00  0.00     0.190 C 
BRANCH  37  38
HETATM   38  O   UNL     1     -18.883 -11.860  -3.506  1.00  0.00    -0.399 OA
HETATM   39  H   UNL     1     -18.567 -11.903  -4.429  1.00  0.00     0.209 HD
ENDBRANCH  37  38
ENDBRANCH  36  37
ENDBRANCH  35  36
ENDBRANCH  34  35
ENDBRANCH  33  34
ENDBRANCH  32  33
ENDBRANCH  31  32
ENDBRANCH  30  31
ENDBRANCH  29  30
ENDBRANCH  28  29
ENDBRANCH  27  28
ENDBRANCH  26  27
ENDBRANCH  25  26
ENDBRANCH  24  25
ENDBRANCH  23  24
ENDBRANCH  22  23
ENDBRANCH  21  22
ENDBRANCH   1  21
TORSDOF 35
ENDMDL
MODEL 4
REMARK VINA RESULT:      -5.3      7.326     13.004
REMARK WARNING: 32 MAX_TORS EXCEEDED!!!
REMARK  35 active torsions:
REMARK  status: ('A' for Active; 'I' for Inactive)
REMARK    1  A    between atoms: C_2  and  C_3 
REMARK    2  A    between atoms: C_3  and  C_4 
REMARK    3  A    between atoms: C_4  and  C_5 
REMARK    4  A    between atoms: C_5  and  C_6 
REMARK    5  A    between atoms: C_6  and  C_7 
REMARK    6  A    between atoms: C_7  and  C_8 
REMARK    7  A    between atoms: C_8  and  C_9 
REMARK    8  A    between atoms: C_9  and  C_10 
REMARK    9  A    between atoms: C_10  and  C_11 
REMARK   10  A    between atoms: C_11  and  C_12 
REMARK   11  A    between atoms: C_12  and  O_14 
REMARK   12  A    between atoms: O_14  and  C_15 
REMARK   13  A    between atoms: C_15  and  C_16 
REMARK   14  A    between atoms: C_16  and  O_17 
REMARK   15  A    between atoms: O_17  and  C_18 
REMARK   16  A    between atoms: C_18  and  C_19 
REMARK   17  A    between atoms: C_19  and  O_20 
REMARK   18  A    between atoms: O_20  and  C_21 
REMARK   19  A    between atoms: C_21  and  C_22 
REMARK   20  A    between atoms: C_22  and  O_23 
REMARK   21  A    between atoms: O_23  and  C_24 
REMARK   22  A    between atoms: C_24  and  C_25 
REMARK   23  A    between atoms: C_25  and  O_26 
REMARK   24  A    between atoms: O_26  and  C_27 
REMARK   25  A    between atoms: C_27  and  C_28 
REMARK   26  A    between atoms: C_28  and  O_29 
REMARK   27  A    between atoms: O_29  and  C_30 
REMARK   28  A    between atoms: C_30  and  C_31 
REMARK   29  A    between atoms: C_31  and  O_32 
REMARK   30  A    between atoms: O_32  and  C_33 
REMARK   31  A    between atoms: C_33  and  C_34 
REMARK   32  A    between atoms: C_34  and  O_35 
REMARK   33  A    between atoms: O_35  and  C_36 
REMARK   34  A    between atoms: C_36  and  C_37 
REMARK   35  A    between atoms: C_37  and  O_38 
ROOT
HETATM    1  O   UNL     1     -21.540 -12.516  -2.218  1.00  0.00    -0.387 OA
ENDROOT
BRANCH   1   2
HETATM    2  C   UNL     1     -22.203 -11.851  -1.146  1.00  0.00     0.193 C 
BRANCH   2   3
HETATM    3  C   UNL     1     -21.446 -10.581  -0.798  1.00  0.00     0.193 C 
BRANCH   3   4
HETATM    4  O   UNL     1     -22.018  -9.985   0.364  1.00  0.00    -0.387 OA
BRANCH   4   5
HETATM    5  C   UNL     1     -23.008  -9.019  -0.004  1.00  0.00     0.194 C 
BRANCH   5   6
HETATM    6  C   UNL     1     -22.442  -7.607   0.127  1.00  0.00     0.205 C 
BRANCH   6   7
HETATM    7  O   UNL     1     -22.632  -6.841  -1.088  1.00  0.00    -0.319 OA
BRANCH   7   8
HETATM    8  C   UNL     1     -21.624  -6.958  -1.988  1.00  0.00     0.258 C 
HETATM    9  O   UNL     1     -20.525  -7.464  -1.744  1.00  0.00    -0.265 OA
BRANCH   8  10
HETATM   10  C   UNL     1     -21.994  -6.439  -3.356  1.00  0.00     0.111 C 
BRANCH  10  11
HETATM   11  C   UNL     1     -21.532  -7.397  -4.452  1.00  0.00     0.010 C 
BRANCH  11  12
HETATM   12  C   UNL     1     -20.507  -6.743  -5.369  1.00  0.00     0.000 C 
BRANCH  12  13
HETATM   13  C   UNL     1     -20.484  -5.239  -5.154  1.00  0.00     0.000 C 
BRANCH  13  14
HETATM   14  C   UNL     1     -20.393  -4.523  -6.491  1.00  0.00     0.000 C 
BRANCH  14  15
HETATM   15  C   UNL     1     -20.945  -5.405  -7.597  1.00  0.00     0.000 C 
BRANCH  15  16
HETATM   16  C   UNL     1     -21.463  -4.547  -8.736  1.00  0.00     0.000 C 
BRANCH  16  17
HETATM   17  C   UNL     1     -20.360  -4.314  -9.754  1.00  0.00     0.000 C 
BRANCH  17  18
HETATM   18  C   UNL     1     -20.953  -4.207 -11.149  1.00  0.00    -0.000 C 
BRANCH  18  19
HETATM   19  C   UNL     1     -22.390  -3.713 -11.077  1.00  0.00    -0.005 C 
HETATM   20  C   UNL     1     -22.703  -2.841 -12.275  1.00  0.00     0.005 C 
ENDBRANCH  18  19
ENDBRANCH  17  18
ENDBRANCH  16  17
ENDBRANCH  15  16
ENDBRANCH  14  15
ENDBRANCH  13  14
ENDBRANCH  12  13
ENDBRANCH  11  12
ENDBRANCH  10  11
ENDBRANCH   8  10
ENDBRANCH   7   8
ENDBRANCH   6   7
ENDBRANCH   5   6
ENDBRANCH   4   5
ENDBRANCH   3   4
ENDBRANCH   2   3
ENDBRANCH   1   2
BRANCH   1  21
HETATM   21  C   UNL     1     -22.453 -12.768  -3.282  1.00  0.00     0.193 C 
BRANCH  21  22
HETATM   22  C   UNL     1     -22.103 -11.878  -4.458  1.00  0.00     0.193 C 
BRANCH  22  23
HETATM   23  O   UNL     1     -22.468 -12.538  -5.666  1.00  0.00    -0.387 OA
BRANCH  23  24
HETATM   24  C   UNL     1     -21.550 -12.208  -6.704  1.00  0.00     0.193 C 
BRANCH  24  25
HETATM   25  C   UNL     1     -20.425 -11.375  -6.122  1.00  0.00     0.193 C 
BRANCH  25  26
HETATM   26  O   UNL     1     -19.331 -11.374  -7.035  1.00  0.00    -0.387 OA
BRANCH  26  27
HETATM   27  C   UNL     1     -18.961 -12.709  -7.360  1.00  0.00     0.193 C 
BRANCH  27  28
HETATM   28  C   UNL     1     -17.549 -12.968  -6.874  1.00  0.00     0.193 C 
BRANCH  28  29
HETATM   29  O   UNL     1     -16.875 -11.725  -6.715  1.00  0.00    -0.387 OA
BRANCH  29  30
HETATM   30  C   UNL     1     -15.476 -11.940  -6.567  1.00  0.00     0.193 C 
BRANCH  30  31
HETATM   31  C   UNL     1     -15.004 -11.265  -5.295  1.00  0.00     0.193 C 
BRANCH  31  32
HETATM   32  O   UNL     1     -14.847 -12.248  -4.278  1.00  0.00    -0.387 OA
BRANCH  32  33
HETATM   33  C   UNL     1     -15.454 -11.805  -3.069  1.00  0.00     0.193 C 
BRANCH  33  34
HETATM   34  C   UNL     1     -16.811 -12.467  -2.920  1.00  0.00     0.193 C 
BRANCH  34  35
HETATM   35  O   UNL     1     -17.797 -11.691  -3.600  1.00  0.00    -0.387 OA
BRANCH  35  36
HETATM   36  C   UNL     1     -18.232 -10.612  -2.767  1.00  0.00     0.193 C 
BRANCH  36  37
HETATM   37  C   UNL     1     -18.226  -9.324  -3.578  1.00  0.00     0.190 C 
BRANCH  37  38
HETATM   38  O   UNL     1     -17.937  -9.597  -4.948  1.00  0.00    -0.399 OA
HETATM   39  H   UNL     1     -17.963  -8.732  -5.401  1.00  0.00     0.209 HD
ENDBRANCH  37  38
ENDBRANCH  36  37
ENDBRANCH  35  36
ENDBRANCH  34  35
ENDBRANCH  33  34
ENDBRANCH  32  33
ENDBRANCH  31  32
ENDBRANCH  30  31
ENDBRANCH  29  30
ENDBRANCH  28  29
ENDBRANCH  27  28
ENDBRANCH  26  27
ENDBRANCH  25  26
ENDBRANCH  24  25
ENDBRANCH  23  24
ENDBRANCH  22  23
ENDBRANCH  21  22
ENDBRANCH   1  21
TORSDOF 35
ENDMDL
MODEL 5
REMARK VINA RESULT:      -5.3      4.757      9.997
REMARK WARNING: 32 MAX_TORS EXCEEDED!!!
REMARK  35 active torsions:
REMARK  status: ('A' for Active; 'I' for Inactive)
REMARK    1  A    between atoms: C_2  and  C_3 
REMARK    2  A    between atoms: C_3  and  C_4 
REMARK    3  A    between atoms: C_4  and  C_5 
REMARK    4  A    between atoms: C_5  and  C_6 
REMARK    5  A    between atoms: C_6  and  C_7 
REMARK    6  A    between atoms: C_7  and  C_8 
REMARK    7  A    between atoms: C_8  and  C_9 
REMARK    8  A    between atoms: C_9  and  C_10 
REMARK    9  A    between atoms: C_10  and  C_11 
REMARK   10  A    between atoms: C_11  and  C_12 
REMARK   11  A    between atoms: C_12  and  O_14 
REMARK   12  A    between atoms: O_14  and  C_15 
REMARK   13  A    between atoms: C_15  and  C_16 
REMARK   14  A    between atoms: C_16  and  O_17 
REMARK   15  A    between atoms: O_17  and  C_18 
REMARK   16  A    between atoms: C_18  and  C_19 
REMARK   17  A    between atoms: C_19  and  O_20 
REMARK   18  A    between atoms: O_20  and  C_21 
REMARK   19  A    between atoms: C_21  and  C_22 
REMARK   20  A    between atoms: C_22  and  O_23 
REMARK   21  A    between atoms: O_23  and  C_24 
REMARK   22  A    between atoms: C_24  and  C_25 
REMARK   23  A    between atoms: C_25  and  O_26 
REMARK   24  A    between atoms: O_26  and  C_27 
REMARK   25  A    between atoms: C_27  and  C_28 
REMARK   26  A    between atoms: C_28  and  O_29 
REMARK   27  A    between atoms: O_29  and  C_30 
REMARK   28  A    between atoms: C_30  and  C_31 
REMARK   29  A    between atoms: C_31  and  O_32 
REMARK   30  A    between atoms: O_32  and  C_33 
REMARK   31  A    between atoms: C_33  and  C_34 
REMARK   32  A    between atoms: C_34  and  O_35 
REMARK   33  A    between atoms: O_35  and  C_36 
REMARK   34  A    between atoms: C_36  and  C_37 
REMARK   35  A    between atoms: C_37  and  O_38 
ROOT
HETATM    1  O   UNL     1     -21.218 -10.012   0.922  1.00  0.00    -0.387 OA
ENDROOT
BRANCH   1   2
HETATM    2  C   UNL     1     -20.464 -10.497  -0.185  1.00  0.00     0.193 C 
BRANCH   2   3
HETATM    3  C   UNL     1     -21.412 -11.055  -1.232  1.00  0.00     0.193 C 
BRANCH   3   4
HETATM    4  O   UNL     1     -20.696 -11.915  -2.117  1.00  0.00    -0.387 OA
BRANCH   4   5
HETATM    5  C   UNL     1     -20.723 -11.395  -3.451  1.00  0.00     0.194 C 
BRANCH   5   6
HETATM    6  C   UNL     1     -20.599 -12.532  -4.463  1.00  0.00     0.205 C 
BRANCH   6   7
HETATM    7  O   UNL     1     -19.317 -12.509  -5.136  1.00  0.00    -0.319 OA
BRANCH   7   8
HETATM    8  C   UNL     1     -19.354 -12.011  -6.398  1.00  0.00     0.258 C 
HETATM    9  O   UNL     1     -20.381 -11.633  -6.969  1.00  0.00    -0.265 OA
BRANCH   8  10
HETATM   10  C   UNL     1     -17.990 -11.921  -7.035  1.00  0.00     0.111 C 
BRANCH  10  11
HETATM   11  C   UNL     1     -16.899 -12.380  -6.070  1.00  0.00     0.010 C 
BRANCH  11  12
HETATM   12  C   UNL     1     -15.577 -11.675  -6.346  1.00  0.00     0.000 C 
BRANCH  12  13
HETATM   13  C   UNL     1     -15.041 -11.035  -5.077  1.00  0.00     0.000 C 
BRANCH  13  14
HETATM   14  C   UNL     1     -15.981  -9.937  -4.609  1.00  0.00     0.000 C 
BRANCH  14  15
HETATM   15  C   UNL     1     -15.882  -9.771  -3.103  1.00  0.00     0.000 C 
BRANCH  15  16
HETATM   16  C   UNL     1     -17.247  -9.967  -2.468  1.00  0.00     0.000 C 
BRANCH  16  17
HETATM   17  C   UNL     1     -17.356 -11.371  -1.900  1.00  0.00     0.000 C 
BRANCH  17  18
HETATM   18  C   UNL     1     -16.062 -11.754  -1.203  1.00  0.00    -0.000 C 
BRANCH  18  19
HETATM   19  C   UNL     1     -16.304 -11.964   0.285  1.00  0.00    -0.005 C 
HETATM   20  C   UNL     1     -15.091 -12.606   0.926  1.00  0.00     0.005 C 
ENDBRANCH  18  19
ENDBRANCH  17  18
ENDBRANCH  16  17
ENDBRANCH  15  16
ENDBRANCH  14  15
ENDBRANCH  13  14
ENDBRANCH  12  13
ENDBRANCH  11  12
ENDBRANCH  10  11
ENDBRANCH   8  10
ENDBRANCH   7   8
ENDBRANCH   6   7
ENDBRANCH   5   6
ENDBRANCH   4   5
ENDBRANCH   3   4
ENDBRANCH   2   3
ENDBRANCH   1   2
BRANCH   1  21
HETATM   21  C   UNL     1     -21.239  -8.587   0.920  1.00  0.00     0.193 C 
BRANCH  21  22
HETATM   22  C   UNL     1     -22.645  -8.111   0.619  1.00  0.00     0.193 C 
BRANCH  22  23
HETATM   23  O   UNL     1     -22.772  -7.889  -0.782  1.00  0.00    -0.387 OA
BRANCH  23  24
HETATM   24  C   UNL     1     -21.772  -6.980  -1.230  1.00  0.00     0.193 C 
BRANCH  24  25
HETATM   25  C   UNL     1     -21.478  -7.250  -2.692  1.00  0.00     0.193 C 
BRANCH  25  26
HETATM   26  O   UNL     1     -21.704  -6.058  -3.438  1.00  0.00    -0.387 OA
BRANCH  26  27
HETATM   27  C   UNL     1     -22.022  -6.375  -4.788  1.00  0.00     0.193 C 
BRANCH  27  28
HETATM   28  C   UNL     1     -20.787  -6.918  -5.477  1.00  0.00     0.193 C 
BRANCH  28  29
HETATM   29  O   UNL     1     -20.866  -6.636  -6.869  1.00  0.00    -0.387 OA
BRANCH  29  30
HETATM   30  C   UNL     1     -21.249  -5.280  -7.074  1.00  0.00     0.193 C 
BRANCH  30  31
HETATM   31  C   UNL     1     -20.757  -4.827  -8.434  1.00  0.00     0.193 C 
BRANCH  31  32
HETATM   32  O   UNL     1     -21.866  -4.363  -9.198  1.00  0.00    -0.387 OA
BRANCH  32  33
HETATM   33  C   UNL     1     -21.515  -4.290 -10.575  1.00  0.00     0.193 C 
BRANCH  33  34
HETATM   34  C   UNL     1     -22.500  -3.388 -11.295  1.00  0.00     0.193 C 
BRANCH  34  35
HETATM   35  O   UNL     1     -22.339  -3.535 -12.705  1.00  0.00    -0.387 OA
BRANCH  35  36
HETATM   36  C   UNL     1     -23.509  -3.070 -13.384  1.00  0.00     0.193 C 
BRANCH  36  37
HETATM   37  C   UNL     1     -23.089  -2.251 -14.595  1.00  0.00     0.190 C 
BRANCH  37  38
HETATM   38  O   UNL     1     -22.220  -3.009 -15.435  1.00  0.00    -0.399 OA
HETATM   39  H   UNL     1     -21.316  -2.706 -15.221  1.00  0.00     0.209 HD
ENDBRANCH  37  38
ENDBRANCH  36  37
ENDBRANCH  35  36
ENDBRANCH  34  35
ENDBRANCH  33  34
ENDBRANCH  32  33
ENDBRANCH  31  32
ENDBRANCH  30  31
ENDBRANCH  29  30
ENDBRANCH  28  29
ENDBRANCH  27  28
ENDBRANCH  26  27
ENDBRANCH  25  26
ENDBRANCH  24  25
ENDBRANCH  23  24
ENDBRANCH  22  23
ENDBRANCH  21  22
ENDBRANCH   1  21
TORSDOF 35
ENDMDL
MODEL 6
REMARK VINA RESULT:      -5.3      7.184     13.176
REMARK WARNING: 32 MAX_TORS EXCEEDED!!!
REMARK  35 active torsions:
REMARK  status: ('A' for Active; 'I' for Inactive)
REMARK    1  A    between atoms: C_2  and  C_3 
REMARK    2  A    between atoms: C_3  and  C_4 
REMARK    3  A    between atoms: C_4  and  C_5 
REMARK    4  A    between atoms: C_5  and  C_6 
REMARK    5  A    between atoms: C_6  and  C_7 
REMARK    6  A    between atoms: C_7  and  C_8 
REMARK    7  A    between atoms: C_8  and  C_9 
REMARK    8  A    between atoms: C_9  and  C_10 
REMARK    9  A    between atoms: C_10  and  C_11 
REMARK   10  A    between atoms: C_11  and  C_12 
REMARK   11  A    between atoms: C_12  and  O_14 
REMARK   12  A    between atoms: O_14  and  C_15 
REMARK   13  A    between atoms: C_15  and  C_16 
REMARK   14  A    between atoms: C_16  and  O_17 
REMARK   15  A    between atoms: O_17  and  C_18 
REMARK   16  A    between atoms: C_18  and  C_19 
REMARK   17  A    between atoms: C_19  and  O_20 
REMARK   18  A    between atoms: O_20  and  C_21 
REMARK   19  A    between atoms: C_21  and  C_22 
REMARK   20  A    between atoms: C_22  and  O_23 
REMARK   21  A    between atoms: O_23  and  C_24 
REMARK   22  A    between atoms: C_24  and  C_25 
REMARK   23  A    between atoms: C_25  and  O_26 
REMARK   24  A    between atoms: O_26  and  C_27 
REMARK   25  A    between atoms: C_27  and  C_28 
REMARK   26  A    between atoms: C_28  and  O_29 
REMARK   27  A    between atoms: O_29  and  C_30 
REMARK   28  A    between atoms: C_30  and  C_31 
REMARK   29  A    between atoms: C_31  and  O_32 
REMARK   30  A    between atoms: O_32  and  C_33 
REMARK   31  A    between atoms: C_33  and  C_34 
REMARK   32  A    between atoms: C_34  and  O_35 
REMARK   33  A    between atoms: O_35  and  C_36 
REMARK   34  A    between atoms: C_36  and  C_37 
REMARK   35  A    between atoms: C_37  and  O_38 
ROOT
HETATM    1  O   UNL     1     -22.723 -10.239  -0.379  1.00  0.00    -0.387 OA
ENDROOT
BRANCH   1   2
HETATM    2  C   UNL     1     -23.021  -8.998   0.256  1.00  0.00     0.193 C 
BRANCH   2   3
HETATM    3  C   UNL     1     -22.027  -7.947  -0.207  1.00  0.00     0.193 C 
BRANCH   3   4
HETATM    4  O   UNL     1     -22.720  -6.893  -0.875  1.00  0.00    -0.387 OA
BRANCH   4   5
HETATM    5  C   UNL     1     -21.932  -6.380  -1.953  1.00  0.00     0.194 C 
BRANCH   5   6
HETATM    6  C   UNL     1     -21.825  -7.417  -3.069  1.00  0.00     0.205 C 
BRANCH   6   7
HETATM    7  O   UNL     1     -20.464  -7.547  -3.547  1.00  0.00    -0.319 OA
BRANCH   7   8
HETATM    8  C   UNL     1     -20.353  -7.680  -4.893  1.00  0.00     0.258 C 
HETATM    9  O   UNL     1     -19.518  -8.393  -5.458  1.00  0.00    -0.265 OA
BRANCH   8  10
HETATM   10  C   UNL     1     -21.392  -6.890  -5.650  1.00  0.00     0.111 C 
BRANCH  10  11
HETATM   11  C   UNL     1     -20.777  -5.652  -6.300  1.00  0.00     0.010 C 
BRANCH  11  12
HETATM   12  C   UNL     1     -21.751  -4.985  -7.262  1.00  0.00     0.000 C 
BRANCH  12  13
HETATM   13  C   UNL     1     -21.224  -3.630  -7.699  1.00  0.00     0.000 C 
BRANCH  13  14
HETATM   14  C   UNL     1     -20.013  -3.807  -8.600  1.00  0.00     0.000 C 
BRANCH  14  15
HETATM   15  C   UNL     1     -20.376  -4.658  -9.803  1.00  0.00     0.000 C 
BRANCH  15  16
HETATM   16  C   UNL     1     -20.534  -3.780 -11.032  1.00  0.00     0.000 C 
BRANCH  16  17
HETATM   17  C   UNL     1     -21.967  -3.288 -11.136  1.00  0.00     0.000 C 
BRANCH  17  18
HETATM   18  C   UNL     1     -22.883  -4.432 -11.534  1.00  0.00    -0.000 C 
BRANCH  18  19
HETATM   19  C   UNL     1     -23.872  -4.731 -10.416  1.00  0.00    -0.005 C 
HETATM   20  C   UNL     1     -24.450  -3.441  -9.871  1.00  0.00     0.005 C 
ENDBRANCH  18  19
ENDBRANCH  17  18
ENDBRANCH  16  17
ENDBRANCH  15  16
ENDBRANCH  14  15
ENDBRANCH  13  14
ENDBRANCH  12  13
ENDBRANCH  11  12
ENDBRANCH  10  11
ENDBRANCH   8  10
ENDBRANCH   7   8
ENDBRANCH   6   7
ENDBRANCH   5   6
ENDBRANCH   4   5
ENDBRANCH   3   4
ENDBRANCH   2   3
ENDBRANCH   1   2
BRANCH   1  21
HETATM   21  C   UNL     1     -21.478 -10.748   0.093  1.00  0.00     0.193 C 
BRANCH  21  22
HETATM   22  C   UNL     1     -20.788 -11.493  -1.032  1.00  0.00     0.193 C 
BRANCH  22  23
HETATM   23  O   UNL     1     -20.286 -10.552  -1.975  1.00  0.00    -0.387 OA
BRANCH  23  24
HETATM   24  C   UNL     1     -20.482 -11.032  -3.302  1.00  0.00     0.193 C 
BRANCH  24  25
HETATM   25  C   UNL     1     -21.923 -11.476  -3.458  1.00  0.00     0.193 C 
BRANCH  25  26
HETATM   26  O   UNL     1     -21.953 -12.700  -4.187  1.00  0.00    -0.387 OA
BRANCH  26  27
HETATM   27  C   UNL     1     -20.705 -12.915  -4.836  1.00  0.00     0.193 C 
BRANCH  27  28
HETATM   28  C   UNL     1     -20.928 -13.754  -6.078  1.00  0.00     0.193 C 
BRANCH  28  29
HETATM   29  O   UNL     1     -20.475 -13.032  -7.217  1.00  0.00    -0.387 OA
BRANCH  29  30
HETATM   30  C   UNL     1     -19.526 -12.044  -6.828  1.00  0.00     0.193 C 
BRANCH  30  31
HETATM   31  C   UNL     1     -18.203 -12.336  -7.505  1.00  0.00     0.193 C 
BRANCH  31  32
HETATM   32  O   UNL     1     -17.268 -12.780  -6.527  1.00  0.00    -0.387 OA
BRANCH  32  33
HETATM   33  C   UNL     1     -15.953 -12.367  -6.882  1.00  0.00     0.193 C 
BRANCH  33  34
HETATM   34  C   UNL     1     -15.459 -11.350  -5.870  1.00  0.00     0.193 C 
BRANCH  34  35
HETATM   35  O   UNL     1     -15.509 -11.917  -4.562  1.00  0.00    -0.387 OA
BRANCH  35  36
HETATM   36  C   UNL     1     -15.965 -10.940  -3.621  1.00  0.00     0.193 C 
BRANCH  36  37
HETATM   37  C   UNL     1     -16.212 -11.618  -2.281  1.00  0.00     0.190 C 
BRANCH  37  38
HETATM   38  O   UNL     1     -17.367 -11.069  -1.648  1.00  0.00    -0.399 OA
HETATM   39  H   UNL     1     -17.028 -10.470  -0.955  1.00  0.00     0.209 HD
ENDBRANCH  37  38
ENDBRANCH  36  37
ENDBRANCH  35  36
ENDBRANCH  34  35
ENDBRANCH  33  34
ENDBRANCH  32  33
ENDBRANCH  31  32
ENDBRANCH  30  31
ENDBRANCH  29  30
ENDBRANCH  28  29
ENDBRANCH  27  28
ENDBRANCH  26  27
ENDBRANCH  25  26
ENDBRANCH  24  25
ENDBRANCH  23  24
ENDBRANCH  22  23
ENDBRANCH  21  22
ENDBRANCH   1  21
TORSDOF 35
ENDMDL
MODEL 7
REMARK VINA RESULT:      -5.3      6.465     13.433
REMARK WARNING: 32 MAX_TORS EXCEEDED!!!
REMARK  35 active torsions:
REMARK  status: ('A' for Active; 'I' for Inactive)
REMARK    1  A    between atoms: C_2  and  C_3 
REMARK    2  A    between atoms: C_3  and  C_4 
REMARK    3  A    between atoms: C_4  and  C_5 
REMARK    4  A    between atoms: C_5  and  C_6 
REMARK    5  A    between atoms: C_6  and  C_7 
REMARK    6  A    between atoms: C_7  and  C_8 
REMARK    7  A    between atoms: C_8  and  C_9 
REMARK    8  A    between atoms: C_9  and  C_10 
REMARK    9  A    between atoms: C_10  and  C_11 
REMARK   10  A    between atoms: C_11  and  C_12 
REMARK   11  A    between atoms: C_12  and  O_14 
REMARK   12  A    between atoms: O_14  and  C_15 
REMARK   13  A    between atoms: C_15  and  C_16 
REMARK   14  A    between atoms: C_16  and  O_17 
REMARK   15  A    between atoms: O_17  and  C_18 
REMARK   16  A    between atoms: C_18  and  C_19 
REMARK   17  A    between atoms: C_19  and  O_20 
REMARK   18  A    between atoms: O_20  and  C_21 
REMARK   19  A    between atoms: C_21  and  C_22 
REMARK   20  A    between atoms: C_22  and  O_23 
REMARK   21  A    between atoms: O_23  and  C_24 
REMARK   22  A    between atoms: C_24  and  C_25 
REMARK   23  A    between atoms: C_25  and  O_26 
REMARK   24  A    between atoms: O_26  and  C_27 
REMARK   25  A    between atoms: C_27  and  C_28 
REMARK   26  A    between atoms: C_28  and  O_29 
REMARK   27  A    between atoms: O_29  and  C_30 
REMARK   28  A    between atoms: C_30  and  C_31 
REMARK   29  A    between atoms: C_31  and  O_32 
REMARK   30  A    between atoms: O_32  and  C_33 
REMARK   31  A    between atoms: C_33  and  C_34 
REMARK   32  A    between atoms: C_34  and  O_35 
REMARK   33  A    between atoms: O_35  and  C_36 
REMARK   34  A    between atoms: C_36  and  C_37 
REMARK   35  A    between atoms: C_37  and  O_38 
ROOT
HETATM    1  O   UNL     1     -17.842 -10.805  -2.633  1.00  0.00    -0.387 OA
ENDROOT
BRANCH   1   2
HETATM    2  C   UNL     1     -17.792  -9.408  -2.908  1.00  0.00     0.193 C 
BRANCH   2   3
HETATM    3  C   UNL     1     -18.945  -9.035  -3.824  1.00  0.00     0.193 C 
BRANCH   3   4
HETATM    4  O   UNL     1     -19.309 -10.162  -4.620  1.00  0.00    -0.387 OA
BRANCH   4   5
HETATM    5  C   UNL     1     -20.570  -9.937  -5.259  1.00  0.00     0.194 C 
BRANCH   5   6
HETATM    6  C   UNL     1     -21.125  -8.570  -4.866  1.00  0.00     0.205 C 
BRANCH   6   7
HETATM    7  O   UNL     1     -21.293  -7.710  -6.020  1.00  0.00    -0.319 OA
BRANCH   7   8
HETATM    8  C   UNL     1     -21.539  -6.410  -5.720  1.00  0.00     0.258 C 
HETATM    9  O   UNL     1     -22.608  -5.988  -5.270  1.00  0.00    -0.265 OA
BRANCH   8  10
HETATM   10  C   UNL     1     -20.346  -5.517  -5.953  1.00  0.00     0.111 C 
BRANCH  10  11
HETATM   11  C   UNL     1     -20.769  -4.176  -6.548  1.00  0.00     0.010 C 
BRANCH  11  12
HETATM   12  C   UNL     1     -21.169  -4.317  -8.011  1.00  0.00     0.000 C 
BRANCH  12  13
HETATM   13  C   UNL     1     -19.940  -4.512  -8.883  1.00  0.00     0.000 C 
BRANCH  13  14
HETATM   14  C   UNL     1     -20.356  -4.772 -10.321  1.00  0.00     0.000 C 
BRANCH  14  15
HETATM   15  C   UNL     1     -20.611  -3.459 -11.038  1.00  0.00     0.000 C 
BRANCH  15  16
HETATM   16  C   UNL     1     -21.632  -3.660 -12.143  1.00  0.00     0.000 C 
BRANCH  16  17
HETATM   17  C   UNL     1     -22.707  -2.591 -12.057  1.00  0.00     0.000 C 
BRANCH  17  18
HETATM   18  C   UNL     1     -24.067  -3.236 -11.855  1.00  0.00    -0.000 C 
BRANCH  18  19
HETATM   19  C   UNL     1     -24.391  -3.334 -10.371  1.00  0.00    -0.005 C 
HETATM   20  C   UNL     1     -24.337  -4.780  -9.919  1.00  0.00     0.005 C 
ENDBRANCH  18  19
ENDBRANCH  17  18
ENDBRANCH  16  17
ENDBRANCH  15  16
ENDBRANCH  14  15
ENDBRANCH  13  14
ENDBRANCH  12  13
ENDBRANCH  11  12
ENDBRANCH  10  11
ENDBRANCH   8  10
ENDBRANCH   7   8
ENDBRANCH   6   7
ENDBRANCH   5   6
ENDBRANCH   4   5
ENDBRANCH   3   4
ENDBRANCH   2   3
ENDBRANCH   1   2
BRANCH   1  21
HETATM   21  C   UNL     1     -16.663 -11.216  -1.947  1.00  0.00     0.193 C 
BRANCH  21  22
HETATM   22  C   UNL     1     -16.365 -12.662  -2.292  1.00  0.00     0.193 C 
BRANCH  22  23
HETATM   23  O   UNL     1     -17.533 -13.444  -2.067  1.00  0.00    -0.387 OA
BRANCH  23  24
HETATM   24  C   UNL     1     -17.839 -14.218  -3.224  1.00  0.00     0.193 C 
BRANCH  24  25
HETATM   25  C   UNL     1     -19.205 -13.813  -3.742  1.00  0.00     0.193 C 
BRANCH  25  26
HETATM   26  O   UNL     1     -19.973 -14.987  -3.985  1.00  0.00    -0.387 OA
BRANCH  26  27
HETATM   27  C   UNL     1     -21.363 -14.693  -3.891  1.00  0.00     0.193 C 
BRANCH  27  28
HETATM   28  C   UNL     1     -21.551 -13.191  -3.824  1.00  0.00     0.193 C 
BRANCH  28  29
HETATM   29  O   UNL     1     -22.669 -12.897  -2.994  1.00  0.00    -0.387 OA
BRANCH  29  30
HETATM   30  C   UNL     1     -22.793 -11.490  -2.817  1.00  0.00     0.193 C 
BRANCH  30  31
HETATM   31  C   UNL     1     -22.705 -11.168  -1.339  1.00  0.00     0.193 C 
BRANCH  31  32
HETATM   32  O   UNL     1     -21.346 -10.913  -0.998  1.00  0.00    -0.387 OA
BRANCH  32  33
HETATM   33  C   UNL     1     -21.127  -9.512  -0.873  1.00  0.00     0.193 C 
BRANCH  33  34
HETATM   34  C   UNL     1     -21.232  -9.119   0.589  1.00  0.00     0.193 C 
BRANCH  34  35
HETATM   35  O   UNL     1     -21.799  -7.813   0.691  1.00  0.00    -0.387 OA
BRANCH  35  36
HETATM   36  C   UNL     1     -22.568  -7.519  -0.479  1.00  0.00     0.193 C 
BRANCH  36  37
HETATM   37  C   UNL     1     -21.919  -6.362  -1.224  1.00  0.00     0.190 C 
BRANCH  37  38
HETATM   38  O   UNL     1     -22.753  -5.926  -2.296  1.00  0.00    -0.399 OA
HETATM   39  H   UNL     1     -23.656  -5.881  -1.925  1.00  0.00     0.209 HD
ENDBRANCH  37  38
ENDBRANCH  36  37
ENDBRANCH  35  36
ENDBRANCH  34  35
ENDBRANCH  33  34
ENDBRANCH  32  33
ENDBRANCH  31  32
ENDBRANCH  30  31
ENDBRANCH  29  30
ENDBRANCH  28  29
ENDBRANCH  27  28
ENDBRANCH  26  27
ENDBRANCH  25  26
ENDBRANCH  24  25
ENDBRANCH  23  24
ENDBRANCH  22  23
ENDBRANCH  21  22
ENDBRANCH   1  21
TORSDOF 35
ENDMDL
MODEL 8
REMARK VINA RESULT:      -5.3      4.515      8.948
REMARK WARNING: 32 MAX_TORS EXCEEDED!!!
REMARK  35 active torsions:
REMARK  status: ('A' for Active; 'I' for Inactive)
REMARK    1  A    between atoms: C_2  and  C_3 
REMARK    2  A    between atoms: C_3  and  C_4 
REMARK    3  A    between atoms: C_4  and  C_5 
REMARK    4  A    between atoms: C_5  and  C_6 
REMARK    5  A    between atoms: C_6  and  C_7 
REMARK    6  A    between atoms: C_7  and  C_8 
REMARK    7  A    between atoms: C_8  and  C_9 
REMARK    8  A    between atoms: C_9  and  C_10 
REMARK    9  A    between atoms: C_10  and  C_11 
REMARK   10  A    between atoms: C_11  and  C_12 
REMARK   11  A    between atoms: C_12  and  O_14 
REMARK   12  A    between atoms: O_14  and  C_15 
REMARK   13  A    between atoms: C_15  and  C_16 
REMARK   14  A    between atoms: C_16  and  O_17 
REMARK   15  A    between atoms: O_17  and  C_18 
REMARK   16  A    between atoms: C_18  and  C_19 
REMARK   17  A    between atoms: C_19  and  O_20 
REMARK   18  A    between atoms: O_20  and  C_21 
REMARK   19  A    between atoms: C_21  and  C_22 
REMARK   20  A    between atoms: C_22  and  O_23 
REMARK   21  A    between atoms: O_23  and  C_24 
REMARK   22  A    between atoms: C_24  and  C_25 
REMARK   23  A    between atoms: C_25  and  O_26 
REMARK   24  A    between atoms: O_26  and  C_27 
REMARK   25  A    between atoms: C_27  and  C_28 
REMARK   26  A    between atoms: C_28  and  O_29 
REMARK   27  A    between atoms: O_29  and  C_30 
REMARK   28  A    between atoms: C_30  and  C_31 
REMARK   29  A    between atoms: C_31  and  O_32 
REMARK   30  A    between atoms: O_32  and  C_33 
REMARK   31  A    between atoms: C_33  and  C_34 
REMARK   32  A    between atoms: C_34  and  O_35 
REMARK   33  A    between atoms: O_35  and  C_36 
REMARK   34  A    between atoms: C_36  and  C_37 
REMARK   35  A    between atoms: C_37  and  O_38 
ROOT
HETATM    1  O   UNL     1     -18.665 -11.484  -5.433  1.00  0.00    -0.387 OA
ENDROOT
BRANCH   1   2
HETATM    2  C   UNL     1     -17.891 -10.710  -6.346  1.00  0.00     0.193 C 
BRANCH   2   3
HETATM    3  C   UNL     1     -16.733 -10.067  -5.602  1.00  0.00     0.193 C 
BRANCH   3   4
HETATM    4  O   UNL     1     -17.131  -9.762  -4.267  1.00  0.00    -0.387 OA
BRANCH   4   5
HETATM    5  C   UNL     1     -16.039  -9.953  -3.362  1.00  0.00     0.194 C 
BRANCH   5   6
HETATM    6  C   UNL     1     -16.519 -10.662  -2.098  1.00  0.00     0.205 C 
BRANCH   6   7
HETATM    7  O   UNL     1     -17.909 -11.056  -2.201  1.00  0.00    -0.319 OA
BRANCH   7   8
HETATM    8  C   UNL     1     -18.231 -12.167  -1.492  1.00  0.00     0.258 C 
HETATM    9  O   UNL     1     -17.638 -13.246  -1.576  1.00  0.00    -0.265 OA
BRANCH   8  10
HETATM   10  C   UNL     1     -19.380 -11.943  -0.540  1.00  0.00     0.111 C 
BRANCH  10  11
HETATM   11  C   UNL     1     -20.533 -12.901  -0.833  1.00  0.00     0.010 C 
BRANCH  11  12
HETATM   12  C   UNL     1     -21.029 -13.582   0.436  1.00  0.00     0.000 C 
BRANCH  12  13
HETATM   13  C   UNL     1     -22.233 -12.847   0.999  1.00  0.00     0.000 C 
BRANCH  13  14
HETATM   14  C   UNL     1     -23.412 -12.973   0.049  1.00  0.00     0.000 C 
BRANCH  14  15
HETATM   15  C   UNL     1     -23.892 -11.597  -0.376  1.00  0.00     0.000 C 
BRANCH  15  16
HETATM   16  C   UNL     1     -22.934 -10.534   0.130  1.00  0.00     0.000 C 
BRANCH  16  17
HETATM   17  C   UNL     1     -23.625  -9.182   0.151  1.00  0.00     0.000 C 
BRANCH  17  18
HETATM   18  C   UNL     1     -22.701  -8.135   0.751  1.00  0.00    -0.000 C 
BRANCH  18  19
HETATM   19  C   UNL     1     -21.694  -7.661  -0.287  1.00  0.00    -0.005 C 
HETATM   20  C   UNL     1     -22.315  -6.598  -1.170  1.00  0.00     0.005 C 
ENDBRANCH  18  19
ENDBRANCH  17  18
ENDBRANCH  16  17
ENDBRANCH  15  16
ENDBRANCH  14  15
ENDBRANCH  13  14
ENDBRANCH  12  13
ENDBRANCH  11  12
ENDBRANCH  10  11
ENDBRANCH   8  10
ENDBRANCH   7   8
ENDBRANCH   6   7
ENDBRANCH   5   6
ENDBRANCH   4   5
ENDBRANCH   3   4
ENDBRANCH   2   3
ENDBRANCH   1   2
BRANCH   1  21
HETATM   21  C   UNL     1     -19.855 -11.948  -6.065  1.00  0.00     0.193 C 
BRANCH  21  22
HETATM   22  C   UNL     1     -21.056 -11.462  -5.280  1.00  0.00     0.193 C 
BRANCH  22  23
HETATM   23  O   UNL     1     -20.685 -11.294  -3.916  1.00  0.00    -0.387 OA
BRANCH  23  24
HETATM   24  C   UNL     1     -21.407 -10.211  -3.338  1.00  0.00     0.193 C 
BRANCH  24  25
HETATM   25  C   UNL     1     -20.720  -8.909  -3.703  1.00  0.00     0.193 C 
BRANCH  25  26
HETATM   26  O   UNL     1     -21.694  -7.995  -4.194  1.00  0.00    -0.387 OA
BRANCH  26  27
HETATM   27  C   UNL     1     -21.243  -7.398  -5.404  1.00  0.00     0.193 C 
BRANCH  27  28
HETATM   28  C   UNL     1     -21.480  -5.903  -5.342  1.00  0.00     0.193 C 
BRANCH  28  29
HETATM   29  O   UNL     1     -20.329  -5.227  -5.836  1.00  0.00    -0.387 OA
BRANCH  29  30
HETATM   30  C   UNL     1     -20.711  -4.231  -6.779  1.00  0.00     0.193 C 
BRANCH  30  31
HETATM   31  C   UNL     1     -21.818  -4.778  -7.656  1.00  0.00     0.193 C 
BRANCH  31  32
HETATM   32  O   UNL     1     -22.411  -3.705  -8.380  1.00  0.00    -0.387 OA
BRANCH  32  33
HETATM   33  C   UNL     1     -23.400  -4.204  -9.273  1.00  0.00     0.193 C 
BRANCH  33  34
HETATM   34  C   UNL     1     -22.808  -4.311 -10.666  1.00  0.00     0.193 C 
BRANCH  34  35
HETATM   35  O   UNL     1     -22.525  -3.004 -11.165  1.00  0.00    -0.387 OA
BRANCH  35  36
HETATM   36  C   UNL     1     -22.714  -2.968 -12.582  1.00  0.00     0.193 C 
BRANCH  36  37
HETATM   37  C   UNL     1     -24.201  -2.849 -12.883  1.00  0.00     0.190 C 
BRANCH  37  38
HETATM   38  O   UNL     1     -24.446  -1.757 -13.768  1.00  0.00    -0.399 OA
HETATM   39  H   UNL     1     -25.123  -1.208 -13.328  1.00  0.00     0.209 HD
ENDBRANCH  37  38
ENDBRANCH  36  37
ENDBRANCH  35  36
ENDBRANCH  34  35
ENDBRANCH  33  34
ENDBRANCH  32  33
ENDBRANCH  31  32
ENDBRANCH  30  31
ENDBRANCH  29  30
ENDBRANCH  28  29
ENDBRANCH  27  28
ENDBRANCH  26  27
ENDBRANCH  25  26
ENDBRANCH  24  25
ENDBRANCH  23  24
ENDBRANCH  22  23
ENDBRANCH  21  22
ENDBRANCH   1  21
TORSDOF 35
ENDMDL
MODEL 9
REMARK VINA RESULT:      -5.3      4.480      9.226
REMARK WARNING: 32 MAX_TORS EXCEEDED!!!
REMARK  35 active torsions:
REMARK  status: ('A' for Active; 'I' for Inactive)
REMARK    1  A    between atoms: C_2  and  C_3 
REMARK    2  A    between atoms: C_3  and  C_4 
REMARK    3  A    between atoms: C_4  and  C_5 
REMARK    4  A    between atoms: C_5  and  C_6 
REMARK    5  A    between atoms: C_6  and  C_7 
REMARK    6  A    between atoms: C_7  and  C_8 
REMARK    7  A    between atoms: C_8  and  C_9 
REMARK    8  A    between atoms: C_9  and  C_10 
REMARK    9  A    between atoms: C_10  and  C_11 
REMARK   10  A    between atoms: C_11  and  C_12 
REMARK   11  A    between atoms: C_12  and  O_14 
REMARK   12  A    between atoms: O_14  and  C_15 
REMARK   13  A    between atoms: C_15  and  C_16 
REMARK   14  A    between atoms: C_16  and  O_17 
REMARK   15  A    between atoms: O_17  and  C_18 
REMARK   16  A    between atoms: C_18  and  C_19 
REMARK   17  A    between atoms: C_19  and  O_20 
REMARK   18  A    between atoms: O_20  and  C_21 
REMARK   19  A    between atoms: C_21  and  C_22 
REMARK   20  A    between atoms: C_22  and  O_23 
REMARK   21  A    between atoms: O_23  and  C_24 
REMARK   22  A    between atoms: C_24  and  C_25 
REMARK   23  A    between atoms: C_25  and  O_26 
REMARK   24  A    between atoms: O_26  and  C_27 
REMARK   25  A    between atoms: C_27  and  C_28 
REMARK   26  A    between atoms: C_28  and  O_29 
REMARK   27  A    between atoms: O_29  and  C_30 
REMARK   28  A    between atoms: C_30  and  C_31 
REMARK   29  A    between atoms: C_31  and  O_32 
REMARK   30  A    between atoms: O_32  and  C_33 
REMARK   31  A    between atoms: C_33  and  C_34 
REMARK   32  A    between atoms: C_34  and  O_35 
REMARK   33  A    between atoms: O_35  and  C_36 
REMARK   34  A    between atoms: C_36  and  C_37 
REMARK   35  A    between atoms: C_37  and  O_38 
ROOT
HETATM    1  O   UNL     1     -21.876  -8.407  -0.863  1.00  0.00    -0.387 OA
ENDROOT
BRANCH   1   2
HETATM    2  C   UNL     1     -22.604  -9.304  -0.030  1.00  0.00     0.193 C 
BRANCH   2   3
HETATM    3  C   UNL     1     -23.048 -10.503  -0.852  1.00  0.00     0.193 C 
BRANCH   3   4
HETATM    4  O   UNL     1     -21.978 -11.443  -0.944  1.00  0.00    -0.387 OA
BRANCH   4   5
HETATM    5  C   UNL     1     -21.581 -11.617  -2.307  1.00  0.00     0.194 C 
BRANCH   5   6
HETATM    6  C   UNL     1     -22.709 -12.262  -3.108  1.00  0.00     0.205 C 
BRANCH   6   7
HETATM    7  O   UNL     1     -22.770 -11.742  -4.459  1.00  0.00    -0.319 OA
BRANCH   7   8
HETATM    8  C   UNL     1     -22.316 -12.597  -5.410  1.00  0.00     0.258 C 
HETATM    9  O   UNL     1     -22.532 -13.812  -5.416  1.00  0.00    -0.265 OA
BRANCH   8  10
HETATM   10  C   UNL     1     -21.543 -11.903  -6.504  1.00  0.00     0.111 C 
BRANCH  10  11
HETATM   11  C   UNL     1     -20.043 -11.928  -6.219  1.00  0.00     0.010 C 
BRANCH  11  12
HETATM   12  C   UNL     1     -19.250 -12.358  -7.446  1.00  0.00     0.000 C 
BRANCH  12  13
HETATM   13  C   UNL     1     -17.806 -11.898  -7.334  1.00  0.00     0.000 C 
BRANCH  13  14
HETATM   14  C   UNL     1     -17.712 -10.696  -6.410  1.00  0.00     0.000 C 
BRANCH  14  15
HETATM   15  C   UNL     1     -16.263 -10.431  -6.043  1.00  0.00     0.000 C 
BRANCH  15  16
HETATM   16  C   UNL     1     -15.636 -11.685  -5.462  1.00  0.00     0.000 C 
BRANCH  16  17
HETATM   17  C   UNL     1     -16.208 -11.959  -4.082  1.00  0.00     0.000 C 
BRANCH  17  18
HETATM   18  C   UNL     1     -15.229 -11.503  -3.013  1.00  0.00    -0.000 C 
BRANCH  18  19
HETATM   19  C   UNL     1     -15.767 -10.276  -2.291  1.00  0.00    -0.005 C 
HETATM   20  C   UNL     1     -17.234 -10.080  -2.616  1.00  0.00     0.005 C 
ENDBRANCH  18  19
ENDBRANCH  17  18
ENDBRANCH  16  17
ENDBRANCH  15  16
ENDBRANCH  14  15
ENDBRANCH  13  14
ENDBRANCH  12  13
ENDBRANCH  11  12
ENDBRANCH  10  11
ENDBRANCH   8  10
ENDBRANCH   7   8
ENDBRANCH   6   7
ENDBRANCH   5   6
ENDBRANCH   4   5
ENDBRANCH   3   4
ENDBRANCH   2   3
ENDBRANCH   1   2
BRANCH   1  21
HETATM   21  C   UNL     1     -22.319  -7.069  -0.653  1.00  0.00     0.193 C 
BRANCH  21  22
HETATM   22  C   UNL     1     -22.282  -6.321  -1.970  1.00  0.00     0.193 C 
BRANCH  22  23
HETATM   23  O   UNL     1     -21.281  -6.896  -2.805  1.00  0.00    -0.387 OA
BRANCH  23  24
HETATM   24  C   UNL     1     -21.780  -7.063  -4.128  1.00  0.00     0.193 C 
BRANCH  24  25
HETATM   25  C   UNL     1     -21.265  -5.931  -4.996  1.00  0.00     0.193 C 
BRANCH  25  26
HETATM   26  O   UNL     1     -20.032  -6.328  -5.589  1.00  0.00    -0.387 OA
BRANCH  26  27
HETATM   27  C   UNL     1     -20.037  -6.026  -6.980  1.00  0.00     0.193 C 
BRANCH  27  28
HETATM   28  C   UNL     1     -19.679  -4.566  -7.174  1.00  0.00     0.193 C 
BRANCH  28  29
HETATM   29  O   UNL     1     -20.301  -4.087  -8.361  1.00  0.00    -0.387 OA
BRANCH  29  30
HETATM   30  C   UNL     1     -21.624  -3.642  -8.077  1.00  0.00     0.193 C 
BRANCH  30  31
HETATM   31  C   UNL     1     -22.600  -4.399  -8.954  1.00  0.00     0.193 C 
BRANCH  31  32
HETATM   32  O   UNL     1     -23.925  -3.985  -8.640  1.00  0.00    -0.387 OA
BRANCH  32  33
HETATM   33  C   UNL     1     -24.543  -3.408  -9.784  1.00  0.00     0.193 C 
BRANCH  33  34
HETATM   34  C   UNL     1     -23.984  -4.058 -11.036  1.00  0.00     0.193 C 
BRANCH  34  35
HETATM   35  O   UNL     1     -24.269  -3.237 -12.168  1.00  0.00    -0.387 OA
BRANCH  35  36
HETATM   36  C   UNL     1     -23.054  -2.714 -12.712  1.00  0.00     0.193 C 
BRANCH  36  37
HETATM   37  C   UNL     1     -23.166  -2.674 -14.230  1.00  0.00     0.190 C 
BRANCH  37  38
HETATM   38  O   UNL     1     -23.848  -3.830 -14.712  1.00  0.00    -0.399 OA
HETATM   39  H   UNL     1     -23.783  -3.788 -15.685  1.00  0.00     0.209 HD
ENDBRANCH  37  38
ENDBRANCH  36  37
ENDBRANCH  35  36
ENDBRANCH  34  35
ENDBRANCH  33  34
ENDBRANCH  32  33
ENDBRANCH  31  32
ENDBRANCH  30  31
ENDBRANCH  29  30
ENDBRANCH  28  29
ENDBRANCH  27  28
ENDBRANCH  26  27
ENDBRANCH  25  26
ENDBRANCH  24  25
ENDBRANCH  23  24
ENDBRANCH  22  23
ENDBRANCH  21  22
ENDBRANCH   1  21
TORSDOF 35
ENDMDL
