MODEL 1
REMARK VINA RESULT:      -7.3      0.000      0.000
REMARK  11 active torsions:
REMARK  status: ('A' for Active; 'I' for Inactive)
REMARK    1  A    between atoms: C_2  and  C_3 
REMARK    2  A    between atoms: C_3  and  C_4 
REMARK    3  A    between atoms: C_4  and  C_5 
REMARK    4  A    between atoms: C_5  and  C_6 
REMARK    5  A    between atoms: C_6  and  C_7 
REMARK    6  A    between atoms: C_7  and  C_8 
REMARK    7  A    between atoms: C_8  and  C_9 
REMARK    8  A    between atoms: C_9  and  C_10 
REMARK    9  A    between atoms: C_10  and  C_11 
REMARK   10  A    between atoms: C_11  and  C_12 
REMARK   11  A    between atoms: C_12  and  N_13 
ROOT
HETATM    1  C   UNL     1     -19.762  -5.774  -6.682  1.00  0.00     0.002 C 
ENDROOT
BRANCH   1   2
HETATM    2  C   UNL     1     -20.560  -5.245  -5.496  1.00  0.00     0.000 C 
BRANCH   2   3
HETATM    3  C   UNL     1     -21.794  -6.101  -5.253  1.00  0.00     0.000 C 
BRANCH   3   4
HETATM    4  C   UNL     1     -21.395  -7.479  -4.741  1.00  0.00     0.000 C 
BRANCH   4   5
HETATM    5  C   UNL     1     -21.197  -7.449  -3.231  1.00  0.00     0.000 C 
BRANCH   5   6
HETATM    6  C   UNL     1     -22.057  -6.364  -2.599  1.00  0.00     0.000 C 
BRANCH   6   7
HETATM    7  C   UNL     1     -22.172  -6.577  -1.095  1.00  0.00     0.000 C 
BRANCH   7   8
HETATM    8  C   UNL     1     -21.396  -7.818  -0.668  1.00  0.00    -0.000 C 
BRANCH   8   9
HETATM    9  C   UNL     1     -21.944  -8.383   0.640  1.00  0.00    -0.005 C 
HETATM   10  C   UNL     1     -23.440  -8.622   0.543  1.00  0.00     0.005 C 
ENDBRANCH   8   9
ENDBRANCH   7   8
ENDBRANCH   6   7
ENDBRANCH   5   6
ENDBRANCH   4   5
ENDBRANCH   3   4
ENDBRANCH   2   3
ENDBRANCH   1   2
BRANCH   1  11
HETATM   11  C   UNL     1     -19.392  -4.634  -7.627  1.00  0.00     0.020 C 
BRANCH  11  12
HETATM   12  C   UNL     1     -20.597  -3.735  -7.887  1.00  0.00     0.125 C 
BRANCH  12  13
HETATM   13  N   UNL     1     -21.354  -4.152  -9.060  1.00  0.00    -0.352 N 
HETATM   14  C   UNL     1     -20.621  -4.373 -10.304  1.00  0.00     0.125 C 
HETATM   15  C   UNL     1     -20.887  -3.272 -11.325  1.00  0.00     0.020 C 
HETATM   16  C   UNL     1     -22.211  -3.451 -12.064  1.00  0.00     0.002 C 
HETATM   17  C   UNL     1     -23.444  -3.426 -11.164  1.00  0.00     0.009 C 
HETATM   18  C   UNL     1     -23.509  -4.599 -10.192  1.00  0.00     0.103 C 
HETATM   19  C   UNL     1     -22.723  -4.332  -8.927  1.00  0.00     0.219 C 
HETATM   20  O   UNL     1     -23.300  -4.260  -7.844  1.00  0.00    -0.273 OA
ENDBRANCH  12  13
ENDBRANCH  11  12
ENDBRANCH   1  11
TORSDOF 11
ENDMDL
MODEL 2
REMARK VINA RESULT:      -7.2      1.374      2.020
REMARK  11 active torsions:
REMARK  status: ('A' for Active; 'I' for Inactive)
REMARK    1  A    between atoms: C_2  and  C_3 
REMARK    2  A    between atoms: C_3  and  C_4 
REMARK    3  A    between atoms: C_4  and  C_5 
REMARK    4  A    between atoms: C_5  and  C_6 
REMARK    5  A    between atoms: C_6  and  C_7 
REMARK    6  A    between atoms: C_7  and  C_8 
REMARK    7  A    between atoms: C_8  and  C_9 
REMARK    8  A    between atoms: C_9  and  C_10 
REMARK    9  A    between atoms: C_10  and  C_11 
REMARK   10  A    between atoms: C_11  and  C_12 
REMARK   11  A    between atoms: C_12  and  N_13 
ROOT
HETATM    1  C   UNL     1     -20.456  -5.230  -5.597  1.00  0.00     0.002 C 
ENDROOT
BRANCH   1   2
HETATM    2  C   UNL     1     -21.862  -5.809  -5.707  1.00  0.00     0.000 C 
BRANCH   2   3
HETATM    3  C   UNL     1     -22.198  -6.643  -4.479  1.00  0.00     0.000 C 
BRANCH   3   4
HETATM    4  C   UNL     1     -20.970  -7.404  -3.999  1.00  0.00     0.000 C 
BRANCH   4   5
HETATM    5  C   UNL     1     -20.834  -7.297  -2.486  1.00  0.00     0.000 C 
BRANCH   5   6
HETATM    6  C   UNL     1     -21.961  -6.453  -1.905  1.00  0.00     0.000 C 
BRANCH   6   7
HETATM    7  C   UNL     1     -22.486  -7.073  -0.616  1.00  0.00     0.000 C 
BRANCH   7   8
HETATM    8  C   UNL     1     -21.911  -8.471  -0.419  1.00  0.00    -0.000 C 
BRANCH   8   9
HETATM    9  C   UNL     1     -21.323  -8.628   0.980  1.00  0.00    -0.005 C 
HETATM   10  C   UNL     1     -20.753 -10.022   1.176  1.00  0.00     0.005 C 
ENDBRANCH   8   9
ENDBRANCH   7   8
ENDBRANCH   6   7
ENDBRANCH   5   6
ENDBRANCH   4   5
ENDBRANCH   3   4
ENDBRANCH   2   3
ENDBRANCH   1   2
BRANCH   1  11
HETATM   11  C   UNL     1     -20.041  -4.582  -6.915  1.00  0.00     0.020 C 
BRANCH  11  12
HETATM   12  C   UNL     1     -20.674  -5.311  -8.097  1.00  0.00     0.125 C 
BRANCH  12  13
HETATM   13  N   UNL     1     -21.280  -4.393  -9.052  1.00  0.00    -0.352 N 
HETATM   14  C   UNL     1     -22.428  -3.606  -8.609  1.00  0.00     0.125 C 
HETATM   15  C   UNL     1     -23.730  -4.095  -9.236  1.00  0.00     0.020 C 
HETATM   16  C   UNL     1     -23.928  -3.595 -10.665  1.00  0.00     0.002 C 
HETATM   17  C   UNL     1     -22.851  -4.050 -11.647  1.00  0.00     0.009 C 
HETATM   18  C   UNL     1     -21.471  -3.476 -11.343  1.00  0.00     0.103 C 
HETATM   19  C   UNL     1     -20.725  -4.305 -10.320  1.00  0.00     0.219 C 
HETATM   20  O   UNL     1     -19.687  -4.885 -10.632  1.00  0.00    -0.273 OA
ENDBRANCH  12  13
ENDBRANCH  11  12
ENDBRANCH   1  11
TORSDOF 11
ENDMDL
MODEL 3
REMARK VINA RESULT:      -6.8      2.740      9.226
REMARK  11 active torsions:
REMARK  status: ('A' for Active; 'I' for Inactive)
REMARK    1  A    between atoms: C_2  and  C_3 
REMARK    2  A    between atoms: C_3  and  C_4 
REMARK    3  A    between atoms: C_4  and  C_5 
REMARK    4  A    between atoms: C_5  and  C_6 
REMARK    5  A    between atoms: C_6  and  C_7 
REMARK    6  A    between atoms: C_7  and  C_8 
REMARK    7  A    between atoms: C_8  and  C_9 
REMARK    8  A    between atoms: C_9  and  C_10 
REMARK    9  A    between atoms: C_10  and  C_11 
REMARK   10  A    between atoms: C_11  and  C_12 
REMARK   11  A    between atoms: C_12  and  N_13 
ROOT
HETATM    1  C   UNL     1     -21.226  -7.596  -5.295  1.00  0.00     0.002 C 
ENDROOT
BRANCH   1   2
HETATM    2  C   UNL     1     -21.745  -6.163  -5.274  1.00  0.00     0.000 C 
BRANCH   2   3
HETATM    3  C   UNL     1     -20.592  -5.173  -5.349  1.00  0.00     0.000 C 
BRANCH   3   4
HETATM    4  C   UNL     1     -20.188  -4.934  -6.798  1.00  0.00     0.000 C 
BRANCH   4   5
HETATM    5  C   UNL     1     -21.044  -3.836  -7.415  1.00  0.00     0.000 C 
BRANCH   5   6
HETATM    6  C   UNL     1     -21.603  -4.283  -8.758  1.00  0.00     0.000 C 
BRANCH   6   7
HETATM    7  C   UNL     1     -20.505  -4.309  -9.814  1.00  0.00     0.000 C 
BRANCH   7   8
HETATM    8  C   UNL     1     -21.105  -4.261 -11.215  1.00  0.00    -0.000 C 
BRANCH   8   9
HETATM    9  C   UNL     1     -21.563  -2.848 -11.566  1.00  0.00    -0.005 C 
HETATM   10  C   UNL     1     -23.046  -2.824 -11.888  1.00  0.00     0.005 C 
ENDBRANCH   8   9
ENDBRANCH   7   8
ENDBRANCH   6   7
ENDBRANCH   5   6
ENDBRANCH   4   5
ENDBRANCH   3   4
ENDBRANCH   2   3
ENDBRANCH   1   2
BRANCH   1  11
HETATM   11  C   UNL     1     -21.586  -8.312  -3.996  1.00  0.00     0.020 C 
BRANCH  11  12
HETATM   12  C   UNL     1     -20.803  -7.729  -2.824  1.00  0.00     0.125 C 
BRANCH  12  13
HETATM   13  N   UNL     1     -21.253  -8.256  -1.542  1.00  0.00    -0.352 N 
HETATM   14  C   UNL     1     -20.655  -9.502  -1.068  1.00  0.00     0.125 C 
HETATM   15  C   UNL     1     -21.631 -10.671  -1.157  1.00  0.00     0.020 C 
HETATM   16  C   UNL     1     -22.631 -10.702  -0.004  1.00  0.00     0.002 C 
HETATM   17  C   UNL     1     -23.534  -9.473   0.081  1.00  0.00     0.009 C 
HETATM   18  C   UNL     1     -22.780  -8.188   0.405  1.00  0.00     0.103 C 
HETATM   19  C   UNL     1     -22.207  -7.539  -0.837  1.00  0.00     0.219 C 
HETATM   20  O   UNL     1     -22.606  -6.433  -1.195  1.00  0.00    -0.273 OA
ENDBRANCH  12  13
ENDBRANCH  11  12
ENDBRANCH   1  11
TORSDOF 11
ENDMDL
MODEL 4
REMARK VINA RESULT:      -6.8      2.373      8.804
REMARK  11 active torsions:
REMARK  status: ('A' for Active; 'I' for Inactive)
REMARK    1  A    between atoms: C_2  and  C_3 
REMARK    2  A    between atoms: C_3  and  C_4 
REMARK    3  A    between atoms: C_4  and  C_5 
REMARK    4  A    between atoms: C_5  and  C_6 
REMARK    5  A    between atoms: C_6  and  C_7 
REMARK    6  A    between atoms: C_7  and  C_8 
REMARK    7  A    between atoms: C_8  and  C_9 
REMARK    8  A    between atoms: C_9  and  C_10 
REMARK    9  A    between atoms: C_10  and  C_11 
REMARK   10  A    between atoms: C_11  and  C_12 
REMARK   11  A    between atoms: C_12  and  N_13 
ROOT
HETATM    1  C   UNL     1     -20.954  -6.747  -6.234  1.00  0.00     0.002 C 
ENDROOT
BRANCH   1   2
HETATM    2  C   UNL     1     -19.874  -5.782  -6.707  1.00  0.00     0.000 C 
BRANCH   2   3
HETATM    3  C   UNL     1     -20.395  -4.352  -6.713  1.00  0.00     0.000 C 
BRANCH   3   4
HETATM    4  C   UNL     1     -21.020  -4.017  -8.061  1.00  0.00     0.000 C 
BRANCH   4   5
HETATM    5  C   UNL     1     -20.188  -4.607  -9.193  1.00  0.00     0.000 C 
BRANCH   5   6
HETATM    6  C   UNL     1     -20.500  -3.907 -10.508  1.00  0.00     0.000 C 
BRANCH   6   7
HETATM    7  C   UNL     1     -21.827  -4.394 -11.075  1.00  0.00     0.000 C 
BRANCH   7   8
HETATM    8  C   UNL     1     -22.689  -3.215 -11.514  1.00  0.00    -0.000 C 
BRANCH   8   9
HETATM    9  C   UNL     1     -24.127  -3.380 -11.031  1.00  0.00    -0.005 C 
HETATM   10  C   UNL     1     -24.239  -4.520 -10.035  1.00  0.00     0.005 C 
ENDBRANCH   8   9
ENDBRANCH   7   8
ENDBRANCH   6   7
ENDBRANCH   5   6
ENDBRANCH   4   5
ENDBRANCH   3   4
ENDBRANCH   2   3
ENDBRANCH   1   2
BRANCH   1  11
HETATM   11  C   UNL     1     -20.548  -7.395  -4.913  1.00  0.00     0.020 C 
BRANCH  11  12
HETATM   12  C   UNL     1     -21.763  -7.984  -4.204  1.00  0.00     0.125 C 
BRANCH  12  13
HETATM   13  N   UNL     1     -21.588  -8.041  -2.759  1.00  0.00    -0.352 N 
HETATM   14  C   UNL     1     -20.923  -9.214  -2.197  1.00  0.00     0.125 C 
HETATM   15  C   UNL     1     -21.901 -10.126  -1.464  1.00  0.00     0.020 C 
HETATM   16  C   UNL     1     -22.238  -9.633  -0.058  1.00  0.00     0.002 C 
HETATM   17  C   UNL     1     -22.907  -8.261  -0.015  1.00  0.00     0.009 C 
HETATM   18  C   UNL     1     -22.005  -7.130  -0.496  1.00  0.00     0.103 C 
HETATM   19  C   UNL     1     -22.045  -6.974  -2.001  1.00  0.00     0.219 C 
HETATM   20  O   UNL     1     -22.490  -5.944  -2.504  1.00  0.00    -0.273 OA
ENDBRANCH  12  13
ENDBRANCH  11  12
ENDBRANCH   1  11
TORSDOF 11
ENDMDL
MODEL 5
REMARK VINA RESULT:      -6.5      3.463      9.047
REMARK  11 active torsions:
REMARK  status: ('A' for Active; 'I' for Inactive)
REMARK    1  A    between atoms: C_2  and  C_3 
REMARK    2  A    between atoms: C_3  and  C_4 
REMARK    3  A    between atoms: C_4  and  C_5 
REMARK    4  A    between atoms: C_5  and  C_6 
REMARK    5  A    between atoms: C_6  and  C_7 
REMARK    6  A    between atoms: C_7  and  C_8 
REMARK    7  A    between atoms: C_8  and  C_9 
REMARK    8  A    between atoms: C_9  and  C_10 
REMARK    9  A    between atoms: C_10  and  C_11 
REMARK   10  A    between atoms: C_11  and  C_12 
REMARK   11  A    between atoms: C_12  and  N_13 
ROOT
HETATM    1  C   UNL     1     -21.319  -6.407  -3.153  1.00  0.00     0.002 C 
ENDROOT
BRANCH   1   2
HETATM    2  C   UNL     1     -22.002  -6.624  -4.497  1.00  0.00     0.000 C 
BRANCH   2   3
HETATM    3  C   UNL     1     -21.008  -7.134  -5.530  1.00  0.00     0.000 C 
BRANCH   3   4
HETATM    4  C   UNL     1     -20.959  -6.199  -6.731  1.00  0.00     0.000 C 
BRANCH   4   5
HETATM    5  C   UNL     1     -21.925  -5.037  -6.539  1.00  0.00     0.000 C 
BRANCH   5   6
HETATM    6  C   UNL     1     -21.685  -3.960  -7.589  1.00  0.00     0.000 C 
BRANCH   6   7
HETATM    7  C   UNL     1     -21.779  -4.548  -8.991  1.00  0.00     0.000 C 
BRANCH   7   8
HETATM    8  C   UNL     1     -22.603  -3.641  -9.899  1.00  0.00    -0.000 C 
BRANCH   8   9
HETATM    9  C   UNL     1     -21.911  -3.439 -11.244  1.00  0.00    -0.005 C 
HETATM   10  C   UNL     1     -20.454  -3.861 -11.174  1.00  0.00     0.005 C 
ENDBRANCH   8   9
ENDBRANCH   7   8
ENDBRANCH   6   7
ENDBRANCH   5   6
ENDBRANCH   4   5
ENDBRANCH   3   4
ENDBRANCH   2   3
ENDBRANCH   1   2
BRANCH   1  11
HETATM   11  C   UNL     1     -22.300  -6.656  -2.010  1.00  0.00     0.020 C 
BRANCH  11  12
HETATM   12  C   UNL     1     -21.609  -7.367  -0.851  1.00  0.00     0.125 C 
BRANCH  12  13
HETATM   13  N   UNL     1     -21.892  -8.796  -0.830  1.00  0.00    -0.352 N 
HETATM   14  C   UNL     1     -21.019  -9.675  -1.604  1.00  0.00     0.125 C 
HETATM   15  C   UNL     1     -21.714 -10.214  -2.850  1.00  0.00     0.020 C 
HETATM   16  C   UNL     1     -22.647 -11.385  -2.555  1.00  0.00     0.002 C 
HETATM   17  C   UNL     1     -23.796 -11.052  -1.607  1.00  0.00     0.009 C 
HETATM   18  C   UNL     1     -23.337 -10.702  -0.196  1.00  0.00     0.103 C 
HETATM   19  C   UNL     1     -22.960  -9.242  -0.067  1.00  0.00     0.219 C 
HETATM   20  O   UNL     1     -23.604  -8.500   0.671  1.00  0.00    -0.273 OA
ENDBRANCH  12  13
ENDBRANCH  11  12
ENDBRANCH   1  11
TORSDOF 11
ENDMDL
MODEL 6
REMARK VINA RESULT:      -6.3      4.093     10.017
REMARK  11 active torsions:
REMARK  status: ('A' for Active; 'I' for Inactive)
REMARK    1  A    between atoms: C_2  and  C_3 
REMARK    2  A    between atoms: C_3  and  C_4 
REMARK    3  A    between atoms: C_4  and  C_5 
REMARK    4  A    between atoms: C_5  and  C_6 
REMARK    5  A    between atoms: C_6  and  C_7 
REMARK    6  A    between atoms: C_7  and  C_8 
REMARK    7  A    between atoms: C_8  and  C_9 
REMARK    8  A    between atoms: C_9  and  C_10 
REMARK    9  A    between atoms: C_10  and  C_11 
REMARK   10  A    between atoms: C_11  and  C_12 
REMARK   11  A    between atoms: C_12  and  N_13 
ROOT
HETATM    1  C   UNL     1     -22.264  -6.759  -1.370  1.00  0.00     0.002 C 
ENDROOT
BRANCH   1   2
HETATM    2  C   UNL     1     -21.547  -6.032  -2.502  1.00  0.00     0.000 C 
BRANCH   2   3
HETATM    3  C   UNL     1     -21.787  -6.735  -3.830  1.00  0.00     0.000 C 
BRANCH   3   4
HETATM    4  C   UNL     1     -20.953  -6.093  -4.931  1.00  0.00     0.000 C 
BRANCH   4   5
HETATM    5  C   UNL     1     -21.851  -5.590  -6.054  1.00  0.00     0.000 C 
BRANCH   5   6
HETATM    6  C   UNL     1     -21.172  -5.766  -7.404  1.00  0.00     0.000 C 
BRANCH   6   7
HETATM    7  C   UNL     1     -19.807  -5.089  -7.411  1.00  0.00     0.000 C 
BRANCH   7   8
HETATM    8  C   UNL     1     -19.737  -4.034  -8.509  1.00  0.00    -0.000 C 
BRANCH   8   9
HETATM    9  C   UNL     1     -20.099  -4.632  -9.866  1.00  0.00    -0.005 C 
HETATM   10  C   UNL     1     -21.137  -3.781 -10.575  1.00  0.00     0.005 C 
ENDBRANCH   8   9
ENDBRANCH   7   8
ENDBRANCH   6   7
ENDBRANCH   5   6
ENDBRANCH   4   5
ENDBRANCH   3   4
ENDBRANCH   2   3
ENDBRANCH   1   2
BRANCH   1  11
HETATM   11  C   UNL     1     -21.340  -7.792  -0.730  1.00  0.00     0.020 C 
BRANCH  11  12
HETATM   12  C   UNL     1     -22.094  -8.626   0.300  1.00  0.00     0.125 C 
BRANCH  12  13
HETATM   13  N   UNL     1     -22.054 -10.050  -0.005  1.00  0.00    -0.352 N 
HETATM   14  C   UNL     1     -22.944 -10.550  -1.051  1.00  0.00     0.125 C 
HETATM   15  C   UNL     1     -24.096 -11.365  -0.475  1.00  0.00     0.020 C 
HETATM   16  C   UNL     1     -23.697 -12.796  -0.120  1.00  0.00     0.002 C 
HETATM   17  C   UNL     1     -22.605 -12.900   0.941  1.00  0.00     0.009 C 
HETATM   18  C   UNL     1     -21.261 -12.343   0.486  1.00  0.00     0.103 C 
HETATM   19  C   UNL     1     -21.165 -10.847   0.699  1.00  0.00     0.219 C 
HETATM   20  O   UNL     1     -20.341 -10.387   1.487  1.00  0.00    -0.273 OA
ENDBRANCH  12  13
ENDBRANCH  11  12
ENDBRANCH   1  11
TORSDOF 11
ENDMDL
MODEL 7
REMARK VINA RESULT:      -6.0      2.618      4.134
REMARK  11 active torsions:
REMARK  status: ('A' for Active; 'I' for Inactive)
REMARK    1  A    between atoms: C_2  and  C_3 
REMARK    2  A    between atoms: C_3  and  C_4 
REMARK    3  A    between atoms: C_4  and  C_5 
REMARK    4  A    between atoms: C_5  and  C_6 
REMARK    5  A    between atoms: C_6  and  C_7 
REMARK    6  A    between atoms: C_7  and  C_8 
REMARK    7  A    between atoms: C_8  and  C_9 
REMARK    8  A    between atoms: C_9  and  C_10 
REMARK    9  A    between atoms: C_10  and  C_11 
REMARK   10  A    between atoms: C_11  and  C_12 
REMARK   11  A    between atoms: C_12  and  N_13 
ROOT
HETATM    1  C   UNL     1     -21.280  -6.175  -3.682  1.00  0.00     0.002 C 
ENDROOT
BRANCH   1   2
HETATM    2  C   UNL     1     -21.810  -6.314  -2.259  1.00  0.00     0.000 C 
BRANCH   2   3
HETATM    3  C   UNL     1     -21.159  -7.497  -1.557  1.00  0.00     0.000 C 
BRANCH   3   4
HETATM    4  C   UNL     1     -22.216  -8.497  -1.107  1.00  0.00     0.000 C 
BRANCH   4   5
HETATM    5  C   UNL     1     -21.819  -9.910  -1.515  1.00  0.00     0.000 C 
BRANCH   5   6
HETATM    6  C   UNL     1     -23.043 -10.813  -1.582  1.00  0.00     0.000 C 
BRANCH   6   7
HETATM    7  C   UNL     1     -23.702 -10.926  -0.213  1.00  0.00     0.000 C 
BRANCH   7   8
HETATM    8  C   UNL     1     -23.568 -12.343   0.332  1.00  0.00    -0.000 C 
BRANCH   8   9
HETATM    9  C   UNL     1     -23.304 -13.340  -0.794  1.00  0.00    -0.005 C 
HETATM   10  C   UNL     1     -24.521 -14.213  -1.042  1.00  0.00     0.005 C 
ENDBRANCH   8   9
ENDBRANCH   7   8
ENDBRANCH   6   7
ENDBRANCH   5   6
ENDBRANCH   4   5
ENDBRANCH   3   4
ENDBRANCH   2   3
ENDBRANCH   1   2
BRANCH   1  11
HETATM   11  C   UNL     1     -22.375  -6.505  -4.693  1.00  0.00     0.020 C 
BRANCH  11  12
HETATM   12  C   UNL     1     -21.770  -6.861  -6.047  1.00  0.00     0.125 C 
BRANCH  12  13
HETATM   13  N   UNL     1     -21.350  -5.682  -6.793  1.00  0.00    -0.352 N 
HETATM   14  C   UNL     1     -22.295  -4.573  -6.904  1.00  0.00     0.125 C 
HETATM   15  C   UNL     1     -22.875  -4.459  -8.310  1.00  0.00     0.020 C 
HETATM   16  C   UNL     1     -21.931  -3.766  -9.291  1.00  0.00     0.002 C 
HETATM   17  C   UNL     1     -20.599  -4.482  -9.497  1.00  0.00     0.009 C 
HETATM   18  C   UNL     1     -19.726  -4.512  -8.248  1.00  0.00     0.103 C 
HETATM   19  C   UNL     1     -20.076  -5.671  -7.339  1.00  0.00     0.219 C 
HETATM   20  O   UNL     1     -19.256  -6.562  -7.129  1.00  0.00    -0.273 OA
ENDBRANCH  12  13
ENDBRANCH  11  12
ENDBRANCH   1  11
TORSDOF 11
ENDMDL
MODEL 8
REMARK VINA RESULT:      -6.0      3.846      8.269
REMARK  11 active torsions:
REMARK  status: ('A' for Active; 'I' for Inactive)
REMARK    1  A    between atoms: C_2  and  C_3 
REMARK    2  A    between atoms: C_3  and  C_4 
REMARK    3  A    between atoms: C_4  and  C_5 
REMARK    4  A    between atoms: C_5  and  C_6 
REMARK    5  A    between atoms: C_6  and  C_7 
REMARK    6  A    between atoms: C_7  and  C_8 
REMARK    7  A    between atoms: C_8  and  C_9 
REMARK    8  A    between atoms: C_9  and  C_10 
REMARK    9  A    between atoms: C_10  and  C_11 
REMARK   10  A    between atoms: C_11  and  C_12 
REMARK   11  A    between atoms: C_12  and  N_13 
ROOT
HETATM    1  C   UNL     1     -21.042  -7.556  -3.129  1.00  0.00     0.002 C 
ENDROOT
BRANCH   1   2
HETATM    2  C   UNL     1     -21.628  -7.941  -4.482  1.00  0.00     0.000 C 
BRANCH   2   3
HETATM    3  C   UNL     1     -21.196  -6.954  -5.557  1.00  0.00     0.000 C 
BRANCH   3   4
HETATM    4  C   UNL     1     -20.877  -5.599  -4.938  1.00  0.00     0.000 C 
BRANCH   4   5
HETATM    5  C   UNL     1     -20.048  -4.757  -5.900  1.00  0.00     0.000 C 
BRANCH   5   6
HETATM    6  C   UNL     1     -19.745  -5.538  -7.171  1.00  0.00     0.000 C 
BRANCH   6   7
HETATM    7  C   UNL     1     -19.959  -4.665  -8.401  1.00  0.00     0.000 C 
BRANCH   7   8
HETATM    8  C   UNL     1     -21.445  -4.419  -8.633  1.00  0.00    -0.000 C 
BRANCH   8   9
HETATM    9  C   UNL     1     -21.723  -4.080 -10.095  1.00  0.00    -0.005 C 
HETATM   10  C   UNL     1     -20.461  -4.208 -10.930  1.00  0.00     0.005 C 
ENDBRANCH   8   9
ENDBRANCH   7   8
ENDBRANCH   6   7
ENDBRANCH   5   6
ENDBRANCH   4   5
ENDBRANCH   3   4
ENDBRANCH   2   3
ENDBRANCH   1   2
BRANCH   1  11
HETATM   11  C   UNL     1     -20.018  -8.593  -2.677  1.00  0.00     0.020 C 
BRANCH  11  12
HETATM   12  C   UNL     1     -20.208  -9.904  -3.433  1.00  0.00     0.125 C 
BRANCH  12  13
HETATM   13  N   UNL     1     -18.962 -10.399  -4.004  1.00  0.00    -0.352 N 
HETATM   14  C   UNL     1     -17.847 -10.652  -3.095  1.00  0.00     0.125 C 
HETATM   15  C   UNL     1     -16.745  -9.609  -3.241  1.00  0.00     0.020 C 
HETATM   16  C   UNL     1     -15.836  -9.864  -4.441  1.00  0.00     0.002 C 
HETATM   17  C   UNL     1     -16.550  -9.838  -5.790  1.00  0.00     0.009 C 
HETATM   18  C   UNL     1     -17.560 -10.967  -5.963  1.00  0.00     0.103 C 
HETATM   19  C   UNL     1     -18.909 -10.617  -5.372  1.00  0.00     0.219 C 
HETATM   20  O   UNL     1     -19.894 -10.513  -6.100  1.00  0.00    -0.273 OA
ENDBRANCH  12  13
ENDBRANCH  11  12
ENDBRANCH   1  11
TORSDOF 11
ENDMDL
MODEL 9
REMARK VINA RESULT:      -6.0      3.378      9.512
REMARK  11 active torsions:
REMARK  status: ('A' for Active; 'I' for Inactive)
REMARK    1  A    between atoms: C_2  and  C_3 
REMARK    2  A    between atoms: C_3  and  C_4 
REMARK    3  A    between atoms: C_4  and  C_5 
REMARK    4  A    between atoms: C_5  and  C_6 
REMARK    5  A    between atoms: C_6  and  C_7 
REMARK    6  A    between atoms: C_7  and  C_8 
REMARK    7  A    between atoms: C_8  and  C_9 
REMARK    8  A    between atoms: C_9  and  C_10 
REMARK    9  A    between atoms: C_10  and  C_11 
REMARK   10  A    between atoms: C_11  and  C_12 
REMARK   11  A    between atoms: C_12  and  N_13 
ROOT
HETATM    1  C   UNL     1     -21.228  -7.379  -2.382  1.00  0.00     0.002 C 
ENDROOT
BRANCH   1   2
HETATM    2  C   UNL     1     -21.474  -6.267  -3.395  1.00  0.00     0.000 C 
BRANCH   2   3
HETATM    3  C   UNL     1     -21.895  -6.847  -4.738  1.00  0.00     0.000 C 
BRANCH   3   4
HETATM    4  C   UNL     1     -21.641  -5.843  -5.855  1.00  0.00     0.000 C 
BRANCH   4   5
HETATM    5  C   UNL     1     -20.150  -5.739  -6.148  1.00  0.00     0.000 C 
BRANCH   5   6
HETATM    6  C   UNL     1     -19.914  -5.134  -7.524  1.00  0.00     0.000 C 
BRANCH   6   7
HETATM    7  C   UNL     1     -21.013  -4.136  -7.868  1.00  0.00     0.000 C 
BRANCH   7   8
HETATM    8  C   UNL     1     -21.590  -4.425  -9.249  1.00  0.00    -0.000 C 
BRANCH   8   9
HETATM    9  C   UNL     1     -20.594  -4.056 -10.345  1.00  0.00    -0.005 C 
HETATM   10  C   UNL     1     -21.262  -3.225 -11.426  1.00  0.00     0.005 C 
ENDBRANCH   8   9
ENDBRANCH   7   8
ENDBRANCH   6   7
ENDBRANCH   5   6
ENDBRANCH   4   5
ENDBRANCH   3   4
ENDBRANCH   2   3
ENDBRANCH   1   2
BRANCH   1  11
HETATM   11  C   UNL     1     -20.909  -8.689  -3.096  1.00  0.00     0.020 C 
BRANCH  11  12
HETATM   12  C   UNL     1     -21.789  -9.819  -2.570  1.00  0.00     0.125 C 
BRANCH  12  13
HETATM   13  N   UNL     1     -21.823  -9.861  -1.114  1.00  0.00    -0.352 N 
HETATM   14  C   UNL     1     -23.061  -9.461  -0.448  1.00  0.00     0.125 C 
HETATM   15  C   UNL     1     -22.925  -8.107   0.240  1.00  0.00     0.020 C 
HETATM   16  C   UNL     1     -22.216  -8.193   1.590  1.00  0.00     0.002 C 
HETATM   17  C   UNL     1     -20.783  -8.716   1.517  1.00  0.00     0.009 C 
HETATM   18  C   UNL     1     -20.690 -10.169   1.064  1.00  0.00     0.103 C 
HETATM   19  C   UNL     1     -20.689 -10.294  -0.444  1.00  0.00     0.219 C 
HETATM   20  O   UNL     1     -19.704 -10.740  -1.027  1.00  0.00    -0.273 OA
ENDBRANCH  12  13
ENDBRANCH  11  12
ENDBRANCH   1  11
TORSDOF 11
ENDMDL
