MODEL 1
REMARK VINA RESULT:      -4.3      0.000      0.000
REMARK  3 active torsions:
REMARK  status: ('A' for Active; 'I' for Inactive)
REMARK    1  A    between atoms: C_2  and  C_3 
REMARK    2  A    between atoms: C_2  and  O_6 
REMARK    3  A    between atoms: C_3  and  O_5 
ROOT
HETATM    1  C   UNL     1     -28.943 -14.928 -18.287  1.00  0.00     0.042 C 
HETATM    2  C   UNL     1     -29.485 -13.982 -19.351  1.00  0.00     0.142 C 
ENDROOT
BRANCH   2   3
HETATM    3  C   UNL     1     -29.487 -14.569 -20.777  1.00  0.00     0.142 C 
HETATM    4  C   UNL     1     -30.882 -14.854 -21.319  1.00  0.00     0.042 C 
BRANCH   3   5
HETATM    5  O   UNL     1     -28.793 -13.681 -21.664  1.00  0.00    -0.393 OA
HETATM    6  H   UNL     1     -29.404 -12.971 -21.922  1.00  0.00     0.210 HD
ENDBRANCH   3   5
ENDBRANCH   2   3
BRANCH   2   7
HETATM    7  O   UNL     1     -30.829 -13.660 -18.986  1.00  0.00    -0.393 OA
HETATM    8  H   UNL     1     -31.347 -14.479 -19.121  1.00  0.00     0.210 HD
ENDBRANCH   2   7
TORSDOF 3
ENDMDL
MODEL 2
REMARK VINA RESULT:      -4.1     12.961     13.247
REMARK  3 active torsions:
REMARK  status: ('A' for Active; 'I' for Inactive)
REMARK    1  A    between atoms: C_2  and  C_3 
REMARK    2  A    between atoms: C_2  and  O_6 
REMARK    3  A    between atoms: C_3  and  O_5 
ROOT
HETATM    1  C   UNL     1     -34.159  -5.838 -10.818  1.00  0.00     0.042 C 
HETATM    2  C   UNL     1     -34.866  -5.083 -11.938  1.00  0.00     0.142 C 
ENDROOT
BRANCH   2   3
HETATM    3  C   UNL     1     -34.093  -3.854 -12.458  1.00  0.00     0.142 C 
HETATM    4  C   UNL     1     -32.938  -3.432 -11.559  1.00  0.00     0.042 C 
BRANCH   3   5
HETATM    5  O   UNL     1     -33.610  -4.115 -13.783  1.00  0.00    -0.393 OA
HETATM    6  H   UNL     1     -32.642  -4.030 -13.774  1.00  0.00     0.210 HD
ENDBRANCH   3   5
ENDBRANCH   2   3
BRANCH   2   7
HETATM    7  O   UNL     1     -35.047  -6.001 -13.019  1.00  0.00    -0.393 OA
HETATM    8  H   UNL     1     -36.010  -6.027 -13.189  1.00  0.00     0.210 HD
ENDBRANCH   2   7
TORSDOF 3
ENDMDL
MODEL 3
REMARK VINA RESULT:      -4.0     14.191     14.827
REMARK  3 active torsions:
REMARK  status: ('A' for Active; 'I' for Inactive)
REMARK    1  A    between atoms: C_2  and  C_3 
REMARK    2  A    between atoms: C_2  and  O_6 
REMARK    3  A    between atoms: C_3  and  O_5 
ROOT
HETATM    1  C   UNL     1     -23.722  -1.395 -14.845  1.00  0.00     0.042 C 
HETATM    2  C   UNL     1     -22.996  -2.675 -14.448  1.00  0.00     0.142 C 
ENDROOT
BRANCH   2   3
HETATM    3  C   UNL     1     -22.768  -2.828 -12.931  1.00  0.00     0.142 C 
HETATM    4  C   UNL     1     -24.034  -3.171 -12.154  1.00  0.00     0.042 C 
BRANCH   3   5
HETATM    5  O   UNL     1     -21.766  -3.827 -12.694  1.00  0.00    -0.393 OA
HETATM    6  H   UNL     1     -21.875  -4.529 -13.357  1.00  0.00     0.210 HD
ENDBRANCH   3   5
ENDBRANCH   2   3
BRANCH   2   7
HETATM    7  O   UNL     1     -23.791  -3.772 -14.905  1.00  0.00    -0.393 OA
HETATM    8  H   UNL     1     -24.628  -3.380 -15.228  1.00  0.00     0.210 HD
ENDBRANCH   2   7
TORSDOF 3
ENDMDL
MODEL 4
REMARK VINA RESULT:      -3.9     14.501     15.285
REMARK  3 active torsions:
REMARK  status: ('A' for Active; 'I' for Inactive)
REMARK    1  A    between atoms: C_2  and  C_3 
REMARK    2  A    between atoms: C_2  and  O_6 
REMARK    3  A    between atoms: C_3  and  O_5 
ROOT
HETATM    1  C   UNL     1     -23.758  -4.149  -8.848  1.00  0.00     0.042 C 
HETATM    2  C   UNL     1     -24.408  -3.153  -9.801  1.00  0.00     0.142 C 
ENDROOT
BRANCH   2   3
HETATM    3  C   UNL     1     -23.994  -3.326 -11.276  1.00  0.00     0.142 C 
HETATM    4  C   UNL     1     -23.451  -4.712 -11.601  1.00  0.00     0.042 C 
BRANCH   3   5
HETATM    5  O   UNL     1     -25.110  -3.028 -12.126  1.00  0.00    -0.393 OA
HETATM    6  H   UNL     1     -25.019  -2.112 -12.436  1.00  0.00     0.210 HD
ENDBRANCH   3   5
ENDBRANCH   2   3
BRANCH   2   7
HETATM    7  O   UNL     1     -25.824  -3.331  -9.699  1.00  0.00    -0.393 OA
HETATM    8  H   UNL     1     -26.212  -2.813 -10.432  1.00  0.00     0.210 HD
ENDBRANCH   2   7
TORSDOF 3
ENDMDL
MODEL 5
REMARK VINA RESULT:      -3.9     14.750     15.603
REMARK  3 active torsions:
REMARK  status: ('A' for Active; 'I' for Inactive)
REMARK    1  A    between atoms: C_2  and  C_3 
REMARK    2  A    between atoms: C_2  and  O_6 
REMARK    3  A    between atoms: C_3  and  O_5 
ROOT
HETATM    1  C   UNL     1     -22.735  -2.954 -11.626  1.00  0.00     0.042 C 
HETATM    2  C   UNL     1     -24.031  -3.746 -11.495  1.00  0.00     0.142 C 
ENDROOT
BRANCH   2   3
HETATM    3  C   UNL     1     -24.450  -4.039 -10.041  1.00  0.00     0.142 C 
HETATM    4  C   UNL     1     -23.344  -3.789  -9.023  1.00  0.00     0.042 C 
BRANCH   3   5
HETATM    5  O   UNL     1     -25.604  -3.256  -9.707  1.00  0.00    -0.393 OA
HETATM    6  H   UNL     1     -25.482  -2.364 -10.072  1.00  0.00     0.210 HD
ENDBRANCH   3   5
ENDBRANCH   2   3
BRANCH   2   7
HETATM    7  O   UNL     1     -25.061  -2.978 -12.123  1.00  0.00    -0.393 OA
HETATM    8  H   UNL     1     -24.741  -2.791 -13.029  1.00  0.00     0.210 HD
ENDBRANCH   2   7
TORSDOF 3
ENDMDL
MODEL 6
REMARK VINA RESULT:      -3.9      1.474      2.588
REMARK  3 active torsions:
REMARK  status: ('A' for Active; 'I' for Inactive)
REMARK    1  A    between atoms: C_2  and  C_3 
REMARK    2  A    between atoms: C_2  and  O_6 
REMARK    3  A    between atoms: C_3  and  O_5 
ROOT
HETATM    1  C   UNL     1     -29.572 -16.098 -20.510  1.00  0.00     0.042 C 
HETATM    2  C   UNL     1     -30.501 -15.077 -19.865  1.00  0.00     0.142 C 
ENDROOT
BRANCH   2   3
HETATM    3  C   UNL     1     -29.867 -14.293 -18.698  1.00  0.00     0.142 C 
HETATM    4  C   UNL     1     -28.765 -15.058 -17.974  1.00  0.00     0.042 C 
BRANCH   3   5
HETATM    5  O   UNL     1     -29.356 -13.043 -19.180  1.00  0.00    -0.393 OA
HETATM    6  H   UNL     1     -29.670 -12.919 -20.091  1.00  0.00     0.210 HD
ENDBRANCH   3   5
ENDBRANCH   2   3
BRANCH   2   7
HETATM    7  O   UNL     1     -30.884 -14.150 -20.884  1.00  0.00    -0.393 OA
HETATM    8  H   UNL     1     -31.162 -13.337 -20.415  1.00  0.00     0.210 HD
ENDBRANCH   2   7
TORSDOF 3
ENDMDL
MODEL 7
REMARK VINA RESULT:      -3.9      1.816      3.022
REMARK  3 active torsions:
REMARK  status: ('A' for Active; 'I' for Inactive)
REMARK    1  A    between atoms: C_2  and  C_3 
REMARK    2  A    between atoms: C_2  and  O_6 
REMARK    3  A    between atoms: C_3  and  O_5 
ROOT
HETATM    1  C   UNL     1     -31.138 -15.941 -22.876  1.00  0.00     0.042 C 
HETATM    2  C   UNL     1     -31.374 -14.885 -21.803  1.00  0.00     0.142 C 
ENDROOT
BRANCH   2   3
HETATM    3  C   UNL     1     -30.146 -14.597 -20.917  1.00  0.00     0.142 C 
HETATM    4  C   UNL     1     -29.585 -15.834 -20.228  1.00  0.00     0.042 C 
BRANCH   3   5
HETATM    5  O   UNL     1     -29.123 -13.971 -21.704  1.00  0.00    -0.393 OA
HETATM    6  H   UNL     1     -28.346 -13.832 -21.136  1.00  0.00     0.210 HD
ENDBRANCH   3   5
ENDBRANCH   2   3
BRANCH   2   7
HETATM    7  O   UNL     1     -31.750 -13.678 -22.472  1.00  0.00    -0.393 OA
HETATM    8  H   UNL     1     -30.920 -13.177 -22.607  1.00  0.00     0.210 HD
ENDBRANCH   2   7
TORSDOF 3
ENDMDL
MODEL 8
REMARK VINA RESULT:      -3.8     15.073     15.967
REMARK  3 active torsions:
REMARK  status: ('A' for Active; 'I' for Inactive)
REMARK    1  A    between atoms: C_2  and  C_3 
REMARK    2  A    between atoms: C_2  and  O_6 
REMARK    3  A    between atoms: C_3  and  O_5 
ROOT
HETATM    1  C   UNL     1     -21.874  -4.567  -9.033  1.00  0.00     0.042 C 
HETATM    2  C   UNL     1     -23.116  -3.693  -8.908  1.00  0.00     0.142 C 
ENDROOT
BRANCH   2   3
HETATM    3  C   UNL     1     -24.059  -3.754 -10.126  1.00  0.00     0.142 C 
HETATM    4  C   UNL     1     -23.669  -4.813 -11.149  1.00  0.00     0.042 C 
BRANCH   3   5
HETATM    5  O   UNL     1     -25.404  -3.978  -9.681  1.00  0.00    -0.393 OA
HETATM    6  H   UNL     1     -25.368  -4.396  -8.805  1.00  0.00     0.210 HD
ENDBRANCH   3   5
ENDBRANCH   2   3
BRANCH   2   7
HETATM    7  O   UNL     1     -23.831  -4.137  -7.752  1.00  0.00    -0.393 OA
HETATM    8  H   UNL     1     -24.689  -3.666  -7.771  1.00  0.00     0.210 HD
ENDBRANCH   2   7
TORSDOF 3
ENDMDL
MODEL 9
REMARK VINA RESULT:      -3.7     13.212     13.900
REMARK  3 active torsions:
REMARK  status: ('A' for Active; 'I' for Inactive)
REMARK    1  A    between atoms: C_2  and  C_3 
REMARK    2  A    between atoms: C_2  and  O_6 
REMARK    3  A    between atoms: C_3  and  O_5 
ROOT
HETATM    1  C   UNL     1     -33.152  -2.973 -11.262  1.00  0.00     0.042 C 
HETATM    2  C   UNL     1     -33.331  -4.312 -11.967  1.00  0.00     0.142 C 
ENDROOT
BRANCH   2   3
HETATM    3  C   UNL     1     -34.627  -5.057 -11.591  1.00  0.00     0.142 C 
HETATM    4  C   UNL     1     -34.447  -6.067 -10.464  1.00  0.00     0.042 C 
BRANCH   3   5
HETATM    5  O   UNL     1     -35.641  -4.108 -11.235  1.00  0.00    -0.393 OA
HETATM    6  H   UNL     1     -35.843  -3.571 -12.020  1.00  0.00     0.210 HD
ENDBRANCH   3   5
ENDBRANCH   2   3
BRANCH   2   7
HETATM    7  O   UNL     1     -33.345  -4.051 -13.374  1.00  0.00    -0.393 OA
HETATM    8  H   UNL     1     -33.637  -3.122 -13.470  1.00  0.00     0.210 HD
ENDBRANCH   2   7
TORSDOF 3
ENDMDL
