MODEL 1
REMARK VINA RESULT:      -6.4      0.000      0.000
REMARK  13 active torsions:
REMARK  status: ('A' for Active; 'I' for Inactive)
REMARK    1  A    between atoms: C_2  and  C_3 
REMARK    2  A    between atoms: C_3  and  C_4 
REMARK    3  A    between atoms: C_4  and  O_5 
REMARK    4  A    between atoms: O_5  and  C_6 
REMARK    5  A    between atoms: C_6  and  C_8 
REMARK    6  A    between atoms: C_8  and  C_9 
REMARK    7  A    between atoms: C_9  and  C_10 
REMARK    8  A    between atoms: C_10  and  C_11 
REMARK    9  A    between atoms: C_11  and  C_12 
REMARK   10  A    between atoms: C_12  and  O_14 
REMARK   11  A    between atoms: O_14  and  C_15 
REMARK   12  A    between atoms: C_15  and  C_16 
REMARK   13  A    between atoms: C_16  and  C_17 
ROOT
HETATM    1  C   UNL     1     -35.536  -1.375 -11.193  1.00  0.00     0.010 C 
ENDROOT
BRANCH   1   2
HETATM    2  C   UNL     1     -36.763  -1.301 -10.274  1.00  0.00     0.111 C 
BRANCH   2   3
HETATM    3  C   UNL     1     -37.680  -0.159 -10.684  1.00  0.00     0.258 C 
HETATM    4  O   UNL     1     -37.935   0.162 -11.831  1.00  0.00    -0.265 OA
BRANCH   3   5
HETATM    5  O   UNL     1     -38.075   0.532  -9.577  1.00  0.00    -0.321 OA
BRANCH   5   6
HETATM    6  C   UNL     1     -36.999   1.202  -8.901  1.00  0.00     0.178 C 
BRANCH   6   7
HETATM    7  C   UNL     1     -37.365   1.589  -7.474  1.00  0.00     0.026 C 
BRANCH   7   8
HETATM    8  C   UNL     1     -36.968   0.495  -6.478  1.00  0.00    -0.002 C 
HETATM    9  C   UNL     1     -37.293   0.895  -5.047  1.00  0.00     0.005 C 
ENDBRANCH   7   8
ENDBRANCH   6   7
ENDBRANCH   5   6
ENDBRANCH   3   5
ENDBRANCH   2   3
ENDBRANCH   1   2
BRANCH   1  10
HETATM   10  C   UNL     1     -34.368  -2.135 -10.562  1.00  0.00     0.010 C 
BRANCH  10  11
HETATM   11  C   UNL     1     -33.484  -2.832 -11.604  1.00  0.00     0.111 C 
BRANCH  11  12
HETATM   12  C   UNL     1     -34.319  -3.624 -12.589  1.00  0.00     0.258 C 
HETATM   13  O   UNL     1     -34.350  -3.432 -13.804  1.00  0.00    -0.265 OA
BRANCH  12  14
HETATM   14  O   UNL     1     -35.129  -4.500 -11.930  1.00  0.00    -0.321 OA
BRANCH  14  15
HETATM   15  C   UNL     1     -34.547  -5.802 -11.757  1.00  0.00     0.178 C 
BRANCH  15  16
HETATM   16  C   UNL     1     -34.257  -6.112 -10.295  1.00  0.00     0.026 C 
BRANCH  16  17
HETATM   17  C   UNL     1     -34.952  -7.402  -9.849  1.00  0.00    -0.002 C 
HETATM   18  C   UNL     1     -34.002  -8.589  -9.875  1.00  0.00     0.005 C 
ENDBRANCH  16  17
ENDBRANCH  15  16
ENDBRANCH  14  15
ENDBRANCH  12  14
ENDBRANCH  11  12
ENDBRANCH  10  11
ENDBRANCH   1  10
TORSDOF 13
ENDMDL
MODEL 2
REMARK VINA RESULT:      -6.2     12.793     15.144
REMARK  13 active torsions:
REMARK  status: ('A' for Active; 'I' for Inactive)
REMARK    1  A    between atoms: C_2  and  C_3 
REMARK    2  A    between atoms: C_3  and  C_4 
REMARK    3  A    between atoms: C_4  and  O_5 
REMARK    4  A    between atoms: O_5  and  C_6 
REMARK    5  A    between atoms: C_6  and  C_8 
REMARK    6  A    between atoms: C_8  and  C_9 
REMARK    7  A    between atoms: C_9  and  C_10 
REMARK    8  A    between atoms: C_10  and  C_11 
REMARK    9  A    between atoms: C_11  and  C_12 
REMARK   10  A    between atoms: C_12  and  O_14 
REMARK   11  A    between atoms: O_14  and  C_15 
REMARK   12  A    between atoms: C_15  and  C_16 
REMARK   13  A    between atoms: C_16  and  C_17 
ROOT
HETATM    1  C   UNL     1     -22.493  -4.688  -7.093  1.00  0.00     0.010 C 
ENDROOT
BRANCH   1   2
HETATM    2  C   UNL     1     -21.157  -5.407  -7.318  1.00  0.00     0.111 C 
BRANCH   2   3
HETATM    3  C   UNL     1     -20.798  -6.272  -6.120  1.00  0.00     0.258 C 
HETATM    4  O   UNL     1     -20.204  -7.334  -6.171  1.00  0.00    -0.265 OA
BRANCH   3   5
HETATM    5  O   UNL     1     -21.350  -5.744  -4.990  1.00  0.00    -0.321 OA
BRANCH   5   6
HETATM    6  C   UNL     1     -21.424  -6.672  -3.896  1.00  0.00     0.178 C 
BRANCH   6   7
HETATM    7  C   UNL     1     -21.829  -5.996  -2.592  1.00  0.00     0.026 C 
BRANCH   7   8
HETATM    8  C   UNL     1     -21.967  -7.013  -1.455  1.00  0.00    -0.002 C 
HETATM    9  C   UNL     1     -21.274  -8.325  -1.789  1.00  0.00     0.005 C 
ENDBRANCH   7   8
ENDBRANCH   6   7
ENDBRANCH   5   6
ENDBRANCH   3   5
ENDBRANCH   2   3
ENDBRANCH   1   2
BRANCH   1  10
HETATM   10  C   UNL     1     -22.872  -3.765  -8.253  1.00  0.00     0.010 C 
BRANCH  10  11
HETATM   11  C   UNL     1     -23.828  -4.432  -9.252  1.00  0.00     0.111 C 
BRANCH  11  12
HETATM   12  C   UNL     1     -24.671  -3.402  -9.974  1.00  0.00     0.258 C 
HETATM   13  O   UNL     1     -25.837  -3.125  -9.697  1.00  0.00    -0.265 OA
BRANCH  12  14
HETATM   14  O   UNL     1     -24.002  -2.912 -11.054  1.00  0.00    -0.321 OA
BRANCH  14  15
HETATM   15  C   UNL     1     -23.410  -3.930 -11.876  1.00  0.00     0.178 C 
BRANCH  15  16
HETATM   16  C   UNL     1     -22.068  -3.499 -12.450  1.00  0.00     0.026 C 
BRANCH  16  17
HETATM   17  C   UNL     1     -21.065  -3.168 -11.340  1.00  0.00    -0.002 C 
HETATM   18  C   UNL     1     -20.335  -4.411 -10.855  1.00  0.00     0.005 C 
ENDBRANCH  16  17
ENDBRANCH  15  16
ENDBRANCH  14  15
ENDBRANCH  12  14
ENDBRANCH  11  12
ENDBRANCH  10  11
ENDBRANCH   1  10
TORSDOF 13
ENDMDL
MODEL 3
REMARK VINA RESULT:      -6.0     13.854     16.023
REMARK  13 active torsions:
REMARK  status: ('A' for Active; 'I' for Inactive)
REMARK    1  A    between atoms: C_2  and  C_3 
REMARK    2  A    between atoms: C_3  and  C_4 
REMARK    3  A    between atoms: C_4  and  O_5 
REMARK    4  A    between atoms: O_5  and  C_6 
REMARK    5  A    between atoms: C_6  and  C_8 
REMARK    6  A    between atoms: C_8  and  C_9 
REMARK    7  A    between atoms: C_9  and  C_10 
REMARK    8  A    between atoms: C_10  and  C_11 
REMARK    9  A    between atoms: C_11  and  C_12 
REMARK   10  A    between atoms: C_12  and  O_14 
REMARK   11  A    between atoms: O_14  and  C_15 
REMARK   12  A    between atoms: C_15  and  C_16 
REMARK   13  A    between atoms: C_16  and  C_17 
ROOT
HETATM    1  C   UNL     1     -19.969  -4.501  -7.135  1.00  0.00     0.010 C 
ENDROOT
BRANCH   1   2
HETATM    2  C   UNL     1     -20.821  -5.342  -8.093  1.00  0.00     0.111 C 
BRANCH   2   3
HETATM    3  C   UNL     1     -22.122  -4.630  -8.430  1.00  0.00     0.258 C 
HETATM    4  O   UNL     1     -22.928  -4.215  -7.618  1.00  0.00    -0.265 OA
BRANCH   3   5
HETATM    5  O   UNL     1     -22.313  -4.639  -9.781  1.00  0.00    -0.321 OA
BRANCH   5   6
HETATM    6  C   UNL     1     -21.448  -3.738 -10.490  1.00  0.00     0.178 C 
BRANCH   6   7
HETATM    7  C   UNL     1     -21.693  -3.765 -11.993  1.00  0.00     0.026 C 
BRANCH   7   8
HETATM    8  C   UNL     1     -22.810  -2.796 -12.395  1.00  0.00    -0.002 C 
HETATM    9  C   UNL     1     -23.054  -2.813 -13.896  1.00  0.00     0.005 C 
ENDBRANCH   7   8
ENDBRANCH   6   7
ENDBRANCH   5   6
ENDBRANCH   3   5
ENDBRANCH   2   3
ENDBRANCH   1   2
BRANCH   1  10
HETATM   10  C   UNL     1     -20.233  -4.827  -5.664  1.00  0.00     0.010 C 
BRANCH  10  11
HETATM   11  C   UNL     1     -20.498  -6.321  -5.428  1.00  0.00     0.111 C 
BRANCH  11  12
HETATM   12  C   UNL     1     -21.777  -6.533  -4.646  1.00  0.00     0.258 C 
HETATM   13  O   UNL     1     -22.901  -6.210  -5.029  1.00  0.00    -0.265 OA
BRANCH  12  14
HETATM   14  O   UNL     1     -21.501  -7.020  -3.404  1.00  0.00    -0.321 OA
BRANCH  14  15
HETATM   15  C   UNL     1     -21.760  -6.082  -2.348  1.00  0.00     0.178 C 
BRANCH  15  16
HETATM   16  C   UNL     1     -22.370  -6.749  -1.123  1.00  0.00     0.026 C 
BRANCH  16  17
HETATM   17  C   UNL     1     -21.501  -7.908  -0.626  1.00  0.00    -0.002 C 
HETATM   18  C   UNL     1     -21.759  -8.213   0.842  1.00  0.00     0.005 C 
ENDBRANCH  16  17
ENDBRANCH  15  16
ENDBRANCH  14  15
ENDBRANCH  12  14
ENDBRANCH  11  12
ENDBRANCH  10  11
ENDBRANCH   1  10
TORSDOF 13
ENDMDL
MODEL 4
REMARK VINA RESULT:      -6.0      2.194      6.982
REMARK  13 active torsions:
REMARK  status: ('A' for Active; 'I' for Inactive)
REMARK    1  A    between atoms: C_2  and  C_3 
REMARK    2  A    between atoms: C_3  and  C_4 
REMARK    3  A    between atoms: C_4  and  O_5 
REMARK    4  A    between atoms: O_5  and  C_6 
REMARK    5  A    between atoms: C_6  and  C_8 
REMARK    6  A    between atoms: C_8  and  C_9 
REMARK    7  A    between atoms: C_9  and  C_10 
REMARK    8  A    between atoms: C_10  and  C_11 
REMARK    9  A    between atoms: C_11  and  C_12 
REMARK   10  A    between atoms: C_12  and  O_14 
REMARK   11  A    between atoms: O_14  and  C_15 
REMARK   12  A    between atoms: C_15  and  C_16 
REMARK   13  A    between atoms: C_16  and  C_17 
ROOT
HETATM    1  C   UNL     1     -34.093  -2.553 -10.380  1.00  0.00     0.010 C 
ENDROOT
BRANCH   1   2
HETATM    2  C   UNL     1     -33.205  -3.172 -11.468  1.00  0.00     0.111 C 
BRANCH   2   3
HETATM    3  C   UNL     1     -34.048  -3.818 -12.556  1.00  0.00     0.258 C 
HETATM    4  O   UNL     1     -34.336  -3.304 -13.622  1.00  0.00    -0.265 OA
BRANCH   3   5
HETATM    5  O   UNL     1     -34.539  -5.009 -12.108  1.00  0.00    -0.321 OA
BRANCH   5   6
HETATM    6  C   UNL     1     -33.648  -5.703 -11.220  1.00  0.00     0.178 C 
BRANCH   6   7
HETATM    7  C   UNL     1     -34.381  -6.335 -10.045  1.00  0.00     0.026 C 
BRANCH   7   8
HETATM    8  C   UNL     1     -34.845  -7.757 -10.375  1.00  0.00    -0.002 C 
HETATM    9  C   UNL     1     -33.923  -8.804  -9.769  1.00  0.00     0.005 C 
ENDBRANCH   7   8
ENDBRANCH   6   7
ENDBRANCH   5   6
ENDBRANCH   3   5
ENDBRANCH   2   3
ENDBRANCH   1   2
BRANCH   1  10
HETATM   10  C   UNL     1     -35.560  -2.453 -10.800  1.00  0.00     0.010 C 
BRANCH  10  11
HETATM   11  C   UNL     1     -36.221  -1.148 -10.335  1.00  0.00     0.111 C 
BRANCH  11  12
HETATM   12  C   UNL     1     -36.777  -0.367 -11.507  1.00  0.00     0.258 C 
HETATM   13  O   UNL     1     -37.837   0.258 -11.500  1.00  0.00    -0.265 OA
BRANCH  12  14
HETATM   14  O   UNL     1     -36.004  -0.554 -12.613  1.00  0.00    -0.321 OA
BRANCH  14  15
HETATM   15  C   UNL     1     -35.066   0.508 -12.846  1.00  0.00     0.178 C 
BRANCH  15  16
HETATM   16  C   UNL     1     -35.098   0.999 -14.286  1.00  0.00     0.026 C 
BRANCH  16  17
HETATM   17  C   UNL     1     -35.495  -0.122 -15.251  1.00  0.00    -0.002 C 
HETATM   18  C   UNL     1     -36.874   0.113 -15.848  1.00  0.00     0.005 C 
ENDBRANCH  16  17
ENDBRANCH  15  16
ENDBRANCH  14  15
ENDBRANCH  12  14
ENDBRANCH  11  12
ENDBRANCH  10  11
ENDBRANCH   1  10
TORSDOF 13
ENDMDL
MODEL 5
REMARK VINA RESULT:      -5.8     15.564     17.524
REMARK  13 active torsions:
REMARK  status: ('A' for Active; 'I' for Inactive)
REMARK    1  A    between atoms: C_2  and  C_3 
REMARK    2  A    between atoms: C_3  and  C_4 
REMARK    3  A    between atoms: C_4  and  O_5 
REMARK    4  A    between atoms: O_5  and  C_6 
REMARK    5  A    between atoms: C_6  and  C_8 
REMARK    6  A    between atoms: C_8  and  C_9 
REMARK    7  A    between atoms: C_9  and  C_10 
REMARK    8  A    between atoms: C_10  and  C_11 
REMARK    9  A    between atoms: C_11  and  C_12 
REMARK   10  A    between atoms: C_12  and  O_14 
REMARK   11  A    between atoms: O_14  and  C_15 
REMARK   12  A    between atoms: C_15  and  C_16 
REMARK   13  A    between atoms: C_16  and  C_17 
ROOT
HETATM    1  C   UNL     1     -21.980  -6.487  -4.154  1.00  0.00     0.010 C 
ENDROOT
BRANCH   1   2
HETATM    2  C   UNL     1     -20.989  -5.749  -5.064  1.00  0.00     0.111 C 
BRANCH   2   3
HETATM    3  C   UNL     1     -20.394  -6.693  -6.097  1.00  0.00     0.258 C 
HETATM    4  O   UNL     1     -19.759  -7.701  -5.847  1.00  0.00    -0.265 OA
BRANCH   3   5
HETATM    5  O   UNL     1     -20.569  -6.173  -7.346  1.00  0.00    -0.321 OA
BRANCH   5   6
HETATM    6  C   UNL     1     -19.639  -5.127  -7.671  1.00  0.00     0.178 C 
BRANCH   6   7
HETATM    7  C   UNL     1     -20.317  -3.939  -8.340  1.00  0.00     0.026 C 
BRANCH   7   8
HETATM    8  C   UNL     1     -21.210  -4.386  -9.502  1.00  0.00    -0.002 C 
HETATM    9  C   UNL     1     -20.551  -4.125 -10.848  1.00  0.00     0.005 C 
ENDBRANCH   7   8
ENDBRANCH   6   7
ENDBRANCH   5   6
ENDBRANCH   3   5
ENDBRANCH   2   3
ENDBRANCH   1   2
BRANCH   1  10
HETATM   10  C   UNL     1     -21.378  -6.854  -2.797  1.00  0.00     0.010 C 
BRANCH  10  11
HETATM   11  C   UNL     1     -22.185  -6.289  -1.620  1.00  0.00     0.111 C 
BRANCH  11  12
HETATM   12  C   UNL     1     -22.422  -7.345  -0.561  1.00  0.00     0.258 C 
HETATM   13  O   UNL     1     -23.376  -7.365   0.216  1.00  0.00    -0.265 OA
BRANCH  12  14
HETATM   14  O   UNL     1     -21.369  -8.207  -0.503  1.00  0.00    -0.321 OA
BRANCH  14  15
HETATM   15  C   UNL     1     -21.371  -9.041   0.667  1.00  0.00     0.178 C 
BRANCH  15  16
HETATM   16  C   UNL     1     -21.477 -10.519   0.319  1.00  0.00     0.026 C 
BRANCH  16  17
HETATM   17  C   UNL     1     -22.540 -10.765  -0.757  1.00  0.00    -0.002 C 
HETATM   18  C   UNL     1     -23.930 -10.890  -0.153  1.00  0.00     0.005 C 
ENDBRANCH  16  17
ENDBRANCH  15  16
ENDBRANCH  14  15
ENDBRANCH  12  14
ENDBRANCH  11  12
ENDBRANCH  10  11
ENDBRANCH   1  10
TORSDOF 13
ENDMDL
MODEL 6
REMARK VINA RESULT:      -5.7     14.297     16.638
REMARK  13 active torsions:
REMARK  status: ('A' for Active; 'I' for Inactive)
REMARK    1  A    between atoms: C_2  and  C_3 
REMARK    2  A    between atoms: C_3  and  C_4 
REMARK    3  A    between atoms: C_4  and  O_5 
REMARK    4  A    between atoms: O_5  and  C_6 
REMARK    5  A    between atoms: C_6  and  C_8 
REMARK    6  A    between atoms: C_8  and  C_9 
REMARK    7  A    between atoms: C_9  and  C_10 
REMARK    8  A    between atoms: C_10  and  C_11 
REMARK    9  A    between atoms: C_11  and  C_12 
REMARK   10  A    between atoms: C_12  and  O_14 
REMARK   11  A    between atoms: O_14  and  C_15 
REMARK   12  A    between atoms: C_15  and  C_16 
REMARK   13  A    between atoms: C_16  and  C_17 
ROOT
HETATM    1  C   UNL     1     -20.415  -6.526  -6.514  1.00  0.00     0.010 C 
ENDROOT
BRANCH   1   2
HETATM    2  C   UNL     1     -20.171  -5.029  -6.285  1.00  0.00     0.111 C 
BRANCH   2   3
HETATM    3  C   UNL     1     -21.022  -4.190  -7.225  1.00  0.00     0.258 C 
HETATM    4  O   UNL     1     -21.452  -3.077  -6.981  1.00  0.00    -0.265 OA
BRANCH   3   5
HETATM    5  O   UNL     1     -21.337  -4.920  -8.333  1.00  0.00    -0.321 OA
BRANCH   5   6
HETATM    6  C   UNL     1     -21.898  -4.137  -9.399  1.00  0.00     0.178 C 
BRANCH   6   7
HETATM    7  C   UNL     1     -20.950  -4.011 -10.584  1.00  0.00     0.026 C 
BRANCH   7   8
HETATM    8  C   UNL     1     -21.555  -3.148 -11.695  1.00  0.00    -0.002 C 
HETATM    9  C   UNL     1     -23.067  -3.047 -11.567  1.00  0.00     0.005 C 
ENDBRANCH   7   8
ENDBRANCH   6   7
ENDBRANCH   5   6
ENDBRANCH   3   5
ENDBRANCH   2   3
ENDBRANCH   1   2
BRANCH   1  10
HETATM   10  C   UNL     1     -20.796  -7.268  -5.232  1.00  0.00     0.010 C 
BRANCH  10  11
HETATM   11  C   UNL     1     -21.978  -6.616  -4.501  1.00  0.00     0.111 C 
BRANCH  11  12
HETATM   12  C   UNL     1     -21.821  -6.729  -2.998  1.00  0.00     0.258 C 
HETATM   13  O   UNL     1     -22.194  -5.886  -2.184  1.00  0.00    -0.265 OA
BRANCH  12  14
HETATM   14  O   UNL     1     -21.098  -7.838  -2.677  1.00  0.00    -0.321 OA
BRANCH  14  15
HETATM   15  C   UNL     1     -20.566  -7.812  -1.343  1.00  0.00     0.178 C 
BRANCH  15  16
HETATM   16  C   UNL     1     -21.140  -8.921  -0.473  1.00  0.00     0.026 C 
BRANCH  16  17
HETATM   17  C   UNL     1     -21.801  -8.357   0.789  1.00  0.00    -0.002 C 
HETATM   18  C   UNL     1     -23.275  -8.057   0.563  1.00  0.00     0.005 C 
ENDBRANCH  16  17
ENDBRANCH  15  16
ENDBRANCH  14  15
ENDBRANCH  12  14
ENDBRANCH  11  12
ENDBRANCH  10  11
ENDBRANCH   1  10
TORSDOF 13
ENDMDL
MODEL 7
REMARK VINA RESULT:      -5.7     14.141     16.484
REMARK  13 active torsions:
REMARK  status: ('A' for Active; 'I' for Inactive)
REMARK    1  A    between atoms: C_2  and  C_3 
REMARK    2  A    between atoms: C_3  and  C_4 
REMARK    3  A    between atoms: C_4  and  O_5 
REMARK    4  A    between atoms: O_5  and  C_6 
REMARK    5  A    between atoms: C_6  and  C_8 
REMARK    6  A    between atoms: C_8  and  C_9 
REMARK    7  A    between atoms: C_9  and  C_10 
REMARK    8  A    between atoms: C_10  and  C_11 
REMARK    9  A    between atoms: C_11  and  C_12 
REMARK   10  A    between atoms: C_12  and  O_14 
REMARK   11  A    between atoms: O_14  and  C_15 
REMARK   12  A    between atoms: C_15  and  C_16 
REMARK   13  A    between atoms: C_16  and  C_17 
ROOT
HETATM    1  C   UNL     1     -20.772  -7.125  -5.399  1.00  0.00     0.010 C 
ENDROOT
BRANCH   1   2
HETATM    2  C   UNL     1     -21.865  -6.324  -4.681  1.00  0.00     0.111 C 
BRANCH   2   3
HETATM    3  C   UNL     1     -21.809  -6.555  -3.178  1.00  0.00     0.258 C 
HETATM    4  O   UNL     1     -22.449  -5.937  -2.346  1.00  0.00    -0.265 OA
BRANCH   3   5
HETATM    5  O   UNL     1     -20.843  -7.473  -2.891  1.00  0.00    -0.321 OA
BRANCH   5   6
HETATM    6  C   UNL     1     -21.355  -8.700  -2.346  1.00  0.00     0.178 C 
BRANCH   6   7
HETATM    7  C   UNL     1     -21.260  -8.741  -0.827  1.00  0.00     0.026 C 
BRANCH   7   8
HETATM    8  C   UNL     1     -22.598  -9.134  -0.193  1.00  0.00    -0.002 C 
HETATM    9  C   UNL     1     -23.167  -8.010   0.659  1.00  0.00     0.005 C 
ENDBRANCH   7   8
ENDBRANCH   6   7
ENDBRANCH   5   6
ENDBRANCH   3   5
ENDBRANCH   2   3
ENDBRANCH   1   2
BRANCH   1  10
HETATM   10  C   UNL     1     -19.969  -6.277  -6.387  1.00  0.00     0.010 C 
BRANCH  10  11
HETATM   11  C   UNL     1     -20.099  -4.771  -6.117  1.00  0.00     0.111 C 
BRANCH  11  12
HETATM   12  C   UNL     1     -20.406  -4.011  -7.391  1.00  0.00     0.258 C 
HETATM   13  O   UNL     1     -19.576  -3.697  -8.243  1.00  0.00    -0.265 OA
BRANCH  12  14
HETATM   14  O   UNL     1     -21.709  -3.613  -7.406  1.00  0.00    -0.321 OA
BRANCH  14  15
HETATM   15  C   UNL     1     -22.539  -4.392  -8.281  1.00  0.00     0.178 C 
BRANCH  15  16
HETATM   16  C   UNL     1     -23.053  -3.578  -9.461  1.00  0.00     0.026 C 
BRANCH  16  17
HETATM   17  C   UNL     1     -22.134  -3.715 -10.678  1.00  0.00    -0.002 C 
HETATM   18  C   UNL     1     -22.674  -2.950 -11.877  1.00  0.00     0.005 C 
ENDBRANCH  16  17
ENDBRANCH  15  16
ENDBRANCH  14  15
ENDBRANCH  12  14
ENDBRANCH  11  12
ENDBRANCH  10  11
ENDBRANCH   1  10
TORSDOF 13
ENDMDL
MODEL 8
REMARK VINA RESULT:      -5.7     14.199     16.703
REMARK  13 active torsions:
REMARK  status: ('A' for Active; 'I' for Inactive)
REMARK    1  A    between atoms: C_2  and  C_3 
REMARK    2  A    between atoms: C_3  and  C_4 
REMARK    3  A    between atoms: C_4  and  O_5 
REMARK    4  A    between atoms: O_5  and  C_6 
REMARK    5  A    between atoms: C_6  and  C_8 
REMARK    6  A    between atoms: C_8  and  C_9 
REMARK    7  A    between atoms: C_9  and  C_10 
REMARK    8  A    between atoms: C_10  and  C_11 
REMARK    9  A    between atoms: C_11  and  C_12 
REMARK   10  A    between atoms: C_12  and  O_14 
REMARK   11  A    between atoms: O_14  and  C_15 
REMARK   12  A    between atoms: C_15  and  C_16 
REMARK   13  A    between atoms: C_16  and  C_17 
ROOT
HETATM    1  C   UNL     1     -21.347  -8.112  -3.673  1.00  0.00     0.010 C 
ENDROOT
BRANCH   1   2
HETATM    2  C   UNL     1     -20.926  -7.554  -2.307  1.00  0.00     0.111 C 
BRANCH   2   3
HETATM    3  C   UNL     1     -22.058  -6.761  -1.673  1.00  0.00     0.258 C 
HETATM    4  O   UNL     1     -22.705  -5.891  -2.227  1.00  0.00    -0.265 OA
BRANCH   3   5
HETATM    5  O   UNL     1     -22.157  -7.081  -0.351  1.00  0.00    -0.321 OA
BRANCH   5   6
HETATM    6  C   UNL     1     -21.945  -8.476  -0.078  1.00  0.00     0.178 C 
BRANCH   6   7
HETATM    7  C   UNL     1     -23.253  -9.246   0.045  1.00  0.00     0.026 C 
BRANCH   7   8
HETATM    8  C   UNL     1     -23.037 -10.749  -0.157  1.00  0.00    -0.002 C 
HETATM    9  C   UNL     1     -24.072 -11.342  -1.101  1.00  0.00     0.005 C 
ENDBRANCH   7   8
ENDBRANCH   6   7
ENDBRANCH   5   6
ENDBRANCH   3   5
ENDBRANCH   2   3
ENDBRANCH   1   2
BRANCH   1  10
HETATM   10  C   UNL     1     -20.512  -7.551  -4.825  1.00  0.00     0.010 C 
BRANCH  10  11
HETATM   11  C   UNL     1     -20.780  -6.061  -5.078  1.00  0.00     0.111 C 
BRANCH  11  12
HETATM   12  C   UNL     1     -20.464  -5.683  -6.511  1.00  0.00     0.258 C 
HETATM   13  O   UNL     1     -19.768  -6.346  -7.279  1.00  0.00    -0.265 OA
BRANCH  12  14
HETATM   14  O   UNL     1     -20.956  -4.445  -6.796  1.00  0.00    -0.321 OA
BRANCH  14  15
HETATM   15  C   UNL     1     -22.292  -4.464  -7.324  1.00  0.00     0.178 C 
BRANCH  15  16
HETATM   16  C   UNL     1     -22.383  -3.784  -8.683  1.00  0.00     0.026 C 
BRANCH  16  17
HETATM   17  C   UNL     1     -23.547  -4.338  -9.510  1.00  0.00    -0.002 C 
HETATM   18  C   UNL     1     -24.682  -3.333  -9.625  1.00  0.00     0.005 C 
ENDBRANCH  16  17
ENDBRANCH  15  16
ENDBRANCH  14  15
ENDBRANCH  12  14
ENDBRANCH  11  12
ENDBRANCH  10  11
ENDBRANCH   1  10
TORSDOF 13
ENDMDL
MODEL 9
REMARK VINA RESULT:      -5.6     15.184     17.518
REMARK  13 active torsions:
REMARK  status: ('A' for Active; 'I' for Inactive)
REMARK    1  A    between atoms: C_2  and  C_3 
REMARK    2  A    between atoms: C_3  and  C_4 
REMARK    3  A    between atoms: C_4  and  O_5 
REMARK    4  A    between atoms: O_5  and  C_6 
REMARK    5  A    between atoms: C_6  and  C_8 
REMARK    6  A    between atoms: C_8  and  C_9 
REMARK    7  A    between atoms: C_9  and  C_10 
REMARK    8  A    between atoms: C_10  and  C_11 
REMARK    9  A    between atoms: C_11  and  C_12 
REMARK   10  A    between atoms: C_12  and  O_14 
REMARK   11  A    between atoms: O_14  and  C_15 
REMARK   12  A    between atoms: C_15  and  C_16 
REMARK   13  A    between atoms: C_16  and  C_17 
ROOT
HETATM    1  C   UNL     1     -21.630  -6.819  -2.687  1.00  0.00     0.010 C 
ENDROOT
BRANCH   1   2
HETATM    2  C   UNL     1     -20.541  -7.827  -2.296  1.00  0.00     0.111 C 
BRANCH   2   3
HETATM    3  C   UNL     1     -21.061  -9.253  -2.392  1.00  0.00     0.258 C 
HETATM    4  O   UNL     1     -21.893  -9.647  -3.190  1.00  0.00    -0.265 OA
BRANCH   3   5
HETATM    5  O   UNL     1     -20.550  -9.997  -1.370  1.00  0.00    -0.321 OA
BRANCH   5   6
HETATM    6  C   UNL     1     -21.484 -10.228  -0.303  1.00  0.00     0.178 C 
BRANCH   6   7
HETATM    7  C   UNL     1     -21.076  -9.525   0.985  1.00  0.00     0.026 C 
BRANCH   7   8
HETATM    8  C   UNL     1     -21.763  -8.163   1.120  1.00  0.00    -0.002 C 
HETATM    9  C   UNL     1     -23.158  -8.176   0.515  1.00  0.00     0.005 C 
ENDBRANCH   7   8
ENDBRANCH   6   7
ENDBRANCH   5   6
ENDBRANCH   3   5
ENDBRANCH   2   3
ENDBRANCH   1   2
BRANCH   1  10
HETATM   10  C   UNL     1     -21.247  -5.974  -3.903  1.00  0.00     0.010 C 
BRANCH  10  11
HETATM   11  C   UNL     1     -21.917  -6.461  -5.196  1.00  0.00     0.111 C 
BRANCH  11  12
HETATM   12  C   UNL     1     -20.887  -6.786  -6.258  1.00  0.00     0.258 C 
HETATM   13  O   UNL     1     -19.832  -7.385  -6.057  1.00  0.00    -0.265 OA
BRANCH  12  14
HETATM   14  O   UNL     1     -21.232  -6.215  -7.445  1.00  0.00    -0.321 OA
BRANCH  14  15
HETATM   15  C   UNL     1     -21.833  -4.918  -7.307  1.00  0.00     0.178 C 
BRANCH  15  16
HETATM   16  C   UNL     1     -21.464  -3.987  -8.454  1.00  0.00     0.026 C 
BRANCH  16  17
HETATM   17  C   UNL     1     -20.223  -4.485  -9.201  1.00  0.00    -0.002 C 
HETATM   18  C   UNL     1     -20.406  -4.405 -10.709  1.00  0.00     0.005 C 
ENDBRANCH  16  17
ENDBRANCH  15  16
ENDBRANCH  14  15
ENDBRANCH  12  14
ENDBRANCH  11  12
ENDBRANCH  10  11
ENDBRANCH   1  10
TORSDOF 13
ENDMDL
