MODEL 1
REMARK VINA RESULT:      -5.4      0.000      0.000
REMARK  7 active torsions:
REMARK  status: ('A' for Active; 'I' for Inactive)
REMARK    1  A    between atoms: C_2  and  C_3 
REMARK    2  A    between atoms: C_3  and  C_4 
REMARK    3  A    between atoms: C_4  and  C_5 
REMARK    4  A    between atoms: C_5  and  C_6 
REMARK    5  A    between atoms: C_6  and  C_7 
REMARK    6  A    between atoms: C_7  and  C_8 
REMARK    7  A    between atoms: C_8  and  O_10 
ROOT
HETATM    1  C   UNL     1     -24.337  -3.150 -12.439  1.00  0.00     0.010 C 
ENDROOT
BRANCH   1   2
HETATM    2  C   UNL     1     -24.213  -3.366 -10.931  1.00  0.00     0.001 C 
BRANCH   2   3
HETATM    3  C   UNL     1     -23.086  -4.350 -10.615  1.00  0.00     0.000 C 
BRANCH   3   4
HETATM    4  C   UNL     1     -22.404  -4.017  -9.289  1.00  0.00    -0.000 C 
BRANCH   4   5
HETATM    5  C   UNL     1     -20.887  -4.185  -9.390  1.00  0.00    -0.005 C 
HETATM    6  C   UNL     1     -20.437  -4.298 -10.837  1.00  0.00     0.005 C 
ENDBRANCH   4   5
ENDBRANCH   3   4
ENDBRANCH   2   3
ENDBRANCH   1   2
BRANCH   1   7
HETATM    7  C   UNL     1     -22.982  -2.887 -13.093  1.00  0.00     0.110 C 
BRANCH   7   8
HETATM    8  C   UNL     1     -23.131  -2.562 -14.562  1.00  0.00     0.139 C 
HETATM    9  O   UNL     1     -23.940  -1.781 -15.036  1.00  0.00    -0.650 OA
BRANCH   8  10
HETATM   10  O   UNL     1     -22.251  -3.244 -15.332  1.00  0.00    -0.776 OA
HETATM   11  H   UNL     1     -21.317  -3.068 -15.110  1.00  0.00     0.167 HD
ENDBRANCH   8  10
ENDBRANCH   7   8
ENDBRANCH   1   7
TORSDOF 7
ENDMDL
MODEL 2
REMARK VINA RESULT:      -5.3      1.076      2.179
REMARK  7 active torsions:
REMARK  status: ('A' for Active; 'I' for Inactive)
REMARK    1  A    between atoms: C_2  and  C_3 
REMARK    2  A    between atoms: C_3  and  C_4 
REMARK    3  A    between atoms: C_4  and  C_5 
REMARK    4  A    between atoms: C_5  and  C_6 
REMARK    5  A    between atoms: C_6  and  C_7 
REMARK    6  A    between atoms: C_7  and  C_8 
REMARK    7  A    between atoms: C_8  and  O_10 
ROOT
HETATM    1  C   UNL     1     -22.440  -2.691 -12.092  1.00  0.00     0.010 C 
ENDROOT
BRANCH   1   2
HETATM    2  C   UNL     1     -21.983  -4.058 -11.585  1.00  0.00     0.001 C 
BRANCH   2   3
HETATM    3  C   UNL     1     -20.539  -3.997 -11.088  1.00  0.00     0.000 C 
BRANCH   3   4
HETATM    4  C   UNL     1     -20.432  -4.403  -9.618  1.00  0.00    -0.000 C 
BRANCH   4   5
HETATM    5  C   UNL     1     -21.794  -4.344  -8.927  1.00  0.00    -0.005 C 
HETATM    6  C   UNL     1     -21.687  -3.730  -7.541  1.00  0.00     0.005 C 
ENDBRANCH   4   5
ENDBRANCH   3   4
ENDBRANCH   2   3
ENDBRANCH   1   2
BRANCH   1   7
HETATM    7  C   UNL     1     -23.724  -2.784 -12.914  1.00  0.00     0.110 C 
BRANCH   7   8
HETATM    8  C   UNL     1     -23.559  -2.140 -14.272  1.00  0.00     0.139 C 
HETATM    9  O   UNL     1     -22.851  -2.559 -15.173  1.00  0.00    -0.650 OA
BRANCH   8  10
HETATM   10  O   UNL     1     -24.297  -1.012 -14.399  1.00  0.00    -0.776 OA
HETATM   11  H   UNL     1     -25.256  -1.159 -14.306  1.00  0.00     0.167 HD
ENDBRANCH   8  10
ENDBRANCH   7   8
ENDBRANCH   1   7
TORSDOF 7
ENDMDL
MODEL 3
REMARK VINA RESULT:      -5.3      3.005      3.978
REMARK  7 active torsions:
REMARK  status: ('A' for Active; 'I' for Inactive)
REMARK    1  A    between atoms: C_2  and  C_3 
REMARK    2  A    between atoms: C_3  and  C_4 
REMARK    3  A    between atoms: C_4  and  C_5 
REMARK    4  A    between atoms: C_5  and  C_6 
REMARK    5  A    between atoms: C_6  and  C_7 
REMARK    6  A    between atoms: C_7  and  C_8 
REMARK    7  A    between atoms: C_8  and  O_10 
ROOT
HETATM    1  C   UNL     1     -22.838  -4.289 -11.594  1.00  0.00     0.010 C 
ENDROOT
BRANCH   1   2
HETATM    2  C   UNL     1     -21.657  -3.473 -11.069  1.00  0.00     0.001 C 
BRANCH   2   3
HETATM    3  C   UNL     1     -20.558  -4.392 -10.537  1.00  0.00     0.000 C 
BRANCH   3   4
HETATM    4  C   UNL     1     -20.184  -4.047  -9.096  1.00  0.00    -0.000 C 
BRANCH   4   5
HETATM    5  C   UNL     1     -20.807  -5.037  -8.111  1.00  0.00    -0.005 C 
HETATM    6  C   UNL     1     -20.895  -4.446  -6.713  1.00  0.00     0.005 C 
ENDBRANCH   4   5
ENDBRANCH   3   4
ENDBRANCH   2   3
ENDBRANCH   1   2
BRANCH   1   7
HETATM    7  C   UNL     1     -23.659  -4.902 -10.462  1.00  0.00     0.110 C 
BRANCH   7   8
HETATM    8  C   UNL     1     -24.474  -3.854  -9.739  1.00  0.00     0.139 C 
HETATM    9  O   UNL     1     -25.349  -3.167 -10.240  1.00  0.00    -0.650 OA
BRANCH   8  10
HETATM   10  O   UNL     1     -24.129  -3.743  -8.435  1.00  0.00    -0.776 OA
HETATM   11  H   UNL     1     -23.418  -3.095  -8.271  1.00  0.00     0.167 HD
ENDBRANCH   8  10
ENDBRANCH   7   8
ENDBRANCH   1   7
TORSDOF 7
ENDMDL
MODEL 4
REMARK VINA RESULT:      -5.2     11.313     12.281
REMARK  7 active torsions:
REMARK  status: ('A' for Active; 'I' for Inactive)
REMARK    1  A    between atoms: C_2  and  C_3 
REMARK    2  A    between atoms: C_3  and  C_4 
REMARK    3  A    between atoms: C_4  and  C_5 
REMARK    4  A    between atoms: C_5  and  C_6 
REMARK    5  A    between atoms: C_6  and  C_7 
REMARK    6  A    between atoms: C_7  and  C_8 
REMARK    7  A    between atoms: C_8  and  O_10 
ROOT
HETATM    1  C   UNL     1     -33.761  -2.082 -11.223  1.00  0.00     0.010 C 
ENDROOT
BRANCH   1   2
HETATM    2  C   UNL     1     -33.752  -3.436 -10.515  1.00  0.00     0.001 C 
BRANCH   2   3
HETATM    3  C   UNL     1     -33.220  -4.529 -11.442  1.00  0.00     0.000 C 
BRANCH   3   4
HETATM    4  C   UNL     1     -34.173  -5.721 -11.511  1.00  0.00    -0.000 C 
BRANCH   4   5
HETATM    5  C   UNL     1     -34.581  -6.185 -10.112  1.00  0.00    -0.005 C 
HETATM    6  C   UNL     1     -34.773  -7.692 -10.062  1.00  0.00     0.005 C 
ENDBRANCH   4   5
ENDBRANCH   3   4
ENDBRANCH   2   3
ENDBRANCH   1   2
BRANCH   1   7
HETATM    7  C   UNL     1     -34.699  -2.071 -12.428  1.00  0.00     0.110 C 
BRANCH   7   8
HETATM    8  C   UNL     1     -35.612  -0.866 -12.407  1.00  0.00     0.139 C 
HETATM    9  O   UNL     1     -35.425   0.153 -11.763  1.00  0.00    -0.650 OA
BRANCH   8  10
HETATM   10  O   UNL     1     -36.698  -1.030 -13.198  1.00  0.00    -0.776 OA
HETATM   11  H   UNL     1     -36.809  -0.325 -13.863  1.00  0.00     0.167 HD
ENDBRANCH   8  10
ENDBRANCH   7   8
ENDBRANCH   1   7
TORSDOF 7
ENDMDL
MODEL 5
REMARK VINA RESULT:      -5.1      2.033      3.002
REMARK  7 active torsions:
REMARK  status: ('A' for Active; 'I' for Inactive)
REMARK    1  A    between atoms: C_2  and  C_3 
REMARK    2  A    between atoms: C_3  and  C_4 
REMARK    3  A    between atoms: C_4  and  C_5 
REMARK    4  A    between atoms: C_5  and  C_6 
REMARK    5  A    between atoms: C_6  and  C_7 
REMARK    6  A    between atoms: C_7  and  C_8 
REMARK    7  A    between atoms: C_8  and  O_10 
ROOT
HETATM    1  C   UNL     1     -22.035  -4.273 -11.437  1.00  0.00     0.010 C 
ENDROOT
BRANCH   1   2
HETATM    2  C   UNL     1     -20.599  -4.013 -10.984  1.00  0.00     0.001 C 
BRANCH   2   3
HETATM    3  C   UNL     1     -20.422  -4.373  -9.509  1.00  0.00     0.000 C 
BRANCH   3   4
HETATM    4  C   UNL     1     -21.690  -4.091  -8.704  1.00  0.00    -0.000 C 
BRANCH   4   5
HETATM    5  C   UNL     1     -21.354  -3.621  -7.289  1.00  0.00    -0.005 C 
HETATM    6  C   UNL     1     -20.311  -4.516  -6.640  1.00  0.00     0.005 C 
ENDBRANCH   4   5
ENDBRANCH   3   4
ENDBRANCH   2   3
ENDBRANCH   1   2
BRANCH   1   7
HETATM    7  C   UNL     1     -22.554  -3.171 -12.358  1.00  0.00     0.110 C 
BRANCH   7   8
HETATM    8  C   UNL     1     -24.045  -2.977 -12.202  1.00  0.00     0.139 C 
HETATM    9  O   UNL     1     -24.833  -2.781 -13.113  1.00  0.00    -0.650 OA
BRANCH   8  10
HETATM   10  O   UNL     1     -24.440  -3.043 -10.909  1.00  0.00    -0.776 OA
HETATM   11  H   UNL     1     -23.963  -3.715 -10.387  1.00  0.00     0.167 HD
ENDBRANCH   8  10
ENDBRANCH   7   8
ENDBRANCH   1   7
TORSDOF 7
ENDMDL
MODEL 6
REMARK VINA RESULT:      -5.1     11.100     12.601
REMARK  7 active torsions:
REMARK  status: ('A' for Active; 'I' for Inactive)
REMARK    1  A    between atoms: C_2  and  C_3 
REMARK    2  A    between atoms: C_3  and  C_4 
REMARK    3  A    between atoms: C_4  and  C_5 
REMARK    4  A    between atoms: C_5  and  C_6 
REMARK    5  A    between atoms: C_6  and  C_7 
REMARK    6  A    between atoms: C_7  and  C_8 
REMARK    7  A    between atoms: C_8  and  O_10 
ROOT
HETATM    1  C   UNL     1     -33.129  -3.624 -11.276  1.00  0.00     0.010 C 
ENDROOT
BRANCH   1   2
HETATM    2  C   UNL     1     -33.621  -2.204 -10.999  1.00  0.00     0.001 C 
BRANCH   2   3
HETATM    3  C   UNL     1     -34.834  -1.872 -11.868  1.00  0.00     0.000 C 
BRANCH   3   4
HETATM    4  C   UNL     1     -34.850  -0.399 -12.273  1.00  0.00    -0.000 C 
BRANCH   4   5
HETATM    5  C   UNL     1     -35.258  -0.232 -13.737  1.00  0.00    -0.005 C 
HETATM    6  C   UNL     1     -34.928   1.161 -14.249  1.00  0.00     0.005 C 
ENDBRANCH   4   5
ENDBRANCH   3   4
ENDBRANCH   2   3
ENDBRANCH   1   2
BRANCH   1   7
HETATM    7  C   UNL     1     -34.026  -4.678 -10.627  1.00  0.00     0.110 C 
BRANCH   7   8
HETATM    8  C   UNL     1     -34.614  -5.614 -11.659  1.00  0.00     0.139 C 
HETATM    9  O   UNL     1     -35.104  -5.276 -12.724  1.00  0.00    -0.650 OA
BRANCH   8  10
HETATM   10  O   UNL     1     -34.544  -6.910 -11.276  1.00  0.00    -0.776 OA
HETATM   11  H   UNL     1     -35.393  -7.385 -11.343  1.00  0.00     0.167 HD
ENDBRANCH   8  10
ENDBRANCH   7   8
ENDBRANCH   1   7
TORSDOF 7
ENDMDL
MODEL 7
REMARK VINA RESULT:      -4.9     11.164     12.852
REMARK  7 active torsions:
REMARK  status: ('A' for Active; 'I' for Inactive)
REMARK    1  A    between atoms: C_2  and  C_3 
REMARK    2  A    between atoms: C_3  and  C_4 
REMARK    3  A    between atoms: C_4  and  C_5 
REMARK    4  A    between atoms: C_5  and  C_6 
REMARK    5  A    between atoms: C_6  and  C_7 
REMARK    6  A    between atoms: C_7  and  C_8 
REMARK    7  A    between atoms: C_8  and  O_10 
ROOT
HETATM    1  C   UNL     1     -33.077  -3.602 -11.370  1.00  0.00     0.010 C 
ENDROOT
BRANCH   1   2
HETATM    2  C   UNL     1     -33.478  -2.204 -10.901  1.00  0.00     0.001 C 
BRANCH   2   3
HETATM    3  C   UNL     1     -34.996  -2.094 -10.759  1.00  0.00     0.000 C 
BRANCH   3   4
HETATM    4  C   UNL     1     -35.586  -1.106 -11.764  1.00  0.00    -0.000 C 
BRANCH   4   5
HETATM    5  C   UNL     1     -36.556  -0.139 -11.085  1.00  0.00    -0.005 C 
HETATM    6  C   UNL     1     -36.913  -0.605  -9.682  1.00  0.00     0.005 C 
ENDBRANCH   4   5
ENDBRANCH   3   4
ENDBRANCH   2   3
ENDBRANCH   1   2
BRANCH   1   7
HETATM    7  C   UNL     1     -33.918  -4.691 -10.707  1.00  0.00     0.110 C 
BRANCH   7   8
HETATM    8  C   UNL     1     -34.613  -5.555 -11.735  1.00  0.00     0.139 C 
HETATM    9  O   UNL     1     -35.149  -5.151 -12.754  1.00  0.00    -0.650 OA
BRANCH   8  10
HETATM   10  O   UNL     1     -34.585  -6.868 -11.407  1.00  0.00    -0.776 OA
HETATM   11  H   UNL     1     -35.111  -7.433 -12.003  1.00  0.00     0.167 HD
ENDBRANCH   8  10
ENDBRANCH   7   8
ENDBRANCH   1   7
TORSDOF 7
ENDMDL
MODEL 8
REMARK VINA RESULT:      -4.8     11.491     12.561
REMARK  7 active torsions:
REMARK  status: ('A' for Active; 'I' for Inactive)
REMARK    1  A    between atoms: C_2  and  C_3 
REMARK    2  A    between atoms: C_3  and  C_4 
REMARK    3  A    between atoms: C_4  and  C_5 
REMARK    4  A    between atoms: C_5  and  C_6 
REMARK    5  A    between atoms: C_6  and  C_7 
REMARK    6  A    between atoms: C_7  and  C_8 
REMARK    7  A    between atoms: C_8  and  O_10 
ROOT
HETATM    1  C   UNL     1     -34.464  -5.414 -11.595  1.00  0.00     0.010 C 
ENDROOT
BRANCH   1   2
HETATM    2  C   UNL     1     -33.253  -4.557 -11.959  1.00  0.00     0.001 C 
BRANCH   2   3
HETATM    3  C   UNL     1     -33.649  -3.086 -12.090  1.00  0.00     0.000 C 
BRANCH   3   4
HETATM    4  C   UNL     1     -33.329  -2.301 -10.819  1.00  0.00    -0.000 C 
BRANCH   4   5
HETATM    5  C   UNL     1     -34.598  -1.997 -10.022  1.00  0.00    -0.005 C 
HETATM    6  C   UNL     1     -35.829  -2.006 -10.915  1.00  0.00     0.005 C 
ENDBRANCH   4   5
ENDBRANCH   3   4
ENDBRANCH   2   3
ENDBRANCH   1   2
BRANCH   1   7
HETATM    7  C   UNL     1     -34.370  -5.964 -10.173  1.00  0.00     0.110 C 
BRANCH   7   8
HETATM    8  C   UNL     1     -34.603  -7.458 -10.141  1.00  0.00     0.139 C 
HETATM    9  O   UNL     1     -34.421  -8.183  -9.177  1.00  0.00    -0.650 OA
BRANCH   8  10
HETATM   10  O   UNL     1     -35.048  -7.934 -11.328  1.00  0.00    -0.776 OA
HETATM   11  H   UNL     1     -36.007  -7.816 -11.463  1.00  0.00     0.167 HD
ENDBRANCH   8  10
ENDBRANCH   7   8
ENDBRANCH   1   7
TORSDOF 7
ENDMDL
MODEL 9
REMARK VINA RESULT:      -4.7      3.998      5.708
REMARK  7 active torsions:
REMARK  status: ('A' for Active; 'I' for Inactive)
REMARK    1  A    between atoms: C_2  and  C_3 
REMARK    2  A    between atoms: C_3  and  C_4 
REMARK    3  A    between atoms: C_4  and  C_5 
REMARK    4  A    between atoms: C_5  and  C_6 
REMARK    5  A    between atoms: C_6  and  C_7 
REMARK    6  A    between atoms: C_7  and  C_8 
REMARK    7  A    between atoms: C_8  and  O_10 
ROOT
HETATM    1  C   UNL     1     -20.686  -4.330  -9.098  1.00  0.00     0.010 C 
ENDROOT
BRANCH   1   2
HETATM    2  C   UNL     1     -20.506  -4.330 -10.615  1.00  0.00     0.001 C 
BRANCH   2   3
HETATM    3  C   UNL     1     -21.862  -4.338 -11.322  1.00  0.00     0.000 C 
BRANCH   3   4
HETATM    4  C   UNL     1     -22.012  -3.144 -12.264  1.00  0.00    -0.000 C 
BRANCH   4   5
HETATM    5  C   UNL     1     -23.485  -2.808 -12.500  1.00  0.00    -0.005 C 
HETATM    6  C   UNL     1     -24.345  -3.229 -11.319  1.00  0.00     0.005 C 
ENDBRANCH   4   5
ENDBRANCH   3   4
ENDBRANCH   2   3
ENDBRANCH   1   2
BRANCH   1   7
HETATM    7  C   UNL     1     -22.124  -4.014  -8.691  1.00  0.00     0.110 C 
BRANCH   7   8
HETATM    8  C   UNL     1     -22.483  -4.667  -7.376  1.00  0.00     0.139 C 
HETATM    9  O   UNL     1     -21.792  -5.471  -6.772  1.00  0.00    -0.650 OA
BRANCH   8  10
HETATM   10  O   UNL     1     -23.689  -4.263  -6.913  1.00  0.00    -0.776 OA
HETATM   11  H   UNL     1     -24.318  -4.019  -7.617  1.00  0.00     0.167 HD
ENDBRANCH   8  10
ENDBRANCH   7   8
ENDBRANCH   1   7
TORSDOF 7
ENDMDL
