MODEL 1
REMARK VINA RESULT:      -6.4      0.000      0.000
REMARK  19 active torsions:
REMARK  status: ('A' for Active; 'I' for Inactive)
REMARK    1  A    between atoms: C_2  and  C_3 
REMARK    2  A    between atoms: C_3  and  C_4 
REMARK    3  A    between atoms: C_4  and  C_5 
REMARK    4  A    between atoms: C_5  and  C_6 
REMARK    5  A    between atoms: C_6  and  C_7 
REMARK    6  A    between atoms: C_7  and  C_8 
REMARK    7  A    between atoms: C_8  and  C_9 
REMARK    8  A    between atoms: C_9  and  C_10 
REMARK    9  A    between atoms: C_10  and  C_11 
REMARK   10  A    between atoms: C_11  and  C_12 
REMARK   11  A    between atoms: C_12  and  O_13 
REMARK   12  A    between atoms: O_13  and  C_14 
REMARK   13  A    between atoms: C_14  and  C_15 
REMARK   14  A    between atoms: C_15  and  O_16 
REMARK   15  A    between atoms: O_16  and  C_17 
REMARK   16  A    between atoms: C_17  and  C_18 
REMARK   17  A    between atoms: C_18  and  O_19 
REMARK   18  A    between atoms: O_19  and  C_20 
REMARK   19  A    between atoms: C_20  and  C_22 
ROOT
HETATM    1  C   UNL     1     -21.205  -8.267  -5.501  1.00  0.00     0.193 C 
ENDROOT
BRANCH   1   2
HETATM    2  O   UNL     1     -19.918  -8.869  -5.589  1.00  0.00    -0.389 OA
BRANCH   2   3
HETATM    3  C   UNL     1     -19.764  -9.854  -4.575  1.00  0.00     0.167 C 
BRANCH   3   4
HETATM    4  C   UNL     1     -18.753  -9.362  -3.554  1.00  0.00     0.026 C 
BRANCH   4   5
HETATM    5  C   UNL     1     -18.752 -10.288  -2.348  1.00  0.00     0.002 C 
BRANCH   5   6
HETATM    6  C   UNL     1     -19.734 -11.431  -2.552  1.00  0.00     0.000 C 
BRANCH   6   7
HETATM    7  C   UNL     1     -20.550 -11.649  -1.288  1.00  0.00     0.000 C 
BRANCH   7   8
HETATM    8  C   UNL     1     -19.691 -11.393  -0.063  1.00  0.00     0.000 C 
BRANCH   8   9
HETATM    9  C   UNL     1     -20.521 -10.741   1.029  1.00  0.00     0.000 C 
BRANCH   9  10
HETATM   10  C   UNL     1     -21.709 -10.019   0.418  1.00  0.00     0.000 C 
BRANCH  10  11
HETATM   11  C   UNL     1     -21.632  -8.534   0.726  1.00  0.00     0.000 C 
BRANCH  11  12
HETATM   12  C   UNL     1     -22.795  -7.798   0.073  1.00  0.00    -0.000 C 
BRANCH  12  13
HETATM   13  C   UNL     1     -22.283  -6.753  -0.904  1.00  0.00    -0.005 C 
HETATM   14  C   UNL     1     -21.551  -7.418  -2.057  1.00  0.00     0.005 C 
ENDBRANCH  12  13
ENDBRANCH  11  12
ENDBRANCH  10  11
ENDBRANCH   9  10
ENDBRANCH   8   9
ENDBRANCH   7   8
ENDBRANCH   6   7
ENDBRANCH   5   6
ENDBRANCH   4   5
ENDBRANCH   3   4
ENDBRANCH   2   3
ENDBRANCH   1   2
BRANCH   1  15
HETATM   15  C   UNL     1     -21.133  -6.867  -6.081  1.00  0.00     0.193 C 
BRANCH  15  16
HETATM   16  O   UNL     1     -19.848  -6.667  -6.670  1.00  0.00    -0.387 OA
BRANCH  16  17
HETATM   17  C   UNL     1     -19.738  -5.356  -7.235  1.00  0.00     0.194 C 
BRANCH  17  18
HETATM   18  C   UNL     1     -20.664  -4.384  -6.507  1.00  0.00     0.205 C 
BRANCH  18  19
HETATM   19  O   UNL     1     -21.330  -3.496  -7.424  1.00  0.00    -0.315 OA
BRANCH  19  20
HETATM   20  C   UNL     1     -22.473  -3.977  -7.970  1.00  0.00     0.293 C 
HETATM   21  O   UNL     1     -23.389  -4.503  -7.359  1.00  0.00    -0.259 OA
BRANCH  20  22
HETATM   22  C   UNL     1     -22.476  -3.757  -9.443  1.00  0.00     0.039 A 
HETATM   23  C   UNL     1     -23.672  -3.367 -10.066  1.00  0.00     0.017 A 
HETATM   24  C   UNL     1     -23.699  -3.111 -11.438  1.00  0.00     0.001 A 
HETATM   25  C   UNL     1     -22.529  -3.219 -12.186  1.00  0.00     0.000 A 
HETATM   26  C   UNL     1     -21.332  -3.595 -11.573  1.00  0.00     0.001 A 
HETATM   27  C   UNL     1     -21.310  -3.886 -10.212  1.00  0.00     0.017 A 
ENDBRANCH  20  22
ENDBRANCH  19  20
ENDBRANCH  18  19
ENDBRANCH  17  18
ENDBRANCH  16  17
ENDBRANCH  15  16
ENDBRANCH   1  15
TORSDOF 19
ENDMDL
MODEL 2
REMARK VINA RESULT:      -6.4      1.530      1.986
REMARK  19 active torsions:
REMARK  status: ('A' for Active; 'I' for Inactive)
REMARK    1  A    between atoms: C_2  and  C_3 
REMARK    2  A    between atoms: C_3  and  C_4 
REMARK    3  A    between atoms: C_4  and  C_5 
REMARK    4  A    between atoms: C_5  and  C_6 
REMARK    5  A    between atoms: C_6  and  C_7 
REMARK    6  A    between atoms: C_7  and  C_8 
REMARK    7  A    between atoms: C_8  and  C_9 
REMARK    8  A    between atoms: C_9  and  C_10 
REMARK    9  A    between atoms: C_10  and  C_11 
REMARK   10  A    between atoms: C_11  and  C_12 
REMARK   11  A    between atoms: C_12  and  O_13 
REMARK   12  A    between atoms: O_13  and  C_14 
REMARK   13  A    between atoms: C_14  and  C_15 
REMARK   14  A    between atoms: C_15  and  O_16 
REMARK   15  A    between atoms: O_16  and  C_17 
REMARK   16  A    between atoms: C_17  and  C_18 
REMARK   17  A    between atoms: C_18  and  O_19 
REMARK   18  A    between atoms: O_19  and  C_20 
REMARK   19  A    between atoms: C_20  and  C_22 
ROOT
HETATM    1  C   UNL     1     -21.161  -6.377  -4.568  1.00  0.00     0.193 C 
ENDROOT
BRANCH   1   2
HETATM    2  O   UNL     1     -21.555  -7.728  -4.359  1.00  0.00    -0.389 OA
BRANCH   2   3
HETATM    3  C   UNL     1     -20.740  -8.604  -5.129  1.00  0.00     0.167 C 
BRANCH   3   4
HETATM    4  C   UNL     1     -21.218 -10.032  -4.929  1.00  0.00     0.026 C 
BRANCH   4   5
HETATM    5  C   UNL     1     -21.743 -10.202  -3.513  1.00  0.00     0.002 C 
BRANCH   5   6
HETATM    6  C   UNL     1     -22.764 -11.327  -3.452  1.00  0.00     0.000 C 
BRANCH   6   7
HETATM    7  C   UNL     1     -22.823 -11.903  -2.047  1.00  0.00     0.000 C 
BRANCH   7   8
HETATM    8  C   UNL     1     -23.934 -11.234  -1.258  1.00  0.00     0.000 C 
BRANCH   8   9
HETATM    9  C   UNL     1     -23.363 -10.573  -0.014  1.00  0.00     0.000 C 
BRANCH   9  10
HETATM   10  C   UNL     1     -21.896 -10.932   0.140  1.00  0.00     0.000 C 
BRANCH  10  11
HETATM   11  C   UNL     1     -21.154  -9.808   0.841  1.00  0.00     0.000 C 
BRANCH  11  12
HETATM   12  C   UNL     1     -21.861  -8.481   0.601  1.00  0.00    -0.000 C 
BRANCH  12  13
HETATM   13  C   UNL     1     -21.440  -7.887  -0.733  1.00  0.00    -0.005 C 
HETATM   14  C   UNL     1     -22.331  -6.711  -1.095  1.00  0.00     0.005 C 
ENDBRANCH  12  13
ENDBRANCH  11  12
ENDBRANCH  10  11
ENDBRANCH   9  10
ENDBRANCH   8   9
ENDBRANCH   7   8
ENDBRANCH   6   7
ENDBRANCH   5   6
ENDBRANCH   4   5
ENDBRANCH   3   4
ENDBRANCH   2   3
ENDBRANCH   1   2
BRANCH   1  15
HETATM   15  C   UNL     1     -20.390  -6.287  -5.873  1.00  0.00     0.193 C 
BRANCH  15  16
HETATM   16  O   UNL     1     -19.731  -5.023  -5.942  1.00  0.00    -0.387 OA
BRANCH  16  17
HETATM   17  C   UNL     1     -19.895  -4.426  -7.234  1.00  0.00     0.194 C 
BRANCH  17  18
HETATM   18  C   UNL     1     -21.279  -3.791  -7.354  1.00  0.00     0.205 C 
BRANCH  18  19
HETATM   19  O   UNL     1     -21.612  -3.496  -8.723  1.00  0.00    -0.315 OA
BRANCH  19  20
HETATM   20  C   UNL     1     -22.880  -3.805  -9.090  1.00  0.00     0.293 C 
HETATM   21  O   UNL     1     -23.762  -4.199  -8.344  1.00  0.00    -0.259 OA
BRANCH  20  22
HETATM   22  C   UNL     1     -23.068  -3.574 -10.549  1.00  0.00     0.039 A 
HETATM   23  C   UNL     1     -24.363  -3.335 -11.034  1.00  0.00     0.017 A 
HETATM   24  C   UNL     1     -24.567  -3.073 -12.391  1.00  0.00     0.001 A 
HETATM   25  C   UNL     1     -23.480  -3.024 -13.259  1.00  0.00     0.000 A 
HETATM   26  C   UNL     1     -22.186  -3.249 -12.782  1.00  0.00     0.001 A 
HETATM   27  C   UNL     1     -21.983  -3.546 -11.438  1.00  0.00     0.017 A 
ENDBRANCH  20  22
ENDBRANCH  19  20
ENDBRANCH  18  19
ENDBRANCH  17  18
ENDBRANCH  16  17
ENDBRANCH  15  16
ENDBRANCH   1  15
TORSDOF 19
ENDMDL
MODEL 3
REMARK VINA RESULT:      -6.3      1.274      3.249
REMARK  19 active torsions:
REMARK  status: ('A' for Active; 'I' for Inactive)
REMARK    1  A    between atoms: C_2  and  C_3 
REMARK    2  A    between atoms: C_3  and  C_4 
REMARK    3  A    between atoms: C_4  and  C_5 
REMARK    4  A    between atoms: C_5  and  C_6 
REMARK    5  A    between atoms: C_6  and  C_7 
REMARK    6  A    between atoms: C_7  and  C_8 
REMARK    7  A    between atoms: C_8  and  C_9 
REMARK    8  A    between atoms: C_9  and  C_10 
REMARK    9  A    between atoms: C_10  and  C_11 
REMARK   10  A    between atoms: C_11  and  C_12 
REMARK   11  A    between atoms: C_12  and  O_13 
REMARK   12  A    between atoms: O_13  and  C_14 
REMARK   13  A    between atoms: C_14  and  C_15 
REMARK   14  A    between atoms: C_15  and  O_16 
REMARK   15  A    between atoms: O_16  and  C_17 
REMARK   16  A    between atoms: C_17  and  C_18 
REMARK   17  A    between atoms: C_18  and  O_19 
REMARK   18  A    between atoms: O_19  and  C_20 
REMARK   19  A    between atoms: C_20  and  C_22 
ROOT
HETATM    1  C   UNL     1     -21.165  -6.693  -4.036  1.00  0.00     0.193 C 
ENDROOT
BRANCH   1   2
HETATM    2  O   UNL     1     -22.369  -6.288  -3.395  1.00  0.00    -0.389 OA
BRANCH   2   3
HETATM    3  C   UNL     1     -22.139  -6.065  -2.010  1.00  0.00     0.167 C 
BRANCH   3   4
HETATM    4  C   UNL     1     -21.739  -7.375  -1.354  1.00  0.00     0.026 C 
BRANCH   4   5
HETATM    5  C   UNL     1     -22.670  -7.668  -0.188  1.00  0.00     0.002 C 
BRANCH   5   6
HETATM    6  C   UNL     1     -22.809  -9.167   0.022  1.00  0.00     0.000 C 
BRANCH   6   7
HETATM    7  C   UNL     1     -21.494  -9.749   0.513  1.00  0.00     0.000 C 
BRANCH   7   8
HETATM    8  C   UNL     1     -21.518 -11.262   0.391  1.00  0.00     0.000 C 
BRANCH   8   9
HETATM    9  C   UNL     1     -20.858 -11.691  -0.909  1.00  0.00     0.000 C 
BRANCH   9  10
HETATM   10  C   UNL     1     -19.613 -10.858  -1.160  1.00  0.00     0.000 C 
BRANCH  10  11
HETATM   11  C   UNL     1     -19.546 -10.447  -2.620  1.00  0.00     0.000 C 
BRANCH  11  12
HETATM   12  C   UNL     1     -18.736  -9.166  -2.769  1.00  0.00    -0.000 C 
BRANCH  12  13
HETATM   13  C   UNL     1     -17.285  -9.486  -3.088  1.00  0.00    -0.005 C 
HETATM   14  C   UNL     1     -17.202 -10.550  -4.169  1.00  0.00     0.005 C 
ENDBRANCH  12  13
ENDBRANCH  11  12
ENDBRANCH  10  11
ENDBRANCH   9  10
ENDBRANCH   8   9
ENDBRANCH   7   8
ENDBRANCH   6   7
ENDBRANCH   5   6
ENDBRANCH   4   5
ENDBRANCH   3   4
ENDBRANCH   2   3
ENDBRANCH   1   2
BRANCH   1  15
HETATM   15  C   UNL     1     -21.510  -7.632  -5.178  1.00  0.00     0.193 C 
BRANCH  15  16
HETATM   16  O   UNL     1     -21.271  -6.970  -6.420  1.00  0.00    -0.387 OA
BRANCH  16  17
HETATM   17  C   UNL     1     -20.200  -6.025  -6.303  1.00  0.00     0.194 C 
BRANCH  17  18
HETATM   18  C   UNL     1     -20.697  -4.617  -6.621  1.00  0.00     0.205 C 
BRANCH  18  19
HETATM   19  O   UNL     1     -21.067  -4.484  -8.006  1.00  0.00    -0.315 OA
BRANCH  19  20
HETATM   20  C   UNL     1     -22.381  -4.242  -8.235  1.00  0.00     0.293 C 
HETATM   21  O   UNL     1     -23.277  -4.344  -7.412  1.00  0.00    -0.259 OA
BRANCH  20  22
HETATM   22  C   UNL     1     -22.591  -3.805  -9.642  1.00  0.00     0.039 A 
HETATM   23  C   UNL     1     -21.486  -3.747 -10.505  1.00  0.00     0.017 A 
HETATM   24  C   UNL     1     -21.657  -3.382 -11.842  1.00  0.00     0.001 A 
HETATM   25  C   UNL     1     -22.931  -3.099 -12.326  1.00  0.00     0.000 A 
HETATM   26  C   UNL     1     -24.039  -3.165 -11.477  1.00  0.00     0.001 A 
HETATM   27  C   UNL     1     -23.867  -3.493 -10.135  1.00  0.00     0.017 A 
ENDBRANCH  20  22
ENDBRANCH  19  20
ENDBRANCH  18  19
ENDBRANCH  17  18
ENDBRANCH  16  17
ENDBRANCH  15  16
ENDBRANCH   1  15
TORSDOF 19
ENDMDL
MODEL 4
REMARK VINA RESULT:      -6.3      1.517      3.428
REMARK  19 active torsions:
REMARK  status: ('A' for Active; 'I' for Inactive)
REMARK    1  A    between atoms: C_2  and  C_3 
REMARK    2  A    between atoms: C_3  and  C_4 
REMARK    3  A    between atoms: C_4  and  C_5 
REMARK    4  A    between atoms: C_5  and  C_6 
REMARK    5  A    between atoms: C_6  and  C_7 
REMARK    6  A    between atoms: C_7  and  C_8 
REMARK    7  A    between atoms: C_8  and  C_9 
REMARK    8  A    between atoms: C_9  and  C_10 
REMARK    9  A    between atoms: C_10  and  C_11 
REMARK   10  A    between atoms: C_11  and  C_12 
REMARK   11  A    between atoms: C_12  and  O_13 
REMARK   12  A    between atoms: O_13  and  C_14 
REMARK   13  A    between atoms: C_14  and  C_15 
REMARK   14  A    between atoms: C_15  and  O_16 
REMARK   15  A    between atoms: O_16  and  C_17 
REMARK   16  A    between atoms: C_17  and  C_18 
REMARK   17  A    between atoms: C_18  and  O_19 
REMARK   18  A    between atoms: O_19  and  C_20 
REMARK   19  A    between atoms: C_20  and  C_22 
ROOT
HETATM    1  C   UNL     1     -21.477  -8.054  -4.547  1.00  0.00     0.193 C 
ENDROOT
BRANCH   1   2
HETATM    2  O   UNL     1     -21.568  -7.921  -3.133  1.00  0.00    -0.389 OA
BRANCH   2   3
HETATM    3  C   UNL     1     -21.640  -6.548  -2.771  1.00  0.00     0.167 C 
BRANCH   3   4
HETATM    4  C   UNL     1     -22.287  -6.427  -1.403  1.00  0.00     0.026 C 
BRANCH   4   5
HETATM    5  C   UNL     1     -21.834  -7.578  -0.519  1.00  0.00     0.002 C 
BRANCH   5   6
HETATM    6  C   UNL     1     -23.033  -8.330   0.036  1.00  0.00     0.000 C 
BRANCH   6   7
HETATM    7  C   UNL     1     -22.735  -9.819   0.091  1.00  0.00     0.000 C 
BRANCH   7   8
HETATM    8  C   UNL     1     -24.029 -10.611   0.031  1.00  0.00     0.000 C 
BRANCH   8   9
HETATM    9  C   UNL     1     -23.794 -11.940  -0.666  1.00  0.00     0.000 C 
BRANCH   9  10
HETATM   10  C   UNL     1     -23.386 -12.995   0.349  1.00  0.00     0.000 C 
BRANCH  10  11
HETATM   11  C   UNL     1     -21.957 -13.440   0.092  1.00  0.00     0.000 C 
BRANCH  11  12
HETATM   12  C   UNL     1     -21.541 -13.082  -1.329  1.00  0.00    -0.000 C 
BRANCH  12  13
HETATM   13  C   UNL     1     -20.237 -12.302  -1.323  1.00  0.00    -0.005 C 
HETATM   14  C   UNL     1     -19.794 -12.020   0.103  1.00  0.00     0.005 C 
ENDBRANCH  12  13
ENDBRANCH  11  12
ENDBRANCH  10  11
ENDBRANCH   9  10
ENDBRANCH   8   9
ENDBRANCH   7   8
ENDBRANCH   6   7
ENDBRANCH   5   6
ENDBRANCH   4   5
ENDBRANCH   3   4
ENDBRANCH   2   3
ENDBRANCH   1   2
BRANCH   1  15
HETATM   15  C   UNL     1     -20.013  -8.145  -4.938  1.00  0.00     0.193 C 
BRANCH  15  16
HETATM   16  O   UNL     1     -19.773  -7.297  -6.061  1.00  0.00    -0.387 OA
BRANCH  16  17
HETATM   17  C   UNL     1     -20.903  -6.456  -6.324  1.00  0.00     0.194 C 
BRANCH  17  18
HETATM   18  C   UNL     1     -20.599  -5.016  -5.916  1.00  0.00     0.205 C 
BRANCH  18  19
HETATM   19  O   UNL     1     -20.852  -4.094  -6.992  1.00  0.00    -0.315 OA
BRANCH  19  20
HETATM   20  C   UNL     1     -22.057  -4.225  -7.597  1.00  0.00     0.293 C 
HETATM   21  O   UNL     1     -23.120  -4.428  -7.032  1.00  0.00    -0.259 OA
BRANCH  20  22
HETATM   22  C   UNL     1     -21.919  -4.063  -9.071  1.00  0.00     0.039 A 
HETATM   23  C   UNL     1     -20.660  -4.264  -9.658  1.00  0.00     0.017 A 
HETATM   24  C   UNL     1     -20.506  -4.161 -11.042  1.00  0.00     0.001 A 
HETATM   25  C   UNL     1     -21.610  -3.884 -11.844  1.00  0.00     0.000 A 
HETATM   26  C   UNL     1     -22.869  -3.695 -11.269  1.00  0.00     0.001 A 
HETATM   27  C   UNL     1     -23.019  -3.760  -9.886  1.00  0.00     0.017 A 
ENDBRANCH  20  22
ENDBRANCH  19  20
ENDBRANCH  18  19
ENDBRANCH  17  18
ENDBRANCH  16  17
ENDBRANCH  15  16
ENDBRANCH   1  15
TORSDOF 19
ENDMDL
MODEL 5
REMARK VINA RESULT:      -6.0     16.233     19.257
REMARK  19 active torsions:
REMARK  status: ('A' for Active; 'I' for Inactive)
REMARK    1  A    between atoms: C_2  and  C_3 
REMARK    2  A    between atoms: C_3  and  C_4 
REMARK    3  A    between atoms: C_4  and  C_5 
REMARK    4  A    between atoms: C_5  and  C_6 
REMARK    5  A    between atoms: C_6  and  C_7 
REMARK    6  A    between atoms: C_7  and  C_8 
REMARK    7  A    between atoms: C_8  and  C_9 
REMARK    8  A    between atoms: C_9  and  C_10 
REMARK    9  A    between atoms: C_10  and  C_11 
REMARK   10  A    between atoms: C_11  and  C_12 
REMARK   11  A    between atoms: C_12  and  O_13 
REMARK   12  A    between atoms: O_13  and  C_14 
REMARK   13  A    between atoms: C_14  and  C_15 
REMARK   14  A    between atoms: C_15  and  O_16 
REMARK   15  A    between atoms: O_16  and  C_17 
REMARK   16  A    between atoms: C_17  and  C_18 
REMARK   17  A    between atoms: C_18  and  O_19 
REMARK   18  A    between atoms: O_19  and  C_20 
REMARK   19  A    between atoms: C_20  and  C_22 
ROOT
HETATM    1  C   UNL     1     -18.509   9.065   2.905  1.00  0.00     0.193 C 
ENDROOT
BRANCH   1   2
HETATM    2  O   UNL     1     -19.875   8.704   2.736  1.00  0.00    -0.389 OA
BRANCH   2   3
HETATM    3  C   UNL     1     -20.665   9.862   2.497  1.00  0.00     0.167 C 
BRANCH   3   4
HETATM    4  C   UNL     1     -22.135   9.483   2.554  1.00  0.00     0.026 C 
BRANCH   4   5
HETATM    5  C   UNL     1     -22.549   8.843   1.238  1.00  0.00     0.002 C 
BRANCH   5   6
HETATM    6  C   UNL     1     -24.063   8.768   1.134  1.00  0.00     0.000 C 
BRANCH   6   7
HETATM    7  C   UNL     1     -24.463   8.001  -0.116  1.00  0.00     0.000 C 
BRANCH   7   8
HETATM    8  C   UNL     1     -23.255   7.287  -0.696  1.00  0.00     0.000 C 
BRANCH   8   9
HETATM    9  C   UNL     1     -23.596   6.712  -2.060  1.00  0.00     0.000 C 
BRANCH   9  10
HETATM   10  C   UNL     1     -23.447   7.782  -3.128  1.00  0.00     0.000 C 
BRANCH  10  11
HETATM   11  C   UNL     1     -24.504   7.598  -4.203  1.00  0.00     0.000 C 
BRANCH  11  12
HETATM   12  C   UNL     1     -25.454   6.471  -3.819  1.00  0.00    -0.000 C 
BRANCH  12  13
HETATM   13  C   UNL     1     -26.887   6.973  -3.779  1.00  0.00    -0.005 C 
HETATM   14  C   UNL     1     -26.994   8.201  -2.892  1.00  0.00     0.005 C 
ENDBRANCH  12  13
ENDBRANCH  11  12
ENDBRANCH  10  11
ENDBRANCH   9  10
ENDBRANCH   8   9
ENDBRANCH   7   8
ENDBRANCH   6   7
ENDBRANCH   5   6
ENDBRANCH   4   5
ENDBRANCH   3   4
ENDBRANCH   2   3
ENDBRANCH   1   2
BRANCH   1  15
HETATM   15  C   UNL     1     -18.349   9.766   4.242  1.00  0.00     0.193 C 
BRANCH  15  16
HETATM   16  O   UNL     1     -17.789   8.855   5.187  1.00  0.00    -0.387 OA
BRANCH  16  17
HETATM   17  C   UNL     1     -17.334   9.542   6.358  1.00  0.00     0.194 C 
BRANCH  17  18
HETATM   18  C   UNL     1     -15.813   9.458   6.465  1.00  0.00     0.205 C 
BRANCH  18  19
HETATM   19  O   UNL     1     -15.265   8.507   5.532  1.00  0.00    -0.315 OA
BRANCH  19  20
HETATM   20  C   UNL     1     -14.020   8.791   5.079  1.00  0.00     0.293 C 
HETATM   21  O   UNL     1     -13.038   8.995   5.775  1.00  0.00    -0.259 OA
BRANCH  20  22
HETATM   22  C   UNL     1     -13.999   8.800   3.590  1.00  0.00     0.039 A 
HETATM   23  C   UNL     1     -14.848   7.924   2.897  1.00  0.00     0.017 A 
HETATM   24  C   UNL     1     -14.883   7.938   1.501  1.00  0.00     0.001 A 
HETATM   25  C   UNL     1     -14.092   8.841   0.796  1.00  0.00     0.000 A 
HETATM   26  C   UNL     1     -13.253   9.725   1.479  1.00  0.00     0.001 A 
HETATM   27  C   UNL     1     -13.188   9.689   2.869  1.00  0.00     0.017 A 
ENDBRANCH  20  22
ENDBRANCH  19  20
ENDBRANCH  18  19
ENDBRANCH  17  18
ENDBRANCH  16  17
ENDBRANCH  15  16
ENDBRANCH   1  15
TORSDOF 19
ENDMDL
MODEL 6
REMARK VINA RESULT:      -5.9      2.164      4.253
REMARK  19 active torsions:
REMARK  status: ('A' for Active; 'I' for Inactive)
REMARK    1  A    between atoms: C_2  and  C_3 
REMARK    2  A    between atoms: C_3  and  C_4 
REMARK    3  A    between atoms: C_4  and  C_5 
REMARK    4  A    between atoms: C_5  and  C_6 
REMARK    5  A    between atoms: C_6  and  C_7 
REMARK    6  A    between atoms: C_7  and  C_8 
REMARK    7  A    between atoms: C_8  and  C_9 
REMARK    8  A    between atoms: C_9  and  C_10 
REMARK    9  A    between atoms: C_10  and  C_11 
REMARK   10  A    between atoms: C_11  and  C_12 
REMARK   11  A    between atoms: C_12  and  O_13 
REMARK   12  A    between atoms: O_13  and  C_14 
REMARK   13  A    between atoms: C_14  and  C_15 
REMARK   14  A    between atoms: C_15  and  O_16 
REMARK   15  A    between atoms: O_16  and  C_17 
REMARK   16  A    between atoms: C_17  and  C_18 
REMARK   17  A    between atoms: C_18  and  O_19 
REMARK   18  A    between atoms: O_19  and  C_20 
REMARK   19  A    between atoms: C_20  and  C_22 
ROOT
HETATM    1  C   UNL     1     -22.017  -5.990  -1.968  1.00  0.00     0.193 C 
ENDROOT
BRANCH   1   2
HETATM    2  O   UNL     1     -22.348  -7.279  -1.464  1.00  0.00    -0.389 OA
BRANCH   2   3
HETATM    3  C   UNL     1     -21.191  -7.910  -0.930  1.00  0.00     0.167 C 
BRANCH   3   4
HETATM    4  C   UNL     1     -21.615  -8.905   0.137  1.00  0.00     0.026 C 
BRANCH   4   5
HETATM    5  C   UNL     1     -23.129  -9.048   0.130  1.00  0.00     0.002 C 
BRANCH   5   6
HETATM    6  C   UNL     1     -23.528 -10.487  -0.154  1.00  0.00     0.000 C 
BRANCH   6   7
HETATM    7  C   UNL     1     -22.531 -11.128  -1.104  1.00  0.00     0.000 C 
BRANCH   7   8
HETATM    8  C   UNL     1     -23.167 -11.330  -2.467  1.00  0.00     0.000 C 
BRANCH   8   9
HETATM    9  C   UNL     1     -22.437 -10.503  -3.511  1.00  0.00     0.000 C 
BRANCH   9  10
HETATM   10  C   UNL     1     -20.940 -10.746  -3.415  1.00  0.00     0.000 C 
BRANCH  10  11
HETATM   11  C   UNL     1     -20.296 -10.584  -4.781  1.00  0.00     0.000 C 
BRANCH  11  12
HETATM   12  C   UNL     1     -21.060 -11.392  -5.822  1.00  0.00    -0.000 C 
BRANCH  12  13
HETATM   13  C   UNL     1     -20.152 -12.427  -6.464  1.00  0.00    -0.005 C 
HETATM   14  C   UNL     1     -20.841 -13.071  -7.655  1.00  0.00     0.005 C 
ENDBRANCH  12  13
ENDBRANCH  11  12
ENDBRANCH  10  11
ENDBRANCH   9  10
ENDBRANCH   8   9
ENDBRANCH   7   8
ENDBRANCH   6   7
ENDBRANCH   5   6
ENDBRANCH   4   5
ENDBRANCH   3   4
ENDBRANCH   2   3
ENDBRANCH   1   2
BRANCH   1  15
HETATM   15  C   UNL     1     -21.339  -6.149  -3.317  1.00  0.00     0.193 C 
BRANCH  15  16
HETATM   16  O   UNL     1     -22.324  -6.446  -4.306  1.00  0.00    -0.387 OA
BRANCH  16  17
HETATM   17  C   UNL     1     -21.767  -7.225  -5.372  1.00  0.00     0.194 C 
BRANCH  17  18
HETATM   18  C   UNL     1     -20.688  -6.429  -6.103  1.00  0.00     0.205 C 
BRANCH  18  19
HETATM   19  O   UNL     1     -21.166  -5.914  -7.359  1.00  0.00    -0.315 OA
BRANCH  19  20
HETATM   20  C   UNL     1     -20.340  -5.034  -7.977  1.00  0.00     0.293 C 
HETATM   21  O   UNL     1     -19.217  -4.731  -7.606  1.00  0.00    -0.259 OA
BRANCH  20  22
HETATM   22  C   UNL     1     -20.985  -4.491  -9.205  1.00  0.00     0.039 A 
HETATM   23  C   UNL     1     -22.322  -4.072  -9.137  1.00  0.00     0.017 A 
HETATM   24  C   UNL     1     -22.942  -3.518 -10.259  1.00  0.00     0.001 A 
HETATM   25  C   UNL     1     -22.223  -3.360 -11.441  1.00  0.00     0.000 A 
HETATM   26  C   UNL     1     -20.888  -3.764 -11.513  1.00  0.00     0.001 A 
HETATM   27  C   UNL     1     -20.278  -4.350 -10.408  1.00  0.00     0.017 A 
ENDBRANCH  20  22
ENDBRANCH  19  20
ENDBRANCH  18  19
ENDBRANCH  17  18
ENDBRANCH  16  17
ENDBRANCH  15  16
ENDBRANCH   1  15
TORSDOF 19
ENDMDL
MODEL 7
REMARK VINA RESULT:      -5.9      2.313      3.919
REMARK  19 active torsions:
REMARK  status: ('A' for Active; 'I' for Inactive)
REMARK    1  A    between atoms: C_2  and  C_3 
REMARK    2  A    between atoms: C_3  and  C_4 
REMARK    3  A    between atoms: C_4  and  C_5 
REMARK    4  A    between atoms: C_5  and  C_6 
REMARK    5  A    between atoms: C_6  and  C_7 
REMARK    6  A    between atoms: C_7  and  C_8 
REMARK    7  A    between atoms: C_8  and  C_9 
REMARK    8  A    between atoms: C_9  and  C_10 
REMARK    9  A    between atoms: C_10  and  C_11 
REMARK   10  A    between atoms: C_11  and  C_12 
REMARK   11  A    between atoms: C_12  and  O_13 
REMARK   12  A    between atoms: O_13  and  C_14 
REMARK   13  A    between atoms: C_14  and  C_15 
REMARK   14  A    between atoms: C_15  and  O_16 
REMARK   15  A    between atoms: O_16  and  C_17 
REMARK   16  A    between atoms: C_17  and  C_18 
REMARK   17  A    between atoms: C_18  and  O_19 
REMARK   18  A    between atoms: O_19  and  C_20 
REMARK   19  A    between atoms: C_20  and  C_22 
ROOT
HETATM    1  C   UNL     1     -22.158  -6.432  -1.903  1.00  0.00     0.193 C 
ENDROOT
BRANCH   1   2
HETATM    2  O   UNL     1     -21.721  -7.231  -0.810  1.00  0.00    -0.389 OA
BRANCH   2   3
HETATM    3  C   UNL     1     -22.812  -7.527   0.053  1.00  0.00     0.167 C 
BRANCH   3   4
HETATM    4  C   UNL     1     -23.044  -9.028   0.065  1.00  0.00     0.026 C 
BRANCH   4   5
HETATM    5  C   UNL     1     -21.717  -9.749   0.246  1.00  0.00     0.002 C 
BRANCH   5   6
HETATM    6  C   UNL     1     -21.789 -11.152  -0.333  1.00  0.00     0.000 C 
BRANCH   6   7
HETATM    7  C   UNL     1     -21.974 -12.168   0.782  1.00  0.00     0.000 C 
BRANCH   7   8
HETATM    8  C   UNL     1     -23.356 -12.791   0.693  1.00  0.00     0.000 C 
BRANCH   8   9
HETATM    9  C   UNL     1     -23.787 -12.897  -0.759  1.00  0.00     0.000 C 
BRANCH   9  10
HETATM   10  C   UNL     1     -23.603 -14.322  -1.254  1.00  0.00     0.000 C 
BRANCH  10  11
HETATM   11  C   UNL     1     -23.319 -14.323  -2.746  1.00  0.00     0.000 C 
BRANCH  11  12
HETATM   12  C   UNL     1     -22.156 -13.392  -3.061  1.00  0.00    -0.000 C 
BRANCH  12  13
HETATM   13  C   UNL     1     -22.486 -12.511  -4.254  1.00  0.00    -0.005 C 
HETATM   14  C   UNL     1     -22.199 -11.054  -3.934  1.00  0.00     0.005 C 
ENDBRANCH  12  13
ENDBRANCH  11  12
ENDBRANCH  10  11
ENDBRANCH   9  10
ENDBRANCH   8   9
ENDBRANCH   7   8
ENDBRANCH   6   7
ENDBRANCH   5   6
ENDBRANCH   4   5
ENDBRANCH   3   4
ENDBRANCH   2   3
ENDBRANCH   1   2
BRANCH   1  15
HETATM   15  C   UNL     1     -21.600  -7.012  -3.190  1.00  0.00     0.193 C 
BRANCH  15  16
HETATM   16  O   UNL     1     -22.065  -6.238  -4.295  1.00  0.00    -0.387 OA
BRANCH  16  17
HETATM   17  C   UNL     1     -21.101  -6.220  -5.354  1.00  0.00     0.194 C 
BRANCH  17  18
HETATM   18  C   UNL     1     -20.711  -4.783  -5.693  1.00  0.00     0.205 C 
BRANCH  18  19
HETATM   19  O   UNL     1     -20.731  -4.547  -7.113  1.00  0.00    -0.315 OA
BRANCH  19  20
HETATM   20  C   UNL     1     -21.964  -4.432  -7.664  1.00  0.00     0.293 C 
HETATM   21  O   UNL     1     -23.021  -4.433  -7.052  1.00  0.00    -0.259 OA
BRANCH  20  22
HETATM   22  C   UNL     1     -21.861  -4.279  -9.141  1.00  0.00     0.039 A 
HETATM   23  C   UNL     1     -20.596  -4.073  -9.713  1.00  0.00     0.017 A 
HETATM   24  C   UNL     1     -20.460  -3.968 -11.098  1.00  0.00     0.001 A 
HETATM   25  C   UNL     1     -21.579  -4.093 -11.917  1.00  0.00     0.000 A 
HETATM   26  C   UNL     1     -22.841  -4.310 -11.357  1.00  0.00     0.001 A 
HETATM   27  C   UNL     1     -22.985  -4.378  -9.974  1.00  0.00     0.017 A 
ENDBRANCH  20  22
ENDBRANCH  19  20
ENDBRANCH  18  19
ENDBRANCH  17  18
ENDBRANCH  16  17
ENDBRANCH  15  16
ENDBRANCH   1  15
TORSDOF 19
ENDMDL
MODEL 8
REMARK VINA RESULT:      -5.9     16.783     19.689
REMARK  19 active torsions:
REMARK  status: ('A' for Active; 'I' for Inactive)
REMARK    1  A    between atoms: C_2  and  C_3 
REMARK    2  A    between atoms: C_3  and  C_4 
REMARK    3  A    between atoms: C_4  and  C_5 
REMARK    4  A    between atoms: C_5  and  C_6 
REMARK    5  A    between atoms: C_6  and  C_7 
REMARK    6  A    between atoms: C_7  and  C_8 
REMARK    7  A    between atoms: C_8  and  C_9 
REMARK    8  A    between atoms: C_9  and  C_10 
REMARK    9  A    between atoms: C_10  and  C_11 
REMARK   10  A    between atoms: C_11  and  C_12 
REMARK   11  A    between atoms: C_12  and  O_13 
REMARK   12  A    between atoms: O_13  and  C_14 
REMARK   13  A    between atoms: C_14  and  C_15 
REMARK   14  A    between atoms: C_15  and  O_16 
REMARK   15  A    between atoms: O_16  and  C_17 
REMARK   16  A    between atoms: C_17  and  C_18 
REMARK   17  A    between atoms: C_18  and  O_19 
REMARK   18  A    between atoms: O_19  and  C_20 
REMARK   19  A    between atoms: C_20  and  C_22 
ROOT
HETATM    1  C   UNL     1     -19.402   9.233   4.829  1.00  0.00     0.193 C 
ENDROOT
BRANCH   1   2
HETATM    2  O   UNL     1     -20.745   9.321   5.291  1.00  0.00    -0.389 OA
BRANCH   2   3
HETATM    3  C   UNL     1     -21.635   9.466   4.192  1.00  0.00     0.167 C 
BRANCH   3   4
HETATM    4  C   UNL     1     -20.939   9.006   2.922  1.00  0.00     0.026 C 
BRANCH   4   5
HETATM    5  C   UNL     1     -21.971   8.765   1.832  1.00  0.00     0.002 C 
BRANCH   5   6
HETATM    6  C   UNL     1     -23.198   9.634   2.056  1.00  0.00     0.000 C 
BRANCH   6   7
HETATM    7  C   UNL     1     -24.081   9.619   0.819  1.00  0.00     0.000 C 
BRANCH   7   8
HETATM    8  C   UNL     1     -25.310   8.764   1.068  1.00  0.00     0.000 C 
BRANCH   8   9
HETATM    9  C   UNL     1     -25.643   7.957  -0.175  1.00  0.00     0.000 C 
BRANCH   9  10
HETATM   10  C   UNL     1     -24.369   7.424  -0.808  1.00  0.00     0.000 C 
BRANCH  10  11
HETATM   11  C   UNL     1     -24.671   6.837  -2.175  1.00  0.00     0.000 C 
BRANCH  11  12
HETATM   12  C   UNL     1     -23.938   7.618  -3.257  1.00  0.00    -0.000 C 
BRANCH  12  13
HETATM   13  C   UNL     1     -22.537   7.983  -2.796  1.00  0.00    -0.005 C 
HETATM   14  C   UNL     1     -21.675   8.382  -3.981  1.00  0.00     0.005 C 
ENDBRANCH  12  13
ENDBRANCH  11  12
ENDBRANCH  10  11
ENDBRANCH   9  10
ENDBRANCH   8   9
ENDBRANCH   7   8
ENDBRANCH   6   7
ENDBRANCH   5   6
ENDBRANCH   4   5
ENDBRANCH   3   4
ENDBRANCH   2   3
ENDBRANCH   1   2
BRANCH   1  15
HETATM   15  C   UNL     1     -18.464   9.440   6.004  1.00  0.00     0.193 C 
BRANCH  15  16
HETATM   16  O   UNL     1     -17.209   9.923   5.525  1.00  0.00    -0.387 OA
BRANCH  16  17
HETATM   17  C   UNL     1     -16.345  10.279   6.610  1.00  0.00     0.194 C 
BRANCH  17  18
HETATM   18  C   UNL     1     -15.416   9.117   6.953  1.00  0.00     0.205 C 
BRANCH  18  19
HETATM   19  O   UNL     1     -14.990   8.410   5.773  1.00  0.00    -0.315 OA
BRANCH  19  20
HETATM   20  C   UNL     1     -13.820   8.833   5.236  1.00  0.00     0.293 C 
HETATM   21  O   UNL     1     -12.825   9.161   5.863  1.00  0.00    -0.259 OA
BRANCH  20  22
HETATM   22  C   UNL     1     -13.897   8.823   3.749  1.00  0.00     0.039 A 
HETATM   23  C   UNL     1     -14.778   7.928   3.124  1.00  0.00     0.017 A 
HETATM   24  C   UNL     1     -14.906   7.924   1.733  1.00  0.00     0.001 A 
HETATM   25  C   UNL     1     -14.175   8.828   0.967  1.00  0.00     0.000 A 
HETATM   26  C   UNL     1     -13.305   9.731   1.582  1.00  0.00     0.001 A 
HETATM   27  C   UNL     1     -13.148   9.714   2.965  1.00  0.00     0.017 A 
ENDBRANCH  20  22
ENDBRANCH  19  20
ENDBRANCH  18  19
ENDBRANCH  17  18
ENDBRANCH  16  17
ENDBRANCH  15  16
ENDBRANCH   1  15
TORSDOF 19
ENDMDL
MODEL 9
REMARK VINA RESULT:      -5.9      2.480      9.635
REMARK  19 active torsions:
REMARK  status: ('A' for Active; 'I' for Inactive)
REMARK    1  A    between atoms: C_2  and  C_3 
REMARK    2  A    between atoms: C_3  and  C_4 
REMARK    3  A    between atoms: C_4  and  C_5 
REMARK    4  A    between atoms: C_5  and  C_6 
REMARK    5  A    between atoms: C_6  and  C_7 
REMARK    6  A    between atoms: C_7  and  C_8 
REMARK    7  A    between atoms: C_8  and  C_9 
REMARK    8  A    between atoms: C_9  and  C_10 
REMARK    9  A    between atoms: C_10  and  C_11 
REMARK   10  A    between atoms: C_11  and  C_12 
REMARK   11  A    between atoms: C_12  and  O_13 
REMARK   12  A    between atoms: O_13  and  C_14 
REMARK   13  A    between atoms: C_14  and  C_15 
REMARK   14  A    between atoms: C_15  and  O_16 
REMARK   15  A    between atoms: O_16  and  C_17 
REMARK   16  A    between atoms: C_17  and  C_18 
REMARK   17  A    between atoms: C_18  and  O_19 
REMARK   18  A    between atoms: O_19  and  C_20 
REMARK   19  A    between atoms: C_20  and  C_22 
ROOT
HETATM    1  C   UNL     1     -22.030  -6.838  -3.548  1.00  0.00     0.193 C 
ENDROOT
BRANCH   1   2
HETATM    2  O   UNL     1     -21.590  -5.711  -4.296  1.00  0.00    -0.389 OA
BRANCH   2   3
HETATM    3  C   UNL     1     -21.482  -6.045  -5.674  1.00  0.00     0.167 C 
BRANCH   3   4
HETATM    4  C   UNL     1     -20.014  -6.094  -6.061  1.00  0.00     0.026 C 
BRANCH   4   5
HETATM    5  C   UNL     1     -19.753  -5.121  -7.200  1.00  0.00     0.002 C 
BRANCH   5   6
HETATM    6  C   UNL     1     -20.952  -4.211  -7.411  1.00  0.00     0.000 C 
BRANCH   6   7
HETATM    7  C   UNL     1     -20.984  -3.714  -8.846  1.00  0.00     0.000 C 
BRANCH   7   8
HETATM    8  C   UNL     1     -20.226  -4.674  -9.746  1.00  0.00     0.000 C 
BRANCH   8   9
HETATM    9  C   UNL     1     -20.377  -4.255 -11.199  1.00  0.00     0.000 C 
BRANCH   9  10
HETATM   10  C   UNL     1     -21.266  -3.028 -11.297  1.00  0.00     0.000 C 
BRANCH  10  11
HETATM   11  C   UNL     1     -22.301  -3.219 -12.392  1.00  0.00     0.000 C 
BRANCH  11  12
HETATM   12  C   UNL     1     -23.694  -2.908 -11.861  1.00  0.00    -0.000 C 
BRANCH  12  13
HETATM   13  C   UNL     1     -24.135  -3.970 -10.868  1.00  0.00    -0.005 C 
HETATM   14  C   UNL     1     -24.645  -3.324  -9.592  1.00  0.00     0.005 C 
ENDBRANCH  12  13
ENDBRANCH  11  12
ENDBRANCH  10  11
ENDBRANCH   9  10
ENDBRANCH   8   9
ENDBRANCH   7   8
ENDBRANCH   6   7
ENDBRANCH   5   6
ENDBRANCH   4   5
ENDBRANCH   3   4
ENDBRANCH   2   3
ENDBRANCH   1   2
BRANCH   1  15
HETATM   15  C   UNL     1     -20.874  -7.352  -2.708  1.00  0.00     0.193 C 
BRANCH  15  16
HETATM   16  O   UNL     1     -20.571  -8.692  -3.095  1.00  0.00    -0.387 OA
BRANCH  16  17
HETATM   17  C   UNL     1     -21.545  -9.195  -4.017  1.00  0.00     0.194 C 
BRANCH  17  18
HETATM   18  C   UNL     1     -20.861  -9.972  -5.140  1.00  0.00     0.205 C 
BRANCH  18  19
HETATM   19  O   UNL     1     -19.590  -9.393  -5.490  1.00  0.00    -0.315 OA
BRANCH  19  20
HETATM   20  C   UNL     1     -18.584 -10.279  -5.686  1.00  0.00     0.293 C 
HETATM   21  O   UNL     1     -18.325 -10.843  -6.737  1.00  0.00    -0.259 OA
BRANCH  20  22
HETATM   22  C   UNL     1     -17.803 -10.464  -4.431  1.00  0.00     0.039 A 
HETATM   23  C   UNL     1     -17.939 -11.667  -3.721  1.00  0.00     0.017 A 
HETATM   24  C   UNL     1     -17.189 -11.888  -2.564  1.00  0.00     0.001 A 
HETATM   25  C   UNL     1     -16.284 -10.923  -2.129  1.00  0.00     0.000 A 
HETATM   26  C   UNL     1     -16.133  -9.728  -2.837  1.00  0.00     0.001 A 
HETATM   27  C   UNL     1     -16.906  -9.488  -3.970  1.00  0.00     0.017 A 
ENDBRANCH  20  22
ENDBRANCH  19  20
ENDBRANCH  18  19
ENDBRANCH  17  18
ENDBRANCH  16  17
ENDBRANCH  15  16
ENDBRANCH   1  15
TORSDOF 19
ENDMDL
