MODEL 1
REMARK VINA RESULT:      -5.0      0.000      0.000
REMARK  6 active torsions:
REMARK  status: ('A' for Active; 'I' for Inactive)
REMARK    1  A    between atoms: C_2  and  C_3 
REMARK    2  A    between atoms: C_3  and  C_4 
REMARK    3  A    between atoms: C_4  and  C_5 
REMARK    4  A    between atoms: C_5  and  C_6 
REMARK    5  A    between atoms: C_5  and  O_8 
REMARK    6  A    between atoms: C_6  and  O_7 
ROOT
HETATM    1  C   UNL     1     -34.048  -6.063 -11.060  1.00  0.00     0.141 C 
ENDROOT
BRANCH   1   2
HETATM    2  C   UNL     1     -34.063  -4.633 -10.512  1.00  0.00     0.034 C 
BRANCH   2   3
HETATM    3  C   UNL     1     -33.150  -3.679 -11.283  1.00  0.00     0.002 C 
BRANCH   3   4
HETATM    4  C   UNL     1     -33.385  -2.222 -10.882  1.00  0.00    -0.004 C 
HETATM    5  C   UNL     1     -34.533  -1.615 -11.671  1.00  0.00     0.005 C 
ENDBRANCH   3   4
ENDBRANCH   2   3
ENDBRANCH   1   2
BRANCH   1   6
HETATM    6  C   UNL     1     -34.704  -7.092 -10.130  1.00  0.00     0.195 C 
BRANCH   6   7
HETATM    7  O   UNL     1     -34.868  -8.331 -10.819  1.00  0.00    -0.398 OA
HETATM    8  H   UNL     1     -35.833  -8.490 -10.853  1.00  0.00     0.209 HD
ENDBRANCH   6   7
ENDBRANCH   1   6
BRANCH   1   9
HETATM    9  O   UNL     1     -34.750  -6.092 -12.314  1.00  0.00    -0.393 OA
HETATM   10  H   UNL     1     -34.142  -5.771 -13.004  1.00  0.00     0.210 HD
ENDBRANCH   1   9
TORSDOF 6
ENDMDL
MODEL 2
REMARK VINA RESULT:      -4.9     11.194     12.104
REMARK  6 active torsions:
REMARK  status: ('A' for Active; 'I' for Inactive)
REMARK    1  A    between atoms: C_2  and  C_3 
REMARK    2  A    between atoms: C_3  and  C_4 
REMARK    3  A    between atoms: C_4  and  C_5 
REMARK    4  A    between atoms: C_5  and  C_6 
REMARK    5  A    between atoms: C_5  and  O_8 
REMARK    6  A    between atoms: C_6  and  O_7 
ROOT
HETATM    1  C   UNL     1     -23.770  -2.674 -13.796  1.00  0.00     0.141 C 
ENDROOT
BRANCH   1   2
HETATM    2  C   UNL     1     -22.632  -2.835 -12.783  1.00  0.00     0.034 C 
BRANCH   2   3
HETATM    3  C   UNL     1     -23.120  -3.142 -11.367  1.00  0.00     0.002 C 
BRANCH   3   4
HETATM    4  C   UNL     1     -22.047  -3.848 -10.538  1.00  0.00    -0.004 C 
HETATM    5  C   UNL     1     -20.700  -3.814 -11.243  1.00  0.00     0.005 C 
ENDBRANCH   3   4
ENDBRANCH   2   3
ENDBRANCH   1   2
BRANCH   1   6
HETATM    6  C   UNL     1     -23.640  -1.430 -14.685  1.00  0.00     0.195 C 
BRANCH   6   7
HETATM    7  O   UNL     1     -24.832  -0.652 -14.604  1.00  0.00    -0.398 OA
HETATM    8  H   UNL     1     -24.560   0.214 -14.237  1.00  0.00     0.209 HD
ENDBRANCH   6   7
ENDBRANCH   1   6
BRANCH   1   9
HETATM    9  O   UNL     1     -23.801  -3.827 -14.653  1.00  0.00    -0.393 OA
HETATM   10  H   UNL     1     -24.733  -4.025 -14.855  1.00  0.00     0.210 HD
ENDBRANCH   1   9
TORSDOF 6
ENDMDL
MODEL 3
REMARK VINA RESULT:      -4.8     10.695     11.562
REMARK  6 active torsions:
REMARK  status: ('A' for Active; 'I' for Inactive)
REMARK    1  A    between atoms: C_2  and  C_3 
REMARK    2  A    between atoms: C_3  and  C_4 
REMARK    3  A    between atoms: C_4  and  C_5 
REMARK    4  A    between atoms: C_5  and  C_6 
REMARK    5  A    between atoms: C_5  and  O_8 
REMARK    6  A    between atoms: C_6  and  O_7 
ROOT
HETATM    1  C   UNL     1     -24.099  -3.591 -11.214  1.00  0.00     0.141 C 
ENDROOT
BRANCH   1   2
HETATM    2  C   UNL     1     -22.735  -2.978 -11.546  1.00  0.00     0.034 C 
BRANCH   2   3
HETATM    3  C   UNL     1     -21.663  -4.022 -11.861  1.00  0.00     0.002 C 
BRANCH   3   4
HETATM    4  C   UNL     1     -20.430  -3.853 -10.973  1.00  0.00    -0.004 C 
HETATM    5  C   UNL     1     -20.716  -4.297  -9.547  1.00  0.00     0.005 C 
ENDBRANCH   3   4
ENDBRANCH   2   3
ENDBRANCH   1   2
BRANCH   1   6
HETATM    6  C   UNL     1     -24.535  -3.385  -9.757  1.00  0.00     0.195 C 
BRANCH   6   7
HETATM    7  O   UNL     1     -25.953  -3.240  -9.693  1.00  0.00    -0.398 OA
HETATM    8  H   UNL     1     -26.264  -3.942  -9.086  1.00  0.00     0.209 HD
ENDBRANCH   6   7
ENDBRANCH   1   6
BRANCH   1   9
HETATM    9  O   UNL     1     -25.098  -2.999 -12.060  1.00  0.00    -0.393 OA
HETATM   10  H   UNL     1     -25.971  -3.286 -11.739  1.00  0.00     0.210 HD
ENDBRANCH   1   9
TORSDOF 6
ENDMDL
MODEL 4
REMARK VINA RESULT:      -4.7     13.203     14.397
REMARK  6 active torsions:
REMARK  status: ('A' for Active; 'I' for Inactive)
REMARK    1  A    between atoms: C_2  and  C_3 
REMARK    2  A    between atoms: C_3  and  C_4 
REMARK    3  A    between atoms: C_4  and  C_5 
REMARK    4  A    between atoms: C_5  and  C_6 
REMARK    5  A    between atoms: C_5  and  O_8 
REMARK    6  A    between atoms: C_6  and  O_7 
ROOT
HETATM    1  C   UNL     1     -30.015 -15.125 -21.574  1.00  0.00     0.141 C 
ENDROOT
BRANCH   1   2
HETATM    2  C   UNL     1     -29.961 -15.483 -20.086  1.00  0.00     0.034 C 
BRANCH   2   3
HETATM    3  C   UNL     1     -30.431 -14.351 -19.172  1.00  0.00     0.002 C 
BRANCH   3   4
HETATM    4  C   UNL     1     -29.887 -14.506 -17.752  1.00  0.00    -0.004 C 
HETATM    5  C   UNL     1     -28.568 -15.263 -17.750  1.00  0.00     0.005 C 
ENDBRANCH   3   4
ENDBRANCH   2   3
ENDBRANCH   1   2
BRANCH   1   6
HETATM    6  C   UNL     1     -31.437 -15.059 -22.146  1.00  0.00     0.195 C 
BRANCH   6   7
HETATM    7  O   UNL     1     -31.772 -13.707 -22.453  1.00  0.00    -0.398 OA
HETATM    8  H   UNL     1     -31.850 -13.667 -23.428  1.00  0.00     0.209 HD
ENDBRANCH   6   7
ENDBRANCH   1   6
BRANCH   1   9
HETATM    9  O   UNL     1     -29.401 -13.840 -21.769  1.00  0.00    -0.393 OA
HETATM   10  H   UNL     1     -29.395 -13.378 -20.912  1.00  0.00     0.210 HD
ENDBRANCH   1   9
TORSDOF 6
ENDMDL
MODEL 5
REMARK VINA RESULT:      -4.7     11.446     12.503
REMARK  6 active torsions:
REMARK  status: ('A' for Active; 'I' for Inactive)
REMARK    1  A    between atoms: C_2  and  C_3 
REMARK    2  A    between atoms: C_3  and  C_4 
REMARK    3  A    between atoms: C_4  and  C_5 
REMARK    4  A    between atoms: C_5  and  C_6 
REMARK    5  A    between atoms: C_5  and  O_8 
REMARK    6  A    between atoms: C_6  and  O_7 
ROOT
HETATM    1  C   UNL     1     -23.656  -2.784 -13.402  1.00  0.00     0.141 C 
ENDROOT
BRANCH   1   2
HETATM    2  C   UNL     1     -22.691  -2.749 -12.213  1.00  0.00     0.034 C 
BRANCH   2   3
HETATM    3  C   UNL     1     -22.084  -4.114 -11.885  1.00  0.00     0.002 C 
BRANCH   3   4
HETATM    4  C   UNL     1     -20.707  -3.980 -11.235  1.00  0.00    -0.004 C 
HETATM    5  C   UNL     1     -20.798  -4.120  -9.724  1.00  0.00     0.005 C 
ENDBRANCH   3   4
ENDBRANCH   2   3
ENDBRANCH   1   2
BRANCH   1   6
HETATM    6  C   UNL     1     -23.058  -2.236 -14.705  1.00  0.00     0.195 C 
BRANCH   6   7
HETATM    7  O   UNL     1     -22.270  -3.243 -15.336  1.00  0.00    -0.398 OA
HETATM    8  H   UNL     1     -21.342  -3.039 -15.104  1.00  0.00     0.209 HD
ENDBRANCH   6   7
ENDBRANCH   1   6
BRANCH   1   9
HETATM    9  O   UNL     1     -24.058  -4.143 -13.640  1.00  0.00    -0.393 OA
HETATM   10  H   UNL     1     -24.899  -4.125 -14.131  1.00  0.00     0.210 HD
ENDBRANCH   1   9
TORSDOF 6
ENDMDL
MODEL 6
REMARK VINA RESULT:      -4.3     10.847     11.859
REMARK  6 active torsions:
REMARK  status: ('A' for Active; 'I' for Inactive)
REMARK    1  A    between atoms: C_2  and  C_3 
REMARK    2  A    between atoms: C_3  and  C_4 
REMARK    3  A    between atoms: C_4  and  C_5 
REMARK    4  A    between atoms: C_5  and  C_6 
REMARK    5  A    between atoms: C_5  and  O_8 
REMARK    6  A    between atoms: C_6  and  O_7 
ROOT
HETATM    1  C   UNL     1     -22.853  -3.538 -12.697  1.00  0.00     0.141 C 
ENDROOT
BRANCH   1   2
HETATM    2  C   UNL     1     -23.307  -2.821 -11.422  1.00  0.00     0.034 C 
BRANCH   2   3
HETATM    3  C   UNL     1     -24.104  -3.719 -10.474  1.00  0.00     0.002 C 
BRANCH   3   4
HETATM    4  C   UNL     1     -23.193  -4.663  -9.690  1.00  0.00    -0.004 C 
HETATM    5  C   UNL     1     -22.257  -3.889  -8.775  1.00  0.00     0.005 C 
ENDBRANCH   3   4
ENDBRANCH   2   3
ENDBRANCH   1   2
BRANCH   1   6
HETATM    6  C   UNL     1     -23.164  -2.768 -13.988  1.00  0.00     0.195 C 
BRANCH   6   7
HETATM    7  O   UNL     1     -23.722  -3.654 -14.956  1.00  0.00    -0.398 OA
HETATM    8  H   UNL     1     -24.666  -3.407 -15.030  1.00  0.00     0.209 HD
ENDBRANCH   6   7
ENDBRANCH   1   6
BRANCH   1   9
HETATM    9  O   UNL     1     -21.431  -3.742 -12.639  1.00  0.00    -0.393 OA
HETATM   10  H   UNL     1     -21.210  -4.479 -13.236  1.00  0.00     0.210 HD
ENDBRANCH   1   9
TORSDOF 6
ENDMDL
MODEL 7
REMARK VINA RESULT:      -4.3      2.342      4.332
REMARK  6 active torsions:
REMARK  status: ('A' for Active; 'I' for Inactive)
REMARK    1  A    between atoms: C_2  and  C_3 
REMARK    2  A    between atoms: C_3  and  C_4 
REMARK    3  A    between atoms: C_4  and  C_5 
REMARK    4  A    between atoms: C_5  and  C_6 
REMARK    5  A    between atoms: C_5  and  O_8 
REMARK    6  A    between atoms: C_6  and  O_7 
ROOT
HETATM    1  C   UNL     1     -34.330  -3.251 -12.078  1.00  0.00     0.141 C 
ENDROOT
BRANCH   1   2
HETATM    2  C   UNL     1     -35.104  -4.443 -11.506  1.00  0.00     0.034 C 
BRANCH   2   3
HETATM    3  C   UNL     1     -34.368  -5.155 -10.371  1.00  0.00     0.002 C 
BRANCH   3   4
HETATM    4  C   UNL     1     -34.037  -6.603 -10.731  1.00  0.00    -0.004 C 
HETATM    5  C   UNL     1     -34.832  -7.577  -9.876  1.00  0.00     0.005 C 
ENDBRANCH   3   4
ENDBRANCH   2   3
ENDBRANCH   1   2
BRANCH   1   6
HETATM    6  C   UNL     1     -33.093  -2.862 -11.257  1.00  0.00     0.195 C 
BRANCH   6   7
HETATM    7  O   UNL     1     -33.390  -1.726 -10.446  1.00  0.00    -0.398 OA
HETATM    8  H   UNL     1     -33.305  -0.949 -11.035  1.00  0.00     0.209 HD
ENDBRANCH   6   7
ENDBRANCH   1   6
BRANCH   1   9
HETATM    9  O   UNL     1     -33.892  -3.571 -13.409  1.00  0.00    -0.393 OA
HETATM   10  H   UNL     1     -32.989  -3.928 -13.348  1.00  0.00     0.210 HD
ENDBRANCH   1   9
TORSDOF 6
ENDMDL
MODEL 8
REMARK VINA RESULT:      -4.2     11.017     11.951
REMARK  6 active torsions:
REMARK  status: ('A' for Active; 'I' for Inactive)
REMARK    1  A    between atoms: C_2  and  C_3 
REMARK    2  A    between atoms: C_3  and  C_4 
REMARK    3  A    between atoms: C_4  and  C_5 
REMARK    4  A    between atoms: C_5  and  C_6 
REMARK    5  A    between atoms: C_5  and  O_8 
REMARK    6  A    between atoms: C_6  and  O_7 
ROOT
HETATM    1  C   UNL     1     -24.154  -3.361 -10.297  1.00  0.00     0.141 C 
ENDROOT
BRANCH   1   2
HETATM    2  C   UNL     1     -22.962  -4.252  -9.935  1.00  0.00     0.034 C 
BRANCH   2   3
HETATM    3  C   UNL     1     -22.372  -3.946  -8.558  1.00  0.00     0.002 C 
BRANCH   3   4
HETATM    4  C   UNL     1     -21.175  -4.843  -8.242  1.00  0.00    -0.004 C 
HETATM    5  C   UNL     1     -19.879  -4.048  -8.243  1.00  0.00     0.005 C 
ENDBRANCH   3   4
ENDBRANCH   2   3
ENDBRANCH   1   2
BRANCH   1   6
HETATM    6  C   UNL     1     -24.377  -3.204 -11.807  1.00  0.00     0.195 C 
BRANCH   6   7
HETATM    7  O   UNL     1     -23.429  -2.282 -12.343  1.00  0.00    -0.398 OA
HETATM    8  H   UNL     1     -23.335  -1.577 -11.670  1.00  0.00     0.209 HD
ENDBRANCH   6   7
ENDBRANCH   1   6
BRANCH   1   9
HETATM    9  O   UNL     1     -25.349  -3.924  -9.732  1.00  0.00    -0.393 OA
HETATM   10  H   UNL     1     -25.108  -4.762  -9.297  1.00  0.00     0.210 HD
ENDBRANCH   1   9
TORSDOF 6
ENDMDL
MODEL 9
REMARK VINA RESULT:      -4.2     13.314     14.547
REMARK  6 active torsions:
REMARK  status: ('A' for Active; 'I' for Inactive)
REMARK    1  A    between atoms: C_2  and  C_3 
REMARK    2  A    between atoms: C_3  and  C_4 
REMARK    3  A    between atoms: C_4  and  C_5 
REMARK    4  A    between atoms: C_5  and  C_6 
REMARK    5  A    between atoms: C_5  and  O_8 
REMARK    6  A    between atoms: C_6  and  O_7 
ROOT
HETATM    1  C   UNL     1     -29.969 -14.709 -19.225  1.00  0.00     0.141 C 
ENDROOT
BRANCH   1   2
HETATM    2  C   UNL     1     -29.717 -14.932 -20.719  1.00  0.00     0.034 C 
BRANCH   2   3
HETATM    3  C   UNL     1     -30.234 -16.279 -21.226  1.00  0.00     0.002 C 
BRANCH   3   4
HETATM    4  C   UNL     1     -31.058 -16.125 -22.504  1.00  0.00    -0.004 C 
HETATM    5  C   UNL     1     -31.938 -14.886 -22.443  1.00  0.00     0.005 C 
ENDBRANCH   3   4
ENDBRANCH   2   3
ENDBRANCH   1   2
BRANCH   1   6
HETATM    6  C   UNL     1     -28.770 -14.114 -18.474  1.00  0.00     0.195 C 
BRANCH   6   7
HETATM    7  O   UNL     1     -28.266 -15.064 -17.538  1.00  0.00    -0.398 OA
HETATM    8  H   UNL     1     -27.511 -14.626 -17.095  1.00  0.00     0.209 HD
ENDBRANCH   6   7
ENDBRANCH   1   6
BRANCH   1   9
HETATM    9  O   UNL     1     -31.079 -13.810 -19.065  1.00  0.00    -0.393 OA
HETATM   10  H   UNL     1     -30.751 -13.005 -18.626  1.00  0.00     0.210 HD
ENDBRANCH   1   9
TORSDOF 6
ENDMDL
