MODEL 1
REMARK VINA RESULT:      -6.1      0.000      0.000
REMARK  16 active torsions:
REMARK  status: ('A' for Active; 'I' for Inactive)
REMARK    1  A    between atoms: C_2  and  C_3 
REMARK    2  A    between atoms: C_3  and  C_4 
REMARK    3  A    between atoms: C_4  and  C_5 
REMARK    4  A    between atoms: C_5  and  C_6 
REMARK    5  A    between atoms: C_6  and  C_7 
REMARK    6  A    between atoms: C_7  and  O_9 
REMARK    7  A    between atoms: O_9  and  C_10 
REMARK    8  A    between atoms: C_10  and  C_11 
REMARK    9  A    between atoms: C_11  and  C_14 
REMARK   10  A    between atoms: C_14  and  O_15 
REMARK   11  A    between atoms: O_15  and  C_16 
REMARK   12  A    between atoms: C_16  and  C_18 
REMARK   13  A    between atoms: C_18  and  C_19 
REMARK   14  A    between atoms: C_19  and  C_20 
REMARK   15  A    between atoms: C_20  and  C_21 
REMARK   16  A    between atoms: C_21  and  C_22 
ROOT
HETATM    1  C   UNL     1     -20.652  -9.088  -4.721  1.00  0.00    -0.004 C 
HETATM    2  C   UNL     1     -21.024 -10.550  -5.013  1.00  0.00     0.019 C 
HETATM    3  C   UNL     1     -19.163  -8.868  -5.052  1.00  0.00     0.019 C 
ENDROOT
BRANCH   1   4
HETATM    4  C   UNL     1     -21.520  -8.152  -5.588  1.00  0.00     0.189 C 
BRANCH   4   5
HETATM    5  O   UNL     1     -20.727  -7.095  -6.165  1.00  0.00    -0.321 OA
BRANCH   5   6
HETATM    6  C   UNL     1     -21.166  -5.831  -5.902  1.00  0.00     0.258 C 
HETATM    7  O   UNL     1     -22.331  -5.512  -5.705  1.00  0.00    -0.265 OA
BRANCH   6   8
HETATM    8  C   UNL     1     -20.014  -4.860  -5.851  1.00  0.00     0.111 C 
BRANCH   8   9
HETATM    9  C   UNL     1     -19.276  -4.812  -7.187  1.00  0.00     0.010 C 
BRANCH   9  10
HETATM   10  C   UNL     1     -19.934  -3.864  -8.193  1.00  0.00     0.000 C 
BRANCH  10  11
HETATM   11  C   UNL     1     -20.286  -4.605  -9.482  1.00  0.00    -0.000 C 
BRANCH  11  12
HETATM   12  C   UNL     1     -21.713  -4.305  -9.933  1.00  0.00    -0.005 C 
HETATM   13  C   UNL     1     -22.559  -3.794  -8.778  1.00  0.00     0.005 C 
ENDBRANCH  11  12
ENDBRANCH  10  11
ENDBRANCH   9  10
ENDBRANCH   8   9
ENDBRANCH   6   8
ENDBRANCH   5   6
ENDBRANCH   4   5
ENDBRANCH   1   4
BRANCH   1  14
HETATM   14  C   UNL     1     -20.888  -8.791  -3.225  1.00  0.00     0.189 C 
BRANCH  14  15
HETATM   15  O   UNL     1     -20.731  -7.402  -2.893  1.00  0.00    -0.321 OA
BRANCH  15  16
HETATM   16  C   UNL     1     -21.634  -6.901  -2.004  1.00  0.00     0.258 C 
HETATM   17  O   UNL     1     -22.470  -6.028  -2.249  1.00  0.00    -0.265 OA
BRANCH  16  18
HETATM   18  C   UNL     1     -21.596  -7.686  -0.722  1.00  0.00     0.111 C 
BRANCH  18  19
HETATM   19  C   UNL     1     -22.928  -7.594   0.033  1.00  0.00     0.010 C 
BRANCH  19  20
HETATM   20  C   UNL     1     -23.447  -8.956   0.510  1.00  0.00     0.000 C 
BRANCH  20  21
HETATM   21  C   UNL     1     -22.761 -10.094  -0.248  1.00  0.00    -0.000 C 
BRANCH  21  22
HETATM   22  C   UNL     1     -23.775 -10.999  -0.943  1.00  0.00    -0.005 C 
HETATM   23  C   UNL     1     -23.135 -11.758  -2.095  1.00  0.00     0.005 C 
ENDBRANCH  21  22
ENDBRANCH  20  21
ENDBRANCH  19  20
ENDBRANCH  18  19
ENDBRANCH  16  18
ENDBRANCH  15  16
ENDBRANCH  14  15
ENDBRANCH   1  14
TORSDOF 16
ENDMDL
MODEL 2
REMARK VINA RESULT:      -6.0      1.382      8.489
REMARK  16 active torsions:
REMARK  status: ('A' for Active; 'I' for Inactive)
REMARK    1  A    between atoms: C_2  and  C_3 
REMARK    2  A    between atoms: C_3  and  C_4 
REMARK    3  A    between atoms: C_4  and  C_5 
REMARK    4  A    between atoms: C_5  and  C_6 
REMARK    5  A    between atoms: C_6  and  C_7 
REMARK    6  A    between atoms: C_7  and  O_9 
REMARK    7  A    between atoms: O_9  and  C_10 
REMARK    8  A    between atoms: C_10  and  C_11 
REMARK    9  A    between atoms: C_11  and  C_14 
REMARK   10  A    between atoms: C_14  and  O_15 
REMARK   11  A    between atoms: O_15  and  C_16 
REMARK   12  A    between atoms: C_16  and  C_18 
REMARK   13  A    between atoms: C_18  and  C_19 
REMARK   14  A    between atoms: C_19  and  C_20 
REMARK   15  A    between atoms: C_20  and  C_21 
REMARK   16  A    between atoms: C_21  and  C_22 
ROOT
HETATM    1  C   UNL     1     -20.531  -8.319  -4.105  1.00  0.00    -0.004 C 
HETATM    2  C   UNL     1     -19.354  -8.975  -3.368  1.00  0.00     0.019 C 
HETATM    3  C   UNL     1     -21.533  -9.409  -4.531  1.00  0.00     0.019 C 
ENDROOT
BRANCH   1   4
HETATM    4  C   UNL     1     -21.228  -7.310  -3.168  1.00  0.00     0.189 C 
BRANCH   4   5
HETATM    5  O   UNL     1     -20.836  -7.519  -1.797  1.00  0.00    -0.321 OA
BRANCH   5   6
HETATM    6  C   UNL     1     -21.867  -7.659  -0.914  1.00  0.00     0.258 C 
HETATM    7  O   UNL     1     -22.736  -6.825  -0.701  1.00  0.00    -0.265 OA
BRANCH   6   8
HETATM    8  C   UNL     1     -21.820  -9.007  -0.241  1.00  0.00     0.111 C 
BRANCH   8   9
HETATM    9  C   UNL     1     -22.601 -10.048  -1.039  1.00  0.00     0.010 C 
BRANCH   9  10
HETATM   10  C   UNL     1     -23.704 -10.719  -0.217  1.00  0.00     0.000 C 
BRANCH  10  11
HETATM   11  C   UNL     1     -24.194 -11.991  -0.909  1.00  0.00    -0.000 C 
BRANCH  11  12
HETATM   12  C   UNL     1     -23.549 -13.241  -0.313  1.00  0.00    -0.005 C 
HETATM   13  C   UNL     1     -23.295 -13.072   1.176  1.00  0.00     0.005 C 
ENDBRANCH  11  12
ENDBRANCH  10  11
ENDBRANCH   9  10
ENDBRANCH   8   9
ENDBRANCH   6   8
ENDBRANCH   5   6
ENDBRANCH   4   5
ENDBRANCH   1   4
BRANCH   1  14
HETATM   14  C   UNL     1     -20.005  -7.595  -5.362  1.00  0.00     0.189 C 
BRANCH  14  15
HETATM   15  O   UNL     1     -21.045  -7.255  -6.295  1.00  0.00    -0.321 OA
BRANCH  15  16
HETATM   16  C   UNL     1     -21.096  -5.947  -6.672  1.00  0.00     0.258 C 
HETATM   17  O   UNL     1     -22.085  -5.215  -6.582  1.00  0.00    -0.265 OA
BRANCH  16  18
HETATM   18  C   UNL     1     -19.725  -5.458  -7.051  1.00  0.00     0.111 C 
BRANCH  18  19
HETATM   19  C   UNL     1     -19.800  -4.261  -8.007  1.00  0.00     0.010 C 
BRANCH  19  20
HETATM   20  C   UNL     1     -20.073  -4.665  -9.461  1.00  0.00     0.000 C 
BRANCH  20  21
HETATM   21  C   UNL     1     -21.367  -4.027  -9.967  1.00  0.00    -0.000 C 
BRANCH  21  22
HETATM   22  C   UNL     1     -21.367  -3.883 -11.487  1.00  0.00    -0.005 C 
HETATM   23  C   UNL     1     -22.337  -2.801 -11.937  1.00  0.00     0.005 C 
ENDBRANCH  21  22
ENDBRANCH  20  21
ENDBRANCH  19  20
ENDBRANCH  18  19
ENDBRANCH  16  18
ENDBRANCH  15  16
ENDBRANCH  14  15
ENDBRANCH   1  14
TORSDOF 16
ENDMDL
MODEL 3
REMARK VINA RESULT:      -6.0      1.646      2.567
REMARK  16 active torsions:
REMARK  status: ('A' for Active; 'I' for Inactive)
REMARK    1  A    between atoms: C_2  and  C_3 
REMARK    2  A    between atoms: C_3  and  C_4 
REMARK    3  A    between atoms: C_4  and  C_5 
REMARK    4  A    between atoms: C_5  and  C_6 
REMARK    5  A    between atoms: C_6  and  C_7 
REMARK    6  A    between atoms: C_7  and  O_9 
REMARK    7  A    between atoms: O_9  and  C_10 
REMARK    8  A    between atoms: C_10  and  C_11 
REMARK    9  A    between atoms: C_11  and  C_14 
REMARK   10  A    between atoms: C_14  and  O_15 
REMARK   11  A    between atoms: O_15  and  C_16 
REMARK   12  A    between atoms: C_16  and  C_18 
REMARK   13  A    between atoms: C_18  and  C_19 
REMARK   14  A    between atoms: C_19  and  C_20 
REMARK   15  A    between atoms: C_20  and  C_21 
REMARK   16  A    between atoms: C_21  and  C_22 
ROOT
HETATM    1  C   UNL     1     -21.361  -6.749  -4.986  1.00  0.00    -0.004 C 
HETATM    2  C   UNL     1     -22.744  -6.241  -5.419  1.00  0.00     0.019 C 
HETATM    3  C   UNL     1     -21.250  -8.252  -5.304  1.00  0.00     0.019 C 
ENDROOT
BRANCH   1   4
HETATM    4  C   UNL     1     -20.265  -5.975  -5.748  1.00  0.00     0.189 C 
BRANCH   4   5
HETATM    5  O   UNL     1     -20.422  -6.122  -7.174  1.00  0.00    -0.321 OA
BRANCH   5   6
HETATM    6  C   UNL     1     -20.099  -5.020  -7.910  1.00  0.00     0.258 C 
HETATM    7  O   UNL     1     -19.061  -4.381  -7.810  1.00  0.00    -0.265 OA
BRANCH   6   8
HETATM    8  C   UNL     1     -21.186  -4.697  -8.903  1.00  0.00     0.111 C 
BRANCH   8   9
HETATM    9  C   UNL     1     -20.597  -4.265 -10.242  1.00  0.00     0.010 C 
BRANCH   9  10
HETATM   10  C   UNL     1     -21.660  -4.103 -11.333  1.00  0.00     0.000 C 
BRANCH  10  11
HETATM   11  C   UNL     1     -23.030  -4.549 -10.821  1.00  0.00    -0.000 C 
BRANCH  11  12
HETATM   12  C   UNL     1     -24.053  -3.418 -10.892  1.00  0.00    -0.005 C 
HETATM   13  C   UNL     1     -24.370  -3.053 -12.333  1.00  0.00     0.005 C 
ENDBRANCH  11  12
ENDBRANCH  10  11
ENDBRANCH   9  10
ENDBRANCH   8   9
ENDBRANCH   6   8
ENDBRANCH   5   6
ENDBRANCH   4   5
ENDBRANCH   1   4
BRANCH   1  14
HETATM   14  C   UNL     1     -21.194  -6.538  -3.466  1.00  0.00     0.189 C 
BRANCH  14  15
HETATM   15  O   UNL     1     -21.628  -7.667  -2.689  1.00  0.00    -0.321 OA
BRANCH  15  16
HETATM   16  C   UNL     1     -21.864  -7.421  -1.370  1.00  0.00     0.258 C 
HETATM   17  O   UNL     1     -22.787  -6.735  -0.925  1.00  0.00    -0.265 OA
BRANCH  16  18
HETATM   18  C   UNL     1     -20.949  -8.250  -0.511  1.00  0.00     0.111 C 
BRANCH  18  19
HETATM   19  C   UNL     1     -21.733  -9.039   0.545  1.00  0.00     0.010 C 
BRANCH  19  20
HETATM   20  C   UNL     1     -22.014 -10.488   0.131  1.00  0.00     0.000 C 
BRANCH  20  21
HETATM   21  C   UNL     1     -23.516 -10.716  -0.056  1.00  0.00    -0.000 C 
BRANCH  21  22
HETATM   22  C   UNL     1     -23.840 -11.200  -1.467  1.00  0.00    -0.005 C 
HETATM   23  C   UNL     1     -22.629 -11.084  -2.381  1.00  0.00     0.005 C 
ENDBRANCH  21  22
ENDBRANCH  20  21
ENDBRANCH  19  20
ENDBRANCH  18  19
ENDBRANCH  16  18
ENDBRANCH  15  16
ENDBRANCH  14  15
ENDBRANCH   1  14
TORSDOF 16
ENDMDL
MODEL 4
REMARK VINA RESULT:      -6.0      2.010      3.961
REMARK  16 active torsions:
REMARK  status: ('A' for Active; 'I' for Inactive)
REMARK    1  A    between atoms: C_2  and  C_3 
REMARK    2  A    between atoms: C_3  and  C_4 
REMARK    3  A    between atoms: C_4  and  C_5 
REMARK    4  A    between atoms: C_5  and  C_6 
REMARK    5  A    between atoms: C_6  and  C_7 
REMARK    6  A    between atoms: C_7  and  O_9 
REMARK    7  A    between atoms: O_9  and  C_10 
REMARK    8  A    between atoms: C_10  and  C_11 
REMARK    9  A    between atoms: C_11  and  C_14 
REMARK   10  A    between atoms: C_14  and  O_15 
REMARK   11  A    between atoms: O_15  and  C_16 
REMARK   12  A    between atoms: C_16  and  C_18 
REMARK   13  A    between atoms: C_18  and  C_19 
REMARK   14  A    between atoms: C_19  and  C_20 
REMARK   15  A    between atoms: C_20  and  C_21 
REMARK   16  A    between atoms: C_21  and  C_22 
ROOT
HETATM    1  C   UNL     1     -20.965  -6.130  -5.723  1.00  0.00    -0.004 C 
HETATM    2  C   UNL     1     -20.307  -4.899  -5.081  1.00  0.00     0.019 C 
HETATM    3  C   UNL     1     -22.239  -6.492  -4.936  1.00  0.00     0.019 C 
ENDROOT
BRANCH   1   4
HETATM    4  C   UNL     1     -21.333  -5.813  -7.188  1.00  0.00     0.189 C 
BRANCH   4   5
HETATM    5  O   UNL     1     -22.392  -4.837  -7.258  1.00  0.00    -0.321 OA
BRANCH   5   6
HETATM    6  C   UNL     1     -22.535  -4.221  -8.466  1.00  0.00     0.258 C 
HETATM    7  O   UNL     1     -23.595  -3.851  -8.952  1.00  0.00    -0.265 OA
BRANCH   6   8
HETATM    8  C   UNL     1     -21.196  -4.021  -9.130  1.00  0.00     0.111 C 
BRANCH   8   9
HETATM    9  C   UNL     1     -21.211  -4.540 -10.565  1.00  0.00     0.010 C 
BRANCH   9  10
HETATM   10  C   UNL     1     -20.867  -3.456 -11.591  1.00  0.00     0.000 C 
BRANCH  10  11
HETATM   11  C   UNL     1     -22.065  -2.535 -11.825  1.00  0.00    -0.000 C 
BRANCH  11  12
HETATM   12  C   UNL     1     -22.995  -3.085 -12.904  1.00  0.00    -0.005 C 
HETATM   13  C   UNL     1     -24.445  -3.056 -12.447  1.00  0.00     0.005 C 
ENDBRANCH  11  12
ENDBRANCH  10  11
ENDBRANCH   9  10
ENDBRANCH   8   9
ENDBRANCH   6   8
ENDBRANCH   5   6
ENDBRANCH   4   5
ENDBRANCH   1   4
BRANCH   1  14
HETATM   14  C   UNL     1     -19.983  -7.318  -5.672  1.00  0.00     0.189 C 
BRANCH  14  15
HETATM   15  O   UNL     1     -20.642  -8.593  -5.593  1.00  0.00    -0.321 OA
BRANCH  15  16
HETATM   16  C   UNL     1     -19.918  -9.599  -5.024  1.00  0.00     0.258 C 
HETATM   17  O   UNL     1     -19.840 -10.753  -5.451  1.00  0.00    -0.265 OA
BRANCH  16  18
HETATM   18  C   UNL     1     -19.077  -9.064  -3.898  1.00  0.00     0.111 C 
BRANCH  18  19
HETATM   19  C   UNL     1     -19.782  -9.226  -2.545  1.00  0.00     0.010 C 
BRANCH  19  20
HETATM   20  C   UNL     1     -20.303  -7.902  -1.973  1.00  0.00     0.000 C 
BRANCH  20  21
HETATM   21  C   UNL     1     -21.822  -7.948  -1.798  1.00  0.00    -0.000 C 
BRANCH  21  22
HETATM   22  C   UNL     1     -22.271  -7.167  -0.566  1.00  0.00    -0.005 C 
HETATM   23  C   UNL     1     -22.527  -8.096   0.611  1.00  0.00     0.005 C 
ENDBRANCH  21  22
ENDBRANCH  20  21
ENDBRANCH  19  20
ENDBRANCH  18  19
ENDBRANCH  16  18
ENDBRANCH  15  16
ENDBRANCH  14  15
ENDBRANCH   1  14
TORSDOF 16
ENDMDL
MODEL 5
REMARK VINA RESULT:      -5.9      2.283      3.829
REMARK  16 active torsions:
REMARK  status: ('A' for Active; 'I' for Inactive)
REMARK    1  A    between atoms: C_2  and  C_3 
REMARK    2  A    between atoms: C_3  and  C_4 
REMARK    3  A    between atoms: C_4  and  C_5 
REMARK    4  A    between atoms: C_5  and  C_6 
REMARK    5  A    between atoms: C_6  and  C_7 
REMARK    6  A    between atoms: C_7  and  O_9 
REMARK    7  A    between atoms: O_9  and  C_10 
REMARK    8  A    between atoms: C_10  and  C_11 
REMARK    9  A    between atoms: C_11  and  C_14 
REMARK   10  A    between atoms: C_14  and  O_15 
REMARK   11  A    between atoms: O_15  and  C_16 
REMARK   12  A    between atoms: C_16  and  C_18 
REMARK   13  A    between atoms: C_18  and  C_19 
REMARK   14  A    between atoms: C_19  and  C_20 
REMARK   15  A    between atoms: C_20  and  C_21 
REMARK   16  A    between atoms: C_21  and  C_22 
ROOT
HETATM    1  C   UNL     1     -20.779  -5.840  -6.240  1.00  0.00    -0.004 C 
HETATM    2  C   UNL     1     -19.729  -6.955  -6.130  1.00  0.00     0.019 C 
HETATM    3  C   UNL     1     -20.185  -4.527  -5.695  1.00  0.00     0.019 C 
ENDROOT
BRANCH   1   4
HETATM    4  C   UNL     1     -21.180  -5.653  -7.719  1.00  0.00     0.189 C 
BRANCH   4   5
HETATM    5  O   UNL     1     -21.670  -4.319  -7.959  1.00  0.00    -0.321 OA
BRANCH   5   6
HETATM    6  C   UNL     1     -22.791  -4.243  -8.733  1.00  0.00     0.258 C 
HETATM    7  O   UNL     1     -23.918  -3.997  -8.325  1.00  0.00    -0.265 OA
BRANCH   6   8
HETATM    8  C   UNL     1     -22.460  -4.473 -10.185  1.00  0.00     0.111 C 
BRANCH   8   9
HETATM    9  C   UNL     1     -23.725  -4.514 -11.038  1.00  0.00     0.010 C 
BRANCH   9  10
HETATM   10  C   UNL     1     -23.844  -3.312 -11.979  1.00  0.00     0.000 C 
BRANCH  10  11
HETATM   11  C   UNL     1     -22.560  -3.132 -12.788  1.00  0.00    -0.000 C 
BRANCH  11  12
HETATM   12  C   UNL     1     -22.856  -2.846 -14.259  1.00  0.00    -0.005 C 
HETATM   13  C   UNL     1     -23.848  -1.704 -14.408  1.00  0.00     0.005 C 
ENDBRANCH  11  12
ENDBRANCH  10  11
ENDBRANCH   9  10
ENDBRANCH   8   9
ENDBRANCH   6   8
ENDBRANCH   5   6
ENDBRANCH   4   5
ENDBRANCH   1   4
BRANCH   1  14
HETATM   14  C   UNL     1     -22.017  -6.222  -5.403  1.00  0.00     0.189 C 
BRANCH  14  15
HETATM   15  O   UNL     1     -21.749  -7.250  -4.434  1.00  0.00    -0.321 OA
BRANCH  15  16
HETATM   16  C   UNL     1     -21.759  -6.852  -3.131  1.00  0.00     0.258 C 
HETATM   17  O   UNL     1     -22.447  -5.940  -2.667  1.00  0.00    -0.265 OA
BRANCH  16  18
HETATM   18  C   UNL     1     -20.945  -7.797  -2.290  1.00  0.00     0.111 C 
BRANCH  18  19
HETATM   19  C   UNL     1     -21.539  -9.211  -2.301  1.00  0.00     0.010 C 
BRANCH  19  20
HETATM   20  C   UNL     1     -21.602  -9.851  -0.909  1.00  0.00     0.000 C 
BRANCH  20  21
HETATM   21  C   UNL     1     -22.992  -9.676  -0.294  1.00  0.00    -0.000 C 
BRANCH  21  22
HETATM   22  C   UNL     1     -23.108  -8.360   0.472  1.00  0.00    -0.005 C 
HETATM   23  C   UNL     1     -21.869  -8.104   1.316  1.00  0.00     0.005 C 
ENDBRANCH  21  22
ENDBRANCH  20  21
ENDBRANCH  19  20
ENDBRANCH  18  19
ENDBRANCH  16  18
ENDBRANCH  15  16
ENDBRANCH  14  15
ENDBRANCH   1  14
TORSDOF 16
ENDMDL
MODEL 6
REMARK VINA RESULT:      -5.7      1.670      2.435
REMARK  16 active torsions:
REMARK  status: ('A' for Active; 'I' for Inactive)
REMARK    1  A    between atoms: C_2  and  C_3 
REMARK    2  A    between atoms: C_3  and  C_4 
REMARK    3  A    between atoms: C_4  and  C_5 
REMARK    4  A    between atoms: C_5  and  C_6 
REMARK    5  A    between atoms: C_6  and  C_7 
REMARK    6  A    between atoms: C_7  and  O_9 
REMARK    7  A    between atoms: O_9  and  C_10 
REMARK    8  A    between atoms: C_10  and  C_11 
REMARK    9  A    between atoms: C_11  and  C_14 
REMARK   10  A    between atoms: C_14  and  O_15 
REMARK   11  A    between atoms: O_15  and  C_16 
REMARK   12  A    between atoms: C_16  and  C_18 
REMARK   13  A    between atoms: C_18  and  C_19 
REMARK   14  A    between atoms: C_19  and  C_20 
REMARK   15  A    between atoms: C_20  and  C_21 
REMARK   16  A    between atoms: C_21  and  C_22 
ROOT
HETATM    1  C   UNL     1     -20.638  -8.611  -3.510  1.00  0.00    -0.004 C 
HETATM    2  C   UNL     1     -21.021  -7.427  -2.610  1.00  0.00     0.019 C 
HETATM    3  C   UNL     1     -21.896  -9.451  -3.806  1.00  0.00     0.019 C 
ENDROOT
BRANCH   1   4
HETATM    4  C   UNL     1     -20.044  -8.083  -4.833  1.00  0.00     0.189 C 
BRANCH   4   5
HETATM    5  O   UNL     1     -21.085  -7.756  -5.775  1.00  0.00    -0.321 OA
BRANCH   5   6
HETATM    6  C   UNL     1     -21.253  -6.424  -6.015  1.00  0.00     0.258 C 
HETATM    7  O   UNL     1     -22.240  -5.769  -5.710  1.00  0.00    -0.265 OA
BRANCH   6   8
HETATM    8  C   UNL     1     -20.038  -5.840  -6.689  1.00  0.00     0.111 C 
BRANCH   8   9
HETATM    9  C   UNL     1     -20.233  -4.355  -6.982  1.00  0.00     0.010 C 
BRANCH   9  10
HETATM   10  C   UNL     1     -20.295  -4.050  -8.481  1.00  0.00     0.000 C 
BRANCH  10  11
HETATM   11  C   UNL     1     -21.722  -4.210  -9.005  1.00  0.00    -0.000 C 
BRANCH  11  12
HETATM   12  C   UNL     1     -21.848  -3.734 -10.451  1.00  0.00    -0.005 C 
HETATM   13  C   UNL     1     -20.526  -3.864 -11.190  1.00  0.00     0.005 C 
ENDBRANCH  11  12
ENDBRANCH  10  11
ENDBRANCH   9  10
ENDBRANCH   8   9
ENDBRANCH   6   8
ENDBRANCH   5   6
ENDBRANCH   4   5
ENDBRANCH   1   4
BRANCH   1  14
HETATM   14  C   UNL     1     -19.602  -9.490  -2.780  1.00  0.00     0.189 C 
BRANCH  14  15
HETATM   15  O   UNL     1     -19.856  -9.611  -1.371  1.00  0.00    -0.321 OA
BRANCH  15  16
HETATM   16  C   UNL     1     -20.333 -10.819  -0.957  1.00  0.00     0.258 C 
HETATM   17  O   UNL     1     -20.160 -11.893  -1.538  1.00  0.00    -0.265 OA
BRANCH  16  18
HETATM   18  C   UNL     1     -20.952 -10.697   0.408  1.00  0.00     0.111 C 
BRANCH  18  19
HETATM   19  C   UNL     1     -21.711  -9.372   0.563  1.00  0.00     0.010 C 
BRANCH  19  20
HETATM   20  C   UNL     1     -23.046  -9.349  -0.190  1.00  0.00     0.000 C 
BRANCH  20  21
HETATM   21  C   UNL     1     -23.846 -10.625   0.085  1.00  0.00    -0.000 C 
BRANCH  21  22
HETATM   22  C   UNL     1     -24.120 -11.405  -1.198  1.00  0.00    -0.005 C 
HETATM   23  C   UNL     1     -23.749 -12.871  -1.040  1.00  0.00     0.005 C 
ENDBRANCH  21  22
ENDBRANCH  20  21
ENDBRANCH  19  20
ENDBRANCH  18  19
ENDBRANCH  16  18
ENDBRANCH  15  16
ENDBRANCH  14  15
ENDBRANCH   1  14
TORSDOF 16
ENDMDL
MODEL 7
REMARK VINA RESULT:      -5.7      1.924      8.771
REMARK  16 active torsions:
REMARK  status: ('A' for Active; 'I' for Inactive)
REMARK    1  A    between atoms: C_2  and  C_3 
REMARK    2  A    between atoms: C_3  and  C_4 
REMARK    3  A    between atoms: C_4  and  C_5 
REMARK    4  A    between atoms: C_5  and  C_6 
REMARK    5  A    between atoms: C_6  and  C_7 
REMARK    6  A    between atoms: C_7  and  O_9 
REMARK    7  A    between atoms: O_9  and  C_10 
REMARK    8  A    between atoms: C_10  and  C_11 
REMARK    9  A    between atoms: C_11  and  C_14 
REMARK   10  A    between atoms: C_14  and  O_15 
REMARK   11  A    between atoms: O_15  and  C_16 
REMARK   12  A    between atoms: C_16  and  C_18 
REMARK   13  A    between atoms: C_18  and  C_19 
REMARK   14  A    between atoms: C_19  and  C_20 
REMARK   15  A    between atoms: C_20  and  C_21 
REMARK   16  A    between atoms: C_21  and  C_22 
ROOT
HETATM    1  C   UNL     1     -20.537  -6.089  -5.736  1.00  0.00    -0.004 C 
HETATM    2  C   UNL     1     -22.070  -6.036  -5.818  1.00  0.00     0.019 C 
HETATM    3  C   UNL     1     -20.025  -4.847  -4.981  1.00  0.00     0.019 C 
ENDROOT
BRANCH   1   4
HETATM    4  C   UNL     1     -20.104  -7.367  -4.988  1.00  0.00     0.189 C 
BRANCH   4   5
HETATM    5  O   UNL     1     -21.221  -8.257  -4.792  1.00  0.00    -0.321 OA
BRANCH   5   6
HETATM    6  C   UNL     1     -21.398  -8.693  -3.511  1.00  0.00     0.258 C 
HETATM    7  O   UNL     1     -21.750  -9.820  -3.189  1.00  0.00    -0.265 OA
BRANCH   6   8
HETATM    8  C   UNL     1     -21.072  -7.604  -2.522  1.00  0.00     0.111 C 
BRANCH   8   9
HETATM    9  C   UNL     1     -21.228  -8.100  -1.087  1.00  0.00     0.010 C 
BRANCH   9  10
HETATM   10  C   UNL     1     -22.425  -7.471  -0.369  1.00  0.00     0.000 C 
BRANCH  10  11
HETATM   11  C   UNL     1     -23.186  -8.525   0.435  1.00  0.00    -0.000 C 
BRANCH  11  12
HETATM   12  C   UNL     1     -22.749  -9.941   0.066  1.00  0.00    -0.005 C 
HETATM   13  C   UNL     1     -23.929 -10.777  -0.401  1.00  0.00     0.005 C 
ENDBRANCH  11  12
ENDBRANCH  10  11
ENDBRANCH   9  10
ENDBRANCH   8   9
ENDBRANCH   6   8
ENDBRANCH   5   6
ENDBRANCH   4   5
ENDBRANCH   1   4
BRANCH   1  14
HETATM   14  C   UNL     1     -19.951  -6.091  -7.164  1.00  0.00     0.189 C 
BRANCH  14  15
HETATM   15  O   UNL     1     -19.716  -4.769  -7.679  1.00  0.00    -0.321 OA
BRANCH  15  16
HETATM   16  C   UNL     1     -20.577  -4.350  -8.648  1.00  0.00     0.258 C 
HETATM   17  O   UNL     1     -21.612  -3.707  -8.455  1.00  0.00    -0.265 OA
BRANCH  16  18
HETATM   18  C   UNL     1     -20.004  -4.623 -10.011  1.00  0.00     0.111 C 
BRANCH  18  19
HETATM   19  C   UNL     1     -21.073  -4.500 -11.105  1.00  0.00     0.010 C 
BRANCH  19  20
HETATM   20  C   UNL     1     -21.081  -3.128 -11.789  1.00  0.00     0.000 C 
BRANCH  20  21
HETATM   21  C   UNL     1     -22.500  -2.559 -11.845  1.00  0.00    -0.000 C 
BRANCH  21  22
HETATM   22  C   UNL     1     -23.506  -3.600 -12.330  1.00  0.00    -0.005 C 
HETATM   23  C   UNL     1     -24.815  -2.948 -12.746  1.00  0.00     0.005 C 
ENDBRANCH  21  22
ENDBRANCH  20  21
ENDBRANCH  19  20
ENDBRANCH  18  19
ENDBRANCH  16  18
ENDBRANCH  15  16
ENDBRANCH  14  15
ENDBRANCH   1  14
TORSDOF 16
ENDMDL
MODEL 8
REMARK VINA RESULT:      -5.6      1.806      3.092
REMARK  16 active torsions:
REMARK  status: ('A' for Active; 'I' for Inactive)
REMARK    1  A    between atoms: C_2  and  C_3 
REMARK    2  A    between atoms: C_3  and  C_4 
REMARK    3  A    between atoms: C_4  and  C_5 
REMARK    4  A    between atoms: C_5  and  C_6 
REMARK    5  A    between atoms: C_6  and  C_7 
REMARK    6  A    between atoms: C_7  and  O_9 
REMARK    7  A    between atoms: O_9  and  C_10 
REMARK    8  A    between atoms: C_10  and  C_11 
REMARK    9  A    between atoms: C_11  and  C_14 
REMARK   10  A    between atoms: C_14  and  O_15 
REMARK   11  A    between atoms: O_15  and  C_16 
REMARK   12  A    between atoms: C_16  and  C_18 
REMARK   13  A    between atoms: C_18  and  C_19 
REMARK   14  A    between atoms: C_19  and  C_20 
REMARK   15  A    between atoms: C_20  and  C_21 
REMARK   16  A    between atoms: C_21  and  C_22 
ROOT
HETATM    1  C   UNL     1     -20.295  -9.355  -3.898  1.00  0.00    -0.004 C 
HETATM    2  C   UNL     1     -19.230  -9.065  -4.967  1.00  0.00     0.019 C 
HETATM    3  C   UNL     1     -19.599  -9.786  -2.592  1.00  0.00     0.019 C 
ENDROOT
BRANCH   1   4
HETATM    4  C   UNL     1     -21.133  -8.084  -3.646  1.00  0.00     0.189 C 
BRANCH   4   5
HETATM    5  O   UNL     1     -21.921  -7.743  -4.803  1.00  0.00    -0.321 OA
BRANCH   5   6
HETATM    6  C   UNL     1     -22.108  -6.407  -5.005  1.00  0.00     0.258 C 
HETATM    7  O   UNL     1     -23.158  -5.883  -5.352  1.00  0.00    -0.265 OA
BRANCH   6   8
HETATM    8  C   UNL     1     -20.846  -5.636  -4.712  1.00  0.00     0.111 C 
BRANCH   8   9
HETATM    9  C   UNL     1     -20.443  -4.770  -5.902  1.00  0.00     0.010 C 
BRANCH   9  10
HETATM   10  C   UNL     1     -20.211  -5.585  -7.177  1.00  0.00     0.000 C 
BRANCH  10  11
HETATM   11  C   UNL     1     -19.803  -4.673  -8.334  1.00  0.00    -0.000 C 
BRANCH  11  12
HETATM   12  C   UNL     1     -20.948  -4.473  -9.324  1.00  0.00    -0.005 C 
HETATM   13  C   UNL     1     -20.427  -4.331 -10.745  1.00  0.00     0.005 C 
ENDBRANCH  11  12
ENDBRANCH  10  11
ENDBRANCH   9  10
ENDBRANCH   8   9
ENDBRANCH   6   8
ENDBRANCH   5   6
ENDBRANCH   4   5
ENDBRANCH   1   4
BRANCH   1  14
HETATM   14  C   UNL     1     -21.207 -10.500  -4.387  1.00  0.00     0.189 C 
BRANCH  14  15
HETATM   15  O   UNL     1     -22.308 -10.762  -3.500  1.00  0.00    -0.321 OA
BRANCH  15  16
HETATM   16  C   UNL     1     -22.529 -12.074  -3.205  1.00  0.00     0.258 C 
HETATM   17  O   UNL     1     -22.469 -13.008  -4.007  1.00  0.00    -0.265 OA
BRANCH  16  18
HETATM   18  C   UNL     1     -22.682 -12.256  -1.720  1.00  0.00     0.111 C 
BRANCH  18  19
HETATM   19  C   UNL     1     -23.958 -11.581  -1.200  1.00  0.00     0.010 C 
BRANCH  19  20
HETATM   20  C   UNL     1     -23.680 -10.451  -0.202  1.00  0.00     0.000 C 
BRANCH  20  21
HETATM   21  C   UNL     1     -22.185 -10.362   0.113  1.00  0.00    -0.000 C 
BRANCH  21  22
HETATM   22  C   UNL     1     -21.764  -8.933   0.445  1.00  0.00    -0.005 C 
HETATM   23  C   UNL     1     -22.954  -7.987   0.418  1.00  0.00     0.005 C 
ENDBRANCH  21  22
ENDBRANCH  20  21
ENDBRANCH  19  20
ENDBRANCH  18  19
ENDBRANCH  16  18
ENDBRANCH  15  16
ENDBRANCH  14  15
ENDBRANCH   1  14
TORSDOF 16
ENDMDL
MODEL 9
REMARK VINA RESULT:      -5.5      2.652      9.117
REMARK  16 active torsions:
REMARK  status: ('A' for Active; 'I' for Inactive)
REMARK    1  A    between atoms: C_2  and  C_3 
REMARK    2  A    between atoms: C_3  and  C_4 
REMARK    3  A    between atoms: C_4  and  C_5 
REMARK    4  A    between atoms: C_5  and  C_6 
REMARK    5  A    between atoms: C_6  and  C_7 
REMARK    6  A    between atoms: C_7  and  O_9 
REMARK    7  A    between atoms: O_9  and  C_10 
REMARK    8  A    between atoms: C_10  and  C_11 
REMARK    9  A    between atoms: C_11  and  C_14 
REMARK   10  A    between atoms: C_14  and  O_15 
REMARK   11  A    between atoms: O_15  and  C_16 
REMARK   12  A    between atoms: C_16  and  C_18 
REMARK   13  A    between atoms: C_18  and  C_19 
REMARK   14  A    between atoms: C_19  and  C_20 
REMARK   15  A    between atoms: C_20  and  C_21 
REMARK   16  A    between atoms: C_21  and  C_22 
ROOT
HETATM    1  C   UNL     1     -21.932  -8.757  -0.042  1.00  0.00    -0.004 C 
HETATM    2  C   UNL     1     -23.419  -8.715   0.340  1.00  0.00     0.019 C 
HETATM    3  C   UNL     1     -21.083  -8.890   1.238  1.00  0.00     0.019 C 
ENDROOT
BRANCH   1   4
HETATM    4  C   UNL     1     -21.671  -9.965  -0.966  1.00  0.00     0.189 C 
BRANCH   4   5
HETATM    5  O   UNL     1     -22.835 -10.274  -1.757  1.00  0.00    -0.321 OA
BRANCH   5   6
HETATM    6  C   UNL     1     -23.072 -11.604  -1.946  1.00  0.00     0.258 C 
HETATM    7  O   UNL     1     -22.501 -12.317  -2.760  1.00  0.00    -0.265 OA
BRANCH   6   8
HETATM    8  C   UNL     1     -24.123 -12.106  -0.989  1.00  0.00     0.111 C 
BRANCH   8   9
HETATM    9  C   UNL     1     -23.601 -13.279  -0.164  1.00  0.00     0.010 C 
BRANCH   9  10
HETATM   10  C   UNL     1     -22.791 -12.831   1.056  1.00  0.00     0.000 C 
BRANCH  10  11
HETATM   11  C   UNL     1     -22.479 -14.021   1.963  1.00  0.00    -0.000 C 
BRANCH  11  12
HETATM   12  C   UNL     1     -23.705 -14.458   2.761  1.00  0.00    -0.005 C 
HETATM   13  C   UNL     1     -23.302 -15.185   4.034  1.00  0.00     0.005 C 
ENDBRANCH  11  12
ENDBRANCH  10  11
ENDBRANCH   9  10
ENDBRANCH   8   9
ENDBRANCH   6   8
ENDBRANCH   5   6
ENDBRANCH   4   5
ENDBRANCH   1   4
BRANCH   1  14
HETATM   14  C   UNL     1     -21.555  -7.448  -0.765  1.00  0.00     0.189 C 
BRANCH  14  15
HETATM   15  O   UNL     1     -21.094  -7.658  -2.111  1.00  0.00    -0.321 OA
BRANCH  15  16
HETATM   16  C   UNL     1     -21.636  -6.841  -3.057  1.00  0.00     0.258 C 
HETATM   17  O   UNL     1     -22.455  -5.944  -2.842  1.00  0.00    -0.265 OA
BRANCH  16  18
HETATM   18  C   UNL     1     -20.965  -7.060  -4.384  1.00  0.00     0.111 C 
BRANCH  18  19
HETATM   19  C   UNL     1     -20.800  -5.744  -5.154  1.00  0.00     0.010 C 
BRANCH  19  20
HETATM   20  C   UNL     1     -20.738  -5.937  -6.674  1.00  0.00     0.000 C 
BRANCH  20  21
HETATM   21  C   UNL     1     -19.989  -4.780  -7.337  1.00  0.00    -0.000 C 
BRANCH  21  22
HETATM   22  C   UNL     1     -20.824  -4.120  -8.431  1.00  0.00    -0.005 C 
HETATM   23  C   UNL     1     -20.297  -4.471  -9.813  1.00  0.00     0.005 C 
ENDBRANCH  21  22
ENDBRANCH  20  21
ENDBRANCH  19  20
ENDBRANCH  18  19
ENDBRANCH  16  18
ENDBRANCH  15  16
ENDBRANCH  14  15
ENDBRANCH   1  14
TORSDOF 16
ENDMDL
