MODEL 1
REMARK VINA RESULT:      -6.2      0.000      0.000
REMARK  2 active torsions:
REMARK  status: ('A' for Active; 'I' for Inactive)
REMARK    1  A    between atoms: CA_7  and  C_9 
REMARK    2  A    between atoms: C_9  and  OXT_11 
ROOT
HETATM    1  C   UNL     1     -20.443  -3.843 -11.257  1.00  0.00     0.088 C 
HETATM    2  C   UNL     1     -21.867  -3.599 -11.700  1.00  0.00     0.069 C 
HETATM    3  N   UNL     1     -22.733  -3.332 -10.801  1.00  0.00    -0.380 N 
ATOM      4  HN  UNL     1     -22.442  -3.278  -9.825  1.00  0.00     0.160 HD
HETATM    5  C   UNL     1     -24.127  -3.103 -11.145  1.00  0.00     0.123 C 
HETATM    6  C   UNL     1     -24.527  -3.239 -12.606  1.00  0.00     0.056 C 
HETATM    7  CA  UNL     1     -23.420  -3.436 -13.628  1.00  0.00     0.182 C 
HETATM    8  N   UNL     1     -22.112  -3.647 -13.034  1.00  0.00    -0.366 N 
HETATM    9  H   UNL     1     -21.389  -4.000 -13.656  1.00  0.00     0.161 HD
ENDROOT
BRANCH   7  10
HETATM   10  C   UNL     1     -23.347  -2.217 -14.554  1.00  0.00     0.163 C 
HETATM   11  O   UNL     1     -22.555  -2.095 -15.475  1.00  0.00    -0.648 OA
BRANCH  10  12
HETATM   12  OXT UNL     1     -24.275  -1.273 -14.254  1.00  0.00    -0.775 OA
HETATM   13  HXT UNL     1     -24.746  -1.531 -13.432  1.00  0.00     0.167 HD
ENDBRANCH  10  12
ENDBRANCH   7  10
TORSDOF 2
ENDMDL
MODEL 2
REMARK VINA RESULT:      -6.1      2.778      4.041
REMARK  2 active torsions:
REMARK  status: ('A' for Active; 'I' for Inactive)
REMARK    1  A    between atoms: CA_7  and  C_9 
REMARK    2  A    between atoms: C_9  and  OXT_11 
ROOT
HETATM    1  C   UNL     1     -23.088  -2.774 -14.068  1.00  0.00     0.088 C 
HETATM    2  C   UNL     1     -22.774  -3.324 -12.696  1.00  0.00     0.069 C 
HETATM    3  N   UNL     1     -21.580  -3.196 -12.262  1.00  0.00    -0.380 N 
ATOM      4  HN  UNL     1     -20.885  -2.722 -12.838  1.00  0.00     0.160 HD
HETATM    5  C   UNL     1     -21.194  -3.715 -10.959  1.00  0.00     0.123 C 
HETATM    6  C   UNL     1     -22.250  -4.456 -10.153  1.00  0.00     0.056 C 
HETATM    7  CA  UNL     1     -23.674  -4.458 -10.682  1.00  0.00     0.182 C 
HETATM    8  N   UNL     1     -23.801  -3.884 -12.009  1.00  0.00    -0.366 N 
HETATM    9  H   UNL     1     -24.679  -4.061 -12.491  1.00  0.00     0.161 HD
ENDROOT
BRANCH   7  10
HETATM   10  C   UNL     1     -24.584  -3.682  -9.722  1.00  0.00     0.163 C 
HETATM   11  O   UNL     1     -25.621  -3.128 -10.050  1.00  0.00    -0.648 OA
BRANCH  10  12
HETATM   12  OXT UNL     1     -24.122  -3.681  -8.446  1.00  0.00    -0.775 OA
HETATM   13  HXT UNL     1     -24.131  -2.762  -8.100  1.00  0.00     0.167 HD
ENDBRANCH  10  12
ENDBRANCH   7  10
TORSDOF 2
ENDMDL
MODEL 3
REMARK VINA RESULT:      -5.7      2.752      3.482
REMARK  2 active torsions:
REMARK  status: ('A' for Active; 'I' for Inactive)
REMARK    1  A    between atoms: CA_7  and  C_9 
REMARK    2  A    between atoms: C_9  and  OXT_11 
ROOT
HETATM    1  C   UNL     1     -20.154  -4.286 -10.912  1.00  0.00     0.088 C 
HETATM    2  C   UNL     1     -21.497  -3.799 -11.407  1.00  0.00     0.069 C 
HETATM    3  N   UNL     1     -21.709  -3.817 -12.666  1.00  0.00    -0.380 N 
ATOM      4  HN  UNL     1     -20.984  -4.166 -13.292  1.00  0.00     0.160 HD
HETATM    5  C   UNL     1     -22.968  -3.348 -13.222  1.00  0.00     0.123 C 
HETATM    6  C   UNL     1     -24.003  -2.791 -12.257  1.00  0.00     0.056 C 
HETATM    7  CA  UNL     1     -23.726  -2.918 -10.769  1.00  0.00     0.182 C 
HETATM    8  N   UNL     1     -22.394  -3.411 -10.467  1.00  0.00    -0.366 N 
HETATM    9  H   UNL     1     -22.085  -3.304  -9.503  1.00  0.00     0.161 HD
ENDROOT
BRANCH   7  10
HETATM   10  C   UNL     1     -24.753  -3.858 -10.129  1.00  0.00     0.163 C 
HETATM   11  O   UNL     1     -24.605  -5.064 -10.006  1.00  0.00    -0.648 OA
BRANCH  10  12
HETATM   12  OXT UNL     1     -25.861  -3.207  -9.692  1.00  0.00    -0.775 OA
HETATM   13  HXT UNL     1     -26.638  -3.503 -10.216  1.00  0.00     0.167 HD
ENDBRANCH  10  12
ENDBRANCH   7  10
TORSDOF 2
ENDMDL
MODEL 4
REMARK VINA RESULT:      -5.7      2.669      3.252
REMARK  2 active torsions:
REMARK  status: ('A' for Active; 'I' for Inactive)
REMARK    1  A    between atoms: CA_7  and  C_9 
REMARK    2  A    between atoms: C_9  and  OXT_11 
ROOT
HETATM    1  C   UNL     1     -22.146  -4.457  -7.266  1.00  0.00     0.088 C 
HETATM    2  C   UNL     1     -22.849  -4.202  -8.579  1.00  0.00     0.069 C 
HETATM    3  N   UNL     1     -23.987  -3.625  -8.543  1.00  0.00    -0.380 N 
ATOM      4  HN  UNL     1     -24.378  -3.343  -7.643  1.00  0.00     0.160 HD
HETATM    5  C   UNL     1     -24.735  -3.361  -9.761  1.00  0.00     0.123 C 
HETATM    6  C   UNL     1     -24.136  -3.839 -11.075  1.00  0.00     0.056 C 
HETATM    7  CA  UNL     1     -22.727  -4.405 -11.048  1.00  0.00     0.182 C 
HETATM    8  N   UNL     1     -22.196  -4.576  -9.707  1.00  0.00    -0.366 N 
HETATM    9  H   UNL     1     -21.359  -5.150  -9.627  1.00  0.00     0.161 HD
ENDROOT
BRANCH   7  10
HETATM   10  C   UNL     1     -21.785  -3.487 -11.835  1.00  0.00     0.163 C 
HETATM   11  O   UNL     1     -20.954  -2.751 -11.326  1.00  0.00    -0.648 OA
BRANCH  10  12
HETATM   12  OXT UNL     1     -21.958  -3.582 -13.177  1.00  0.00    -0.775 OA
HETATM   13  HXT UNL     1     -21.291  -3.021 -13.630  1.00  0.00     0.167 HD
ENDBRANCH  10  12
ENDBRANCH   7  10
TORSDOF 2
ENDMDL
MODEL 5
REMARK VINA RESULT:      -5.6      2.803      4.057
REMARK  2 active torsions:
REMARK  status: ('A' for Active; 'I' for Inactive)
REMARK    1  A    between atoms: CA_7  and  C_9 
REMARK    2  A    between atoms: C_9  and  OXT_11 
ROOT
HETATM    1  C   UNL     1     -23.638  -2.108 -13.972  1.00  0.00     0.088 C 
HETATM    2  C   UNL     1     -23.176  -2.963 -12.814  1.00  0.00     0.069 C 
HETATM    3  N   UNL     1     -21.919  -3.076 -12.621  1.00  0.00    -0.380 N 
ATOM      4  HN  UNL     1     -21.271  -2.583 -13.236  1.00  0.00     0.160 HD
HETATM    5  C   UNL     1     -21.395  -3.895 -11.540  1.00  0.00     0.123 C 
HETATM    6  C   UNL     1     -22.395  -4.651 -10.678  1.00  0.00     0.056 C 
HETATM    7  CA  UNL     1     -23.872  -4.368 -10.892  1.00  0.00     0.182 C 
HETATM    8  N   UNL     1     -24.140  -3.522 -12.041  1.00  0.00    -0.366 N 
HETATM    9  H   UNL     1     -25.108  -3.486 -12.355  1.00  0.00     0.161 HD
ENDROOT
BRANCH   7  10
HETATM   10  C   UNL     1     -24.458  -3.700  -9.643  1.00  0.00     0.163 C 
HETATM   11  O   UNL     1     -23.875  -3.601  -8.575  1.00  0.00    -0.648 OA
BRANCH  10  12
HETATM   12  OXT UNL     1     -25.707  -3.210  -9.846  1.00  0.00    -0.775 OA
HETATM   13  HXT UNL     1     -26.281  -3.923 -10.203  1.00  0.00     0.167 HD
ENDBRANCH  10  12
ENDBRANCH   7  10
TORSDOF 2
ENDMDL
MODEL 6
REMARK VINA RESULT:      -5.6      1.451      2.543
REMARK  2 active torsions:
REMARK  status: ('A' for Active; 'I' for Inactive)
REMARK    1  A    between atoms: CA_7  and  C_9 
REMARK    2  A    between atoms: C_9  and  OXT_11 
ROOT
HETATM    1  C   UNL     1     -25.011  -3.318  -9.617  1.00  0.00     0.088 C 
HETATM    2  C   UNL     1     -23.849  -3.448 -10.574  1.00  0.00     0.069 C 
HETATM    3  N   UNL     1     -22.950  -4.313 -10.305  1.00  0.00    -0.380 N 
ATOM      4  HN  UNL     1     -23.045  -4.893  -9.472  1.00  0.00     0.160 HD
HETATM    5  C   UNL     1     -21.791  -4.486 -11.167  1.00  0.00     0.123 C 
HETATM    6  C   UNL     1     -21.665  -3.568 -12.374  1.00  0.00     0.056 C 
HETATM    7  CA  UNL     1     -22.835  -2.653 -12.693  1.00  0.00     0.182 C 
HETATM    8  N   UNL     1     -23.869  -2.655 -11.674  1.00  0.00    -0.366 N 
HETATM    9  H   UNL     1     -24.554  -1.905 -11.731  1.00  0.00     0.161 HD
ENDROOT
BRANCH   7  10
HETATM   10  C   UNL     1     -23.462  -3.062 -14.031  1.00  0.00     0.163 C 
HETATM   11  O   UNL     1     -23.381  -2.410 -15.060  1.00  0.00    -0.648 OA
BRANCH  10  12
HETATM   12  OXT UNL     1     -24.119  -4.247 -13.962  1.00  0.00    -0.775 OA
HETATM   13  HXT UNL     1     -24.094  -4.579 -13.038  1.00  0.00     0.167 HD
ENDBRANCH  10  12
ENDBRANCH   7  10
TORSDOF 2
ENDMDL
MODEL 7
REMARK VINA RESULT:      -5.6     11.190     12.027
REMARK  2 active torsions:
REMARK  status: ('A' for Active; 'I' for Inactive)
REMARK    1  A    between atoms: CA_7  and  C_9 
REMARK    2  A    between atoms: C_9  and  OXT_11 
ROOT
HETATM    1  C   UNL     1     -35.748  -0.567 -13.258  1.00  0.00     0.088 C 
HETATM    2  C   UNL     1     -34.844  -1.546 -12.546  1.00  0.00     0.069 C 
HETATM    3  N   UNL     1     -34.400  -1.218 -11.395  1.00  0.00    -0.380 N 
ATOM      4  HN  UNL     1     -34.675  -0.323 -10.987  1.00  0.00     0.160 HD
HETATM    5  C   UNL     1     -33.510  -2.097 -10.653  1.00  0.00     0.123 C 
HETATM    6  C   UNL     1     -33.088  -3.398 -11.318  1.00  0.00     0.056 C 
HETATM    7  CA  UNL     1     -33.755  -3.772 -12.631  1.00  0.00     0.182 C 
HETATM    8  N   UNL     1     -34.598  -2.723 -13.173  1.00  0.00    -0.366 N 
HETATM    9  H   UNL     1     -34.884  -2.835 -14.143  1.00  0.00     0.161 HD
ENDROOT
BRANCH   7  10
HETATM   10  C   UNL     1     -34.602  -5.035 -12.440  1.00  0.00     0.163 C 
HETATM   11  O   UNL     1     -34.844  -5.547 -11.359  1.00  0.00    -0.648 OA
BRANCH  10  12
HETATM   12  OXT UNL     1     -35.077  -5.531 -13.611  1.00  0.00    -0.775 OA
HETATM   13  HXT UNL     1     -34.511  -5.216 -14.349  1.00  0.00     0.167 HD
ENDBRANCH  10  12
ENDBRANCH   7  10
TORSDOF 2
ENDMDL
MODEL 8
REMARK VINA RESULT:      -5.4      2.835      3.687
REMARK  2 active torsions:
REMARK  status: ('A' for Active; 'I' for Inactive)
REMARK    1  A    between atoms: CA_7  and  C_9 
REMARK    2  A    between atoms: C_9  and  OXT_11 
ROOT
HETATM    1  C   UNL     1     -20.107  -4.337 -10.957  1.00  0.00     0.088 C 
HETATM    2  C   UNL     1     -21.303  -4.277 -10.034  1.00  0.00     0.069 C 
HETATM    3  N   UNL     1     -21.100  -3.956  -8.816  1.00  0.00    -0.380 N 
ATOM      4  HN  UNL     1     -20.153  -3.739  -8.505  1.00  0.00     0.160 HD
HETATM    5  C   UNL     1     -22.196  -3.895  -7.862  1.00  0.00     0.123 C 
HETATM    6  C   UNL     1     -23.584  -4.273  -8.356  1.00  0.00     0.056 C 
HETATM    7  CA  UNL     1     -23.764  -4.522  -9.843  1.00  0.00     0.182 C 
HETATM    8  N   UNL     1     -22.516  -4.536 -10.584  1.00  0.00    -0.366 N 
HETATM    9  H   UNL     1     -22.559  -4.914 -11.528  1.00  0.00     0.161 HD
ENDROOT
BRANCH   7  10
HETATM   10  C   UNL     1     -24.678  -3.447 -10.442  1.00  0.00     0.163 C 
HETATM   11  O   UNL     1     -24.456  -2.856 -11.487  1.00  0.00    -0.648 OA
BRANCH  10  12
HETATM   12  OXT UNL     1     -25.784  -3.219  -9.690  1.00  0.00    -0.775 OA
HETATM   13  HXT UNL     1     -26.553  -3.674 -10.100  1.00  0.00     0.167 HD
ENDBRANCH  10  12
ENDBRANCH   7  10
TORSDOF 2
ENDMDL
MODEL 9
REMARK VINA RESULT:      -5.3      3.607      4.399
REMARK  2 active torsions:
REMARK  status: ('A' for Active; 'I' for Inactive)
REMARK    1  A    between atoms: CA_7  and  C_9 
REMARK    2  A    between atoms: C_9  and  OXT_11 
ROOT
HETATM    1  C   UNL     1     -20.991  -4.543  -6.837  1.00  0.00     0.088 C 
HETATM    2  C   UNL     1     -21.433  -4.200  -8.241  1.00  0.00     0.069 C 
HETATM    3  N   UNL     1     -20.666  -4.534  -9.205  1.00  0.00    -0.380 N 
ATOM      4  HN  UNL     1     -19.796  -5.028  -9.006  1.00  0.00     0.160 HD
HETATM    5  C   UNL     1     -21.011  -4.223 -10.583  1.00  0.00     0.123 C 
HETATM    6  C   UNL     1     -22.294  -3.443 -10.831  1.00  0.00     0.056 C 
HETATM    7  CA  UNL     1     -23.211  -3.192  -9.646  1.00  0.00     0.182 C 
HETATM    8  N   UNL     1     -22.637  -3.590  -8.374  1.00  0.00    -0.366 N 
HETATM    9  H   UNL     1     -23.110  -3.243  -7.542  1.00  0.00     0.161 HD
ENDROOT
BRANCH   7  10
HETATM   10  C   UNL     1     -24.532  -3.943  -9.845  1.00  0.00     0.163 C 
HETATM   11  O   UNL     1     -24.618  -5.137 -10.086  1.00  0.00    -0.648 OA
BRANCH  10  12
HETATM   12  OXT UNL     1     -25.618  -3.140  -9.714  1.00  0.00    -0.775 OA
HETATM   13  HXT UNL     1     -25.436  -2.458  -9.031  1.00  0.00     0.167 HD
ENDBRANCH  10  12
ENDBRANCH   7  10
TORSDOF 2
ENDMDL
