MODEL 1
REMARK VINA RESULT:      -1.3      0.000      0.000
REMARK  4 active torsions:
REMARK  status: ('A' for Active; 'I' for Inactive)
REMARK    1  A    between atoms: C_9  and  C_12 
REMARK    2  A    between atoms: C_10  and  O_11 
REMARK    3  A    between atoms: C_16  and  S_27 
REMARK    4  A    between atoms: C_18  and  S_23 
ROOT
HETATM    1 NA   UNL     3     -32.324  -8.576   4.529  1.00  0.00     0.000 Na
ENDROOT
TORSDOF 4
ENDMDL
MODEL 2
REMARK VINA RESULT:      -1.3     23.494     23.494
REMARK  4 active torsions:
REMARK  status: ('A' for Active; 'I' for Inactive)
REMARK    1  A    between atoms: C_9  and  C_12 
REMARK    2  A    between atoms: C_10  and  O_11 
REMARK    3  A    between atoms: C_16  and  S_27 
REMARK    4  A    between atoms: C_18  and  S_23 
ROOT
HETATM    1 NA   UNL     3     -11.257   1.620   2.468  1.00  0.00     0.000 Na
ENDROOT
TORSDOF 4
ENDMDL
MODEL 3
REMARK VINA RESULT:      -1.2     19.033     19.033
REMARK  4 active torsions:
REMARK  status: ('A' for Active; 'I' for Inactive)
REMARK    1  A    between atoms: C_9  and  C_12 
REMARK    2  A    between atoms: C_10  and  O_11 
REMARK    3  A    between atoms: C_16  and  S_27 
REMARK    4  A    between atoms: C_18  and  S_23 
ROOT
HETATM    1 NA   UNL     3     -27.015 -13.665 -13.026  1.00  0.00     0.000 Na
ENDROOT
TORSDOF 4
ENDMDL
MODEL 4
REMARK VINA RESULT:      -1.2     22.209     22.209
REMARK  4 active torsions:
REMARK  status: ('A' for Active; 'I' for Inactive)
REMARK    1  A    between atoms: C_9  and  C_12 
REMARK    2  A    between atoms: C_10  and  O_11 
REMARK    3  A    between atoms: C_16  and  S_27 
REMARK    4  A    between atoms: C_18  and  S_23 
ROOT
HETATM    1 NA   UNL     3     -25.113   0.407 -14.459  1.00  0.00     0.000 Na
ENDROOT
TORSDOF 4
ENDMDL
MODEL 5
REMARK VINA RESULT:      -1.2     14.873     14.873
REMARK  4 active torsions:
REMARK  status: ('A' for Active; 'I' for Inactive)
REMARK    1  A    between atoms: C_9  and  C_12 
REMARK    2  A    between atoms: C_10  and  O_11 
REMARK    3  A    between atoms: C_16  and  S_27 
REMARK    4  A    between atoms: C_18  and  S_23 
ROOT
HETATM    1 NA   UNL     3     -27.284  -5.618  -9.148  1.00  0.00     0.000 Na
ENDROOT
TORSDOF 4
ENDMDL
MODEL 6
REMARK VINA RESULT:      -1.2     34.909     34.909
REMARK  4 active torsions:
REMARK  status: ('A' for Active; 'I' for Inactive)
REMARK    1  A    between atoms: C_9  and  C_12 
REMARK    2  A    between atoms: C_10  and  O_11 
REMARK    3  A    between atoms: C_16  and  S_27 
REMARK    4  A    between atoms: C_18  and  S_23 
ROOT
HETATM    1 NA   UNL     3      -9.119   5.885 -17.174  1.00  0.00     0.000 Na
ENDROOT
TORSDOF 4
ENDMDL
MODEL 7
REMARK VINA RESULT:      -1.1     12.328     12.328
REMARK  4 active torsions:
REMARK  status: ('A' for Active; 'I' for Inactive)
REMARK    1  A    between atoms: C_9  and  C_12 
REMARK    2  A    between atoms: C_10  and  O_11 
REMARK    3  A    between atoms: C_16  and  S_27 
REMARK    4  A    between atoms: C_18  and  S_23 
ROOT
HETATM    1 NA   UNL     3     -25.223  -5.220  -4.974  1.00  0.00     0.000 Na
ENDROOT
TORSDOF 4
ENDMDL
MODEL 8
REMARK VINA RESULT:      -1.1     27.173     27.173
REMARK  4 active torsions:
REMARK  status: ('A' for Active; 'I' for Inactive)
REMARK    1  A    between atoms: C_9  and  C_12 
REMARK    2  A    between atoms: C_10  and  O_11 
REMARK    3  A    between atoms: C_16  and  S_27 
REMARK    4  A    between atoms: C_18  and  S_23 
ROOT
HETATM    1 NA   UNL     3     -11.561   1.297  -9.956  1.00  0.00     0.000 Na
ENDROOT
TORSDOF 4
ENDMDL
MODEL 9
REMARK VINA RESULT:      -1.0     25.425     25.425
REMARK  4 active torsions:
REMARK  status: ('A' for Active; 'I' for Inactive)
REMARK    1  A    between atoms: C_9  and  C_12 
REMARK    2  A    between atoms: C_10  and  O_11 
REMARK    3  A    between atoms: C_16  and  S_27 
REMARK    4  A    between atoms: C_18  and  S_23 
ROOT
HETATM    1 NA   UNL     3     -23.198   0.194 -17.522  1.00  0.00     0.000 Na
ENDROOT
TORSDOF 4
ENDMDL
