MODEL 1
REMARK VINA RESULT:      -6.3      0.000      0.000
REMARK  15 active torsions:
REMARK  status: ('A' for Active; 'I' for Inactive)
REMARK    1  A    between atoms: C_2  and  C_3 
REMARK    2  A    between atoms: C_3  and  C_4 
REMARK    3  A    between atoms: C_4  and  C_5 
REMARK    4  A    between atoms: C_5  and  C_6 
REMARK    5  A    between atoms: C_6  and  C_7 
REMARK    6  A    between atoms: C_7  and  C_8 
REMARK    7  A    between atoms: C_8  and  C_9 
REMARK    8  A    between atoms: C_9  and  C_10 
REMARK    9  A    between atoms: C_10  and  C_11 
REMARK   10  A    between atoms: C_11  and  C_12 
REMARK   11  A    between atoms: C_12  and  C_13 
REMARK   12  A    between atoms: C_13  and  C_14 
REMARK   13  A    between atoms: C_14  and  C_15 
REMARK   14  A    between atoms: C_15  and  C_16 
REMARK   15  A    between atoms: C_16  and  O_17 
ROOT
HETATM    1  C   UNL     1     -35.142  -0.477 -12.614  1.00  0.00     0.000 C 
ENDROOT
BRANCH   1   2
HETATM    2  C   UNL     1     -36.610  -0.297 -12.262  1.00  0.00     0.000 C 
BRANCH   2   3
HETATM    3  C   UNL     1     -36.750   0.234 -10.844  1.00  0.00     0.000 C 
BRANCH   3   4
HETATM    4  C   UNL     1     -37.189  -0.879  -9.905  1.00  0.00     0.000 C 
BRANCH   4   5
HETATM    5  C   UNL     1     -37.688  -0.297  -8.591  1.00  0.00     0.000 C 
BRANCH   5   6
HETATM    6  C   UNL     1     -36.594   0.526  -7.922  1.00  0.00     0.000 C 
BRANCH   6   7
HETATM    7  C   UNL     1     -37.118   1.174  -6.647  1.00  0.00    -0.000 C 
BRANCH   7   8
HETATM    8  C   UNL     1     -38.075   0.241  -5.913  1.00  0.00    -0.005 C 
HETATM    9  C   UNL     1     -37.614   0.006  -4.486  1.00  0.00     0.005 C 
ENDBRANCH   7   8
ENDBRANCH   6   7
ENDBRANCH   5   6
ENDBRANCH   4   5
ENDBRANCH   3   4
ENDBRANCH   2   3
ENDBRANCH   1   2
BRANCH   1  10
HETATM   10  C   UNL     1     -34.701  -1.904 -12.327  1.00  0.00     0.000 C 
BRANCH  10  11
HETATM   11  C   UNL     1     -33.817  -1.944 -11.089  1.00  0.00     0.000 C 
BRANCH  11  12
HETATM   12  C   UNL     1     -33.731  -3.363 -10.548  1.00  0.00     0.000 C 
BRANCH  12  13
HETATM   13  C   UNL     1     -33.070  -4.280 -11.566  1.00  0.00     0.000 C 
BRANCH  13  14
HETATM   14  C   UNL     1     -33.417  -5.737 -11.274  1.00  0.00     0.002 C 
BRANCH  14  15
HETATM   15  C   UNL     1     -34.703  -5.840 -10.466  1.00  0.00     0.026 C 
BRANCH  15  16
HETATM   16  C   UNL     1     -34.791  -7.177  -9.747  1.00  0.00     0.164 C 
BRANCH  16  17
HETATM   17  O   UNL     1     -34.084  -8.164 -10.485  1.00  0.00    -0.401 OA
HETATM   18  H   UNL     1     -34.125  -8.993  -9.977  1.00  0.00     0.209 HD
ENDBRANCH  16  17
ENDBRANCH  15  16
ENDBRANCH  14  15
ENDBRANCH  13  14
ENDBRANCH  12  13
ENDBRANCH  11  12
ENDBRANCH  10  11
ENDBRANCH   1  10
TORSDOF 15
ENDMDL
MODEL 2
REMARK VINA RESULT:      -6.2     12.876     15.283
REMARK  15 active torsions:
REMARK  status: ('A' for Active; 'I' for Inactive)
REMARK    1  A    between atoms: C_2  and  C_3 
REMARK    2  A    between atoms: C_3  and  C_4 
REMARK    3  A    between atoms: C_4  and  C_5 
REMARK    4  A    between atoms: C_5  and  C_6 
REMARK    5  A    between atoms: C_6  and  C_7 
REMARK    6  A    between atoms: C_7  and  C_8 
REMARK    7  A    between atoms: C_8  and  C_9 
REMARK    8  A    between atoms: C_9  and  C_10 
REMARK    9  A    between atoms: C_10  and  C_11 
REMARK   10  A    between atoms: C_11  and  C_12 
REMARK   11  A    between atoms: C_12  and  C_13 
REMARK   12  A    between atoms: C_13  and  C_14 
REMARK   13  A    between atoms: C_14  and  C_15 
REMARK   14  A    between atoms: C_15  and  C_16 
REMARK   15  A    between atoms: C_16  and  O_17 
ROOT
HETATM    1  C   UNL     1     -20.243  -3.974  -7.740  1.00  0.00     0.000 C 
ENDROOT
BRANCH   1   2
HETATM    2  C   UNL     1     -19.768  -5.112  -6.851  1.00  0.00     0.000 C 
BRANCH   2   3
HETATM    3  C   UNL     1     -20.758  -5.344  -5.720  1.00  0.00     0.000 C 
BRANCH   3   4
HETATM    4  C   UNL     1     -21.190  -6.802  -5.689  1.00  0.00     0.000 C 
BRANCH   4   5
HETATM    5  C   UNL     1     -21.706  -7.173  -4.307  1.00  0.00     0.000 C 
BRANCH   5   6
HETATM    6  C   UNL     1     -21.398  -6.065  -3.308  1.00  0.00     0.000 C 
BRANCH   6   7
HETATM    7  C   UNL     1     -22.169  -6.286  -2.012  1.00  0.00    -0.000 C 
BRANCH   7   8
HETATM    8  C   UNL     1     -21.832  -7.641  -1.400  1.00  0.00    -0.005 C 
HETATM    9  C   UNL     1     -22.129  -7.651   0.088  1.00  0.00     0.005 C 
ENDBRANCH   7   8
ENDBRANCH   6   7
ENDBRANCH   5   6
ENDBRANCH   4   5
ENDBRANCH   3   4
ENDBRANCH   2   3
ENDBRANCH   1   2
BRANCH   1  10
HETATM   10  C   UNL     1     -21.763  -3.904  -7.741  1.00  0.00     0.000 C 
BRANCH  10  11
HETATM   11  C   UNL     1     -22.302  -4.158  -9.140  1.00  0.00     0.000 C 
BRANCH  11  12
HETATM   12  C   UNL     1     -21.175  -4.095 -10.160  1.00  0.00     0.000 C 
BRANCH  12  13
HETATM   13  C   UNL     1     -21.713  -3.672 -11.520  1.00  0.00     0.000 C 
BRANCH  13  14
HETATM   14  C   UNL     1     -23.191  -4.028 -11.642  1.00  0.00     0.002 C 
BRANCH  14  15
HETATM   15  C   UNL     1     -23.939  -2.980 -12.456  1.00  0.00     0.026 C 
BRANCH  15  16
HETATM   16  C   UNL     1     -23.261  -2.744 -13.795  1.00  0.00     0.164 C 
BRANCH  16  17
HETATM   17  O   UNL     1     -23.708  -3.709 -14.736  1.00  0.00    -0.401 OA
HETATM   18  H   UNL     1     -24.172  -3.233 -15.447  1.00  0.00     0.209 HD
ENDBRANCH  16  17
ENDBRANCH  15  16
ENDBRANCH  14  15
ENDBRANCH  13  14
ENDBRANCH  12  13
ENDBRANCH  11  12
ENDBRANCH  10  11
ENDBRANCH   1  10
TORSDOF 15
ENDMDL
MODEL 3
REMARK VINA RESULT:      -6.2     13.156     15.498
REMARK  15 active torsions:
REMARK  status: ('A' for Active; 'I' for Inactive)
REMARK    1  A    between atoms: C_2  and  C_3 
REMARK    2  A    between atoms: C_3  and  C_4 
REMARK    3  A    between atoms: C_4  and  C_5 
REMARK    4  A    between atoms: C_5  and  C_6 
REMARK    5  A    between atoms: C_6  and  C_7 
REMARK    6  A    between atoms: C_7  and  C_8 
REMARK    7  A    between atoms: C_8  and  C_9 
REMARK    8  A    between atoms: C_9  and  C_10 
REMARK    9  A    between atoms: C_10  and  C_11 
REMARK   10  A    between atoms: C_11  and  C_12 
REMARK   11  A    between atoms: C_12  and  C_13 
REMARK   12  A    between atoms: C_13  and  C_14 
REMARK   13  A    between atoms: C_14  and  C_15 
REMARK   14  A    between atoms: C_15  and  C_16 
REMARK   15  A    between atoms: C_16  and  O_17 
ROOT
HETATM    1  C   UNL     1     -20.034  -4.709  -6.114  1.00  0.00     0.000 C 
ENDROOT
BRANCH   1   2
HETATM    2  C   UNL     1     -20.542  -6.140  -6.074  1.00  0.00     0.000 C 
BRANCH   2   3
HETATM    3  C   UNL     1     -21.826  -6.221  -5.263  1.00  0.00     0.000 C 
BRANCH   3   4
HETATM    4  C   UNL     1     -21.586  -6.986  -3.971  1.00  0.00     0.000 C 
BRANCH   4   5
HETATM    5  C   UNL     1     -21.468  -6.023  -2.799  1.00  0.00     0.000 C 
BRANCH   5   6
HETATM    6  C   UNL     1     -22.274  -6.527  -1.610  1.00  0.00     0.000 C 
BRANCH   6   7
HETATM    7  C   UNL     1     -21.581  -7.720  -0.963  1.00  0.00    -0.000 C 
BRANCH   7   8
HETATM    8  C   UNL     1     -22.366  -8.220   0.244  1.00  0.00    -0.005 C 
HETATM    9  C   UNL     1     -23.159  -9.467  -0.105  1.00  0.00     0.005 C 
ENDBRANCH   7   8
ENDBRANCH   6   7
ENDBRANCH   5   6
ENDBRANCH   4   5
ENDBRANCH   3   4
ENDBRANCH   2   3
ENDBRANCH   1   2
BRANCH   1  10
HETATM   10  C   UNL     1     -19.700  -4.307  -7.543  1.00  0.00     0.000 C 
BRANCH  10  11
HETATM   11  C   UNL     1     -20.905  -4.522  -8.447  1.00  0.00     0.000 C 
BRANCH  11  12
HETATM   12  C   UNL     1     -20.481  -4.496  -9.907  1.00  0.00     0.000 C 
BRANCH  12  13
HETATM   13  C   UNL     1     -21.398  -3.583 -10.709  1.00  0.00     0.000 C 
BRANCH  13  14
HETATM   14  C   UNL     1     -22.660  -4.330 -11.127  1.00  0.00     0.002 C 
BRANCH  14  15
HETATM   15  C   UNL     1     -23.881  -3.422 -11.053  1.00  0.00     0.026 C 
BRANCH  15  16
HETATM   16  C   UNL     1     -24.491  -3.441  -9.661  1.00  0.00     0.164 C 
BRANCH  16  17
HETATM   17  O   UNL     1     -25.894  -3.235  -9.749  1.00  0.00    -0.401 OA
HETATM   18  H   UNL     1     -26.329  -4.022  -9.376  1.00  0.00     0.209 HD
ENDBRANCH  16  17
ENDBRANCH  15  16
ENDBRANCH  14  15
ENDBRANCH  13  14
ENDBRANCH  12  13
ENDBRANCH  11  12
ENDBRANCH  10  11
ENDBRANCH   1  10
TORSDOF 15
ENDMDL
MODEL 4
REMARK VINA RESULT:      -6.2     14.102     16.030
REMARK  15 active torsions:
REMARK  status: ('A' for Active; 'I' for Inactive)
REMARK    1  A    between atoms: C_2  and  C_3 
REMARK    2  A    between atoms: C_3  and  C_4 
REMARK    3  A    between atoms: C_4  and  C_5 
REMARK    4  A    between atoms: C_5  and  C_6 
REMARK    5  A    between atoms: C_6  and  C_7 
REMARK    6  A    between atoms: C_7  and  C_8 
REMARK    7  A    between atoms: C_8  and  C_9 
REMARK    8  A    between atoms: C_9  and  C_10 
REMARK    9  A    between atoms: C_10  and  C_11 
REMARK   10  A    between atoms: C_11  and  C_12 
REMARK   11  A    between atoms: C_12  and  C_13 
REMARK   12  A    between atoms: C_13  and  C_14 
REMARK   13  A    between atoms: C_14  and  C_15 
REMARK   14  A    between atoms: C_15  and  C_16 
REMARK   15  A    between atoms: C_16  and  O_17 
ROOT
HETATM    1  C   UNL     1     -20.430  -5.141  -5.335  1.00  0.00     0.000 C 
ENDROOT
BRANCH   1   2
HETATM    2  C   UNL     1     -21.022  -6.536  -5.444  1.00  0.00     0.000 C 
BRANCH   2   3
HETATM    3  C   UNL     1     -21.894  -6.834  -4.234  1.00  0.00     0.000 C 
BRANCH   3   4
HETATM    4  C   UNL     1     -21.434  -6.014  -3.039  1.00  0.00     0.000 C 
BRANCH   4   5
HETATM    5  C   UNL     1     -22.089  -6.523  -1.764  1.00  0.00     0.000 C 
BRANCH   5   6
HETATM    6  C   UNL     1     -21.334  -7.730  -1.221  1.00  0.00     0.000 C 
BRANCH   6   7
HETATM    7  C   UNL     1     -21.698  -7.974   0.238  1.00  0.00    -0.000 C 
BRANCH   7   8
HETATM    8  C   UNL     1     -23.162  -8.376   0.377  1.00  0.00    -0.005 C 
HETATM    9  C   UNL     1     -23.389  -9.783  -0.146  1.00  0.00     0.005 C 
ENDBRANCH   7   8
ENDBRANCH   6   7
ENDBRANCH   5   6
ENDBRANCH   4   5
ENDBRANCH   3   4
ENDBRANCH   2   3
ENDBRANCH   1   2
BRANCH   1  10
HETATM   10  C   UNL     1     -20.642  -4.374  -6.632  1.00  0.00     0.000 C 
BRANCH  10  11
HETATM   11  C   UNL     1     -21.684  -5.073  -7.493  1.00  0.00     0.000 C 
BRANCH  11  12
HETATM   12  C   UNL     1     -21.735  -4.443  -8.876  1.00  0.00     0.000 C 
BRANCH  12  13
HETATM   13  C   UNL     1     -20.336  -4.351  -9.469  1.00  0.00     0.000 C 
BRANCH  13  14
HETATM   14  C   UNL     1     -20.408  -4.024 -10.957  1.00  0.00     0.002 C 
BRANCH  14  15
HETATM   15  C   UNL     1     -21.812  -4.259 -11.499  1.00  0.00     0.026 C 
BRANCH  15  16
HETATM   16  C   UNL     1     -22.297  -3.059 -12.296  1.00  0.00     0.164 C 
BRANCH  16  17
HETATM   17  O   UNL     1     -22.223  -3.343 -13.685  1.00  0.00    -0.401 OA
HETATM   18  H   UNL     1     -22.230  -2.493 -14.159  1.00  0.00     0.209 HD
ENDBRANCH  16  17
ENDBRANCH  15  16
ENDBRANCH  14  15
ENDBRANCH  13  14
ENDBRANCH  12  13
ENDBRANCH  11  12
ENDBRANCH  10  11
ENDBRANCH   1  10
TORSDOF 15
ENDMDL
MODEL 5
REMARK VINA RESULT:      -6.0      2.307      4.904
REMARK  15 active torsions:
REMARK  status: ('A' for Active; 'I' for Inactive)
REMARK    1  A    between atoms: C_2  and  C_3 
REMARK    2  A    between atoms: C_3  and  C_4 
REMARK    3  A    between atoms: C_4  and  C_5 
REMARK    4  A    between atoms: C_5  and  C_6 
REMARK    5  A    between atoms: C_6  and  C_7 
REMARK    6  A    between atoms: C_7  and  C_8 
REMARK    7  A    between atoms: C_8  and  C_9 
REMARK    8  A    between atoms: C_9  and  C_10 
REMARK    9  A    between atoms: C_10  and  C_11 
REMARK   10  A    between atoms: C_11  and  C_12 
REMARK   11  A    between atoms: C_12  and  C_13 
REMARK   12  A    between atoms: C_13  and  C_14 
REMARK   13  A    between atoms: C_14  and  C_15 
REMARK   14  A    between atoms: C_15  and  C_16 
REMARK   15  A    between atoms: C_16  and  O_17 
ROOT
HETATM    1  C   UNL     1     -35.609  -2.177 -10.579  1.00  0.00     0.000 C 
ENDROOT
BRANCH   1   2
HETATM    2  C   UNL     1     -36.252  -0.985  -9.889  1.00  0.00     0.000 C 
BRANCH   2   3
HETATM    3  C   UNL     1     -36.467   0.146 -10.883  1.00  0.00     0.000 C 
BRANCH   3   4
HETATM    4  C   UNL     1     -37.558  -0.225 -11.876  1.00  0.00     0.000 C 
BRANCH   4   5
HETATM    5  C   UNL     1     -36.999  -0.255 -13.290  1.00  0.00     0.000 C 
BRANCH   5   6
HETATM    6  C   UNL     1     -35.600   0.347 -13.324  1.00  0.00     0.000 C 
BRANCH   6   7
HETATM    7  C   UNL     1     -35.135   0.533 -14.763  1.00  0.00    -0.000 C 
BRANCH   7   8
HETATM    8  C   UNL     1     -36.139  -0.061 -15.744  1.00  0.00    -0.005 C 
HETATM    9  C   UNL     1     -35.505  -1.173 -16.560  1.00  0.00     0.005 C 
ENDBRANCH   7   8
ENDBRANCH   6   7
ENDBRANCH   5   6
ENDBRANCH   4   5
ENDBRANCH   3   4
ENDBRANCH   2   3
ENDBRANCH   1   2
BRANCH   1  10
HETATM   10  C   UNL     1     -34.094  -2.065 -10.522  1.00  0.00     0.000 C 
BRANCH  10  11
HETATM   11  C   UNL     1     -33.450  -3.304 -11.129  1.00  0.00     0.000 C 
BRANCH  11  12
HETATM   12  C   UNL     1     -34.257  -3.786 -12.325  1.00  0.00     0.000 C 
BRANCH  12  13
HETATM   13  C   UNL     1     -34.680  -5.235 -12.130  1.00  0.00     0.000 C 
BRANCH  13  14
HETATM   14  C   UNL     1     -33.842  -5.892 -11.039  1.00  0.00     0.002 C 
BRANCH  14  15
HETATM   15  C   UNL     1     -34.730  -6.560  -9.997  1.00  0.00     0.026 C 
BRANCH  15  16
HETATM   16  C   UNL     1     -34.582  -8.073 -10.044  1.00  0.00     0.164 C 
BRANCH  16  17
HETATM   17  O   UNL     1     -33.256  -8.414 -10.421  1.00  0.00    -0.401 OA
HETATM   18  H   UNL     1     -32.916  -9.042  -9.761  1.00  0.00     0.209 HD
ENDBRANCH  16  17
ENDBRANCH  15  16
ENDBRANCH  14  15
ENDBRANCH  13  14
ENDBRANCH  12  13
ENDBRANCH  11  12
ENDBRANCH  10  11
ENDBRANCH   1  10
TORSDOF 15
ENDMDL
MODEL 6
REMARK VINA RESULT:      -6.0     13.235     15.890
REMARK  15 active torsions:
REMARK  status: ('A' for Active; 'I' for Inactive)
REMARK    1  A    between atoms: C_2  and  C_3 
REMARK    2  A    between atoms: C_3  and  C_4 
REMARK    3  A    between atoms: C_4  and  C_5 
REMARK    4  A    between atoms: C_5  and  C_6 
REMARK    5  A    between atoms: C_6  and  C_7 
REMARK    6  A    between atoms: C_7  and  C_8 
REMARK    7  A    between atoms: C_8  and  C_9 
REMARK    8  A    between atoms: C_9  and  C_10 
REMARK    9  A    between atoms: C_10  and  C_11 
REMARK   10  A    between atoms: C_11  and  C_12 
REMARK   11  A    between atoms: C_12  and  C_13 
REMARK   12  A    between atoms: C_13  and  C_14 
REMARK   13  A    between atoms: C_14  and  C_15 
REMARK   14  A    between atoms: C_15  and  C_16 
REMARK   15  A    between atoms: C_16  and  O_17 
ROOT
HETATM    1  C   UNL     1     -20.368  -5.042  -6.084  1.00  0.00     0.000 C 
ENDROOT
BRANCH   1   2
HETATM    2  C   UNL     1     -21.158  -4.160  -7.036  1.00  0.00     0.000 C 
BRANCH   2   3
HETATM    3  C   UNL     1     -21.187  -4.778  -8.426  1.00  0.00     0.000 C 
BRANCH   3   4
HETATM    4  C   UNL     1     -20.106  -4.162  -9.300  1.00  0.00     0.000 C 
BRANCH   4   5
HETATM    5  C   UNL     1     -20.492  -4.260 -10.768  1.00  0.00     0.000 C 
BRANCH   5   6
HETATM    6  C   UNL     1     -21.744  -3.439 -11.047  1.00  0.00     0.000 C 
BRANCH   6   7
HETATM    7  C   UNL     1     -22.805  -4.299 -11.723  1.00  0.00    -0.000 C 
BRANCH   7   8
HETATM    8  C   UNL     1     -23.923  -4.654 -10.750  1.00  0.00    -0.005 C 
HETATM    9  C   UNL     1     -24.328  -3.445  -9.926  1.00  0.00     0.005 C 
ENDBRANCH   7   8
ENDBRANCH   6   7
ENDBRANCH   5   6
ENDBRANCH   4   5
ENDBRANCH   3   4
ENDBRANCH   2   3
ENDBRANCH   1   2
BRANCH   1  10
HETATM   10  C   UNL     1     -20.908  -6.464  -6.111  1.00  0.00     0.000 C 
BRANCH  10  11
HETATM   11  C   UNL     1     -20.628  -7.159  -4.787  1.00  0.00     0.000 C 
BRANCH  11  12
HETATM   12  C   UNL     1     -21.812  -6.997  -3.845  1.00  0.00     0.000 C 
BRANCH  12  13
HETATM   13  C   UNL     1     -21.443  -6.088  -2.682  1.00  0.00     0.000 C 
BRANCH  13  14
HETATM   14  C   UNL     1     -22.233  -6.471  -1.435  1.00  0.00     0.002 C 
BRANCH  14  15
HETATM   15  C   UNL     1     -21.998  -7.931  -1.068  1.00  0.00     0.026 C 
BRANCH  15  16
HETATM   16  C   UNL     1     -22.516  -8.232   0.329  1.00  0.00     0.164 C 
BRANCH  16  17
HETATM   17  O   UNL     1     -23.797  -7.643   0.503  1.00  0.00    -0.401 OA
HETATM   18  H   UNL     1     -23.698  -6.683   0.378  1.00  0.00     0.209 HD
ENDBRANCH  16  17
ENDBRANCH  15  16
ENDBRANCH  14  15
ENDBRANCH  13  14
ENDBRANCH  12  13
ENDBRANCH  11  12
ENDBRANCH  10  11
ENDBRANCH   1  10
TORSDOF 15
ENDMDL
MODEL 7
REMARK VINA RESULT:      -6.0      3.752      7.152
REMARK  15 active torsions:
REMARK  status: ('A' for Active; 'I' for Inactive)
REMARK    1  A    between atoms: C_2  and  C_3 
REMARK    2  A    between atoms: C_3  and  C_4 
REMARK    3  A    between atoms: C_4  and  C_5 
REMARK    4  A    between atoms: C_5  and  C_6 
REMARK    5  A    between atoms: C_6  and  C_7 
REMARK    6  A    between atoms: C_7  and  C_8 
REMARK    7  A    between atoms: C_8  and  C_9 
REMARK    8  A    between atoms: C_9  and  C_10 
REMARK    9  A    between atoms: C_10  and  C_11 
REMARK   10  A    between atoms: C_11  and  C_12 
REMARK   11  A    between atoms: C_12  and  C_13 
REMARK   12  A    between atoms: C_13  and  C_14 
REMARK   13  A    between atoms: C_14  and  C_15 
REMARK   14  A    between atoms: C_15  and  C_16 
REMARK   15  A    between atoms: C_16  and  O_17 
ROOT
HETATM    1  C   UNL     1     -34.789  -1.913 -10.210  1.00  0.00     0.000 C 
ENDROOT
BRANCH   1   2
HETATM    2  C   UNL     1     -33.924  -2.092 -11.447  1.00  0.00     0.000 C 
BRANCH   2   3
HETATM    3  C   UNL     1     -32.822  -3.105 -11.177  1.00  0.00     0.000 C 
BRANCH   3   4
HETATM    4  C   UNL     1     -32.967  -4.302 -12.104  1.00  0.00     0.000 C 
BRANCH   4   5
HETATM    5  C   UNL     1     -34.432  -4.539 -12.437  1.00  0.00     0.000 C 
BRANCH   5   6
HETATM    6  C   UNL     1     -34.894  -5.882 -11.887  1.00  0.00     0.000 C 
BRANCH   6   7
HETATM    7  C   UNL     1     -34.242  -6.158 -10.538  1.00  0.00    -0.000 C 
BRANCH   7   8
HETATM    8  C   UNL     1     -34.899  -7.347  -9.846  1.00  0.00    -0.005 C 
HETATM    9  C   UNL     1     -33.977  -8.553  -9.853  1.00  0.00     0.005 C 
ENDBRANCH   7   8
ENDBRANCH   6   7
ENDBRANCH   5   6
ENDBRANCH   4   5
ENDBRANCH   3   4
ENDBRANCH   2   3
ENDBRANCH   1   2
BRANCH   1  10
HETATM   10  C   UNL     1     -36.258  -1.835 -10.600  1.00  0.00     0.000 C 
BRANCH  10  11
HETATM   11  C   UNL     1     -36.710  -0.383 -10.663  1.00  0.00     0.000 C 
BRANCH  11  12
HETATM   12  C   UNL     1     -37.403  -0.103 -11.987  1.00  0.00     0.000 C 
BRANCH  12  13
HETATM   13  C   UNL     1     -36.478  -0.430 -13.151  1.00  0.00     0.000 C 
BRANCH  13  14
HETATM   14  C   UNL     1     -35.349   0.591 -13.237  1.00  0.00     0.002 C 
BRANCH  14  15
HETATM   15  C   UNL     1     -34.926   0.816 -14.683  1.00  0.00     0.026 C 
BRANCH  15  16
HETATM   16  C   UNL     1     -36.063   0.497 -15.640  1.00  0.00     0.164 C 
BRANCH  16  17
HETATM   17  O   UNL     1     -36.762   1.689 -15.967  1.00  0.00    -0.401 OA
HETATM   18  H   UNL     1     -37.352   1.486 -16.714  1.00  0.00     0.209 HD
ENDBRANCH  16  17
ENDBRANCH  15  16
ENDBRANCH  14  15
ENDBRANCH  13  14
ENDBRANCH  12  13
ENDBRANCH  11  12
ENDBRANCH  10  11
ENDBRANCH   1  10
TORSDOF 15
ENDMDL
MODEL 8
REMARK VINA RESULT:      -5.9     13.505     15.953
REMARK  15 active torsions:
REMARK  status: ('A' for Active; 'I' for Inactive)
REMARK    1  A    between atoms: C_2  and  C_3 
REMARK    2  A    between atoms: C_3  and  C_4 
REMARK    3  A    between atoms: C_4  and  C_5 
REMARK    4  A    between atoms: C_5  and  C_6 
REMARK    5  A    between atoms: C_6  and  C_7 
REMARK    6  A    between atoms: C_7  and  C_8 
REMARK    7  A    between atoms: C_8  and  C_9 
REMARK    8  A    between atoms: C_9  and  C_10 
REMARK    9  A    between atoms: C_10  and  C_11 
REMARK   10  A    between atoms: C_11  and  C_12 
REMARK   11  A    between atoms: C_12  and  C_13 
REMARK   12  A    between atoms: C_13  and  C_14 
REMARK   13  A    between atoms: C_14  and  C_15 
REMARK   14  A    between atoms: C_15  and  C_16 
REMARK   15  A    between atoms: C_16  and  O_17 
ROOT
HETATM    1  C   UNL     1     -21.080  -7.114  -5.591  1.00  0.00     0.000 C 
ENDROOT
BRANCH   1   2
HETATM    2  C   UNL     1     -21.901  -6.408  -4.524  1.00  0.00     0.000 C 
BRANCH   2   3
HETATM    3  C   UNL     1     -21.372  -6.752  -3.140  1.00  0.00     0.000 C 
BRANCH   3   4
HETATM    4  C   UNL     1     -22.191  -6.042  -2.072  1.00  0.00     0.000 C 
BRANCH   4   5
HETATM    5  C   UNL     1     -22.382  -6.947  -0.864  1.00  0.00     0.000 C 
BRANCH   5   6
HETATM    6  C   UNL     1     -21.713  -8.295  -1.095  1.00  0.00     0.000 C 
BRANCH   6   7
HETATM    7  C   UNL     1     -22.318  -9.354  -0.182  1.00  0.00    -0.000 C 
BRANCH   7   8
HETATM    8  C   UNL     1     -23.050 -10.419  -0.990  1.00  0.00    -0.005 C 
HETATM    9  C   UNL     1     -23.977 -11.230  -0.102  1.00  0.00     0.005 C 
ENDBRANCH   7   8
ENDBRANCH   6   7
ENDBRANCH   5   6
ENDBRANCH   4   5
ENDBRANCH   3   4
ENDBRANCH   2   3
ENDBRANCH   1   2
BRANCH   1  10
HETATM   10  C   UNL     1     -20.294  -6.101  -6.408  1.00  0.00     0.000 C 
BRANCH  10  11
HETATM   11  C   UNL     1     -20.924  -4.721  -6.286  1.00  0.00     0.000 C 
BRANCH  11  12
HETATM   12  C   UNL     1     -20.506  -3.845  -7.457  1.00  0.00     0.000 C 
BRANCH  12  13
HETATM   13  C   UNL     1     -20.545  -4.638  -8.755  1.00  0.00     0.000 C 
BRANCH  13  14
HETATM   14  C   UNL     1     -21.637  -4.101  -9.675  1.00  0.00     0.002 C 
BRANCH  14  15
HETATM   15  C   UNL     1     -23.008  -4.612  -9.250  1.00  0.00     0.026 C 
BRANCH  15  16
HETATM   16  C   UNL     1     -24.055  -3.515  -9.358  1.00  0.00     0.164 C 
BRANCH  16  17
HETATM   17  O   UNL     1     -25.314  -4.086  -9.686  1.00  0.00    -0.401 OA
HETATM   18  H   UNL     1     -25.874  -3.374 -10.041  1.00  0.00     0.209 HD
ENDBRANCH  16  17
ENDBRANCH  15  16
ENDBRANCH  14  15
ENDBRANCH  13  14
ENDBRANCH  12  13
ENDBRANCH  11  12
ENDBRANCH  10  11
ENDBRANCH   1  10
TORSDOF 15
ENDMDL
MODEL 9
REMARK VINA RESULT:      -5.7     12.951     15.582
REMARK  15 active torsions:
REMARK  status: ('A' for Active; 'I' for Inactive)
REMARK    1  A    between atoms: C_2  and  C_3 
REMARK    2  A    between atoms: C_3  and  C_4 
REMARK    3  A    between atoms: C_4  and  C_5 
REMARK    4  A    between atoms: C_5  and  C_6 
REMARK    5  A    between atoms: C_6  and  C_7 
REMARK    6  A    between atoms: C_7  and  C_8 
REMARK    7  A    between atoms: C_8  and  C_9 
REMARK    8  A    between atoms: C_9  and  C_10 
REMARK    9  A    between atoms: C_10  and  C_11 
REMARK   10  A    between atoms: C_11  and  C_12 
REMARK   11  A    between atoms: C_12  and  C_13 
REMARK   12  A    between atoms: C_13  and  C_14 
REMARK   13  A    between atoms: C_14  and  C_15 
REMARK   14  A    between atoms: C_15  and  C_16 
REMARK   15  A    between atoms: C_16  and  O_17 
ROOT
HETATM    1  C   UNL     1     -20.787  -3.847  -7.259  1.00  0.00     0.000 C 
ENDROOT
BRANCH   1   2
HETATM    2  C   UNL     1     -20.946  -4.671  -8.526  1.00  0.00     0.000 C 
BRANCH   2   3
HETATM    3  C   UNL     1     -21.786  -3.914  -9.544  1.00  0.00     0.000 C 
BRANCH   3   4
HETATM    4  C   UNL     1     -21.492  -4.418 -10.948  1.00  0.00     0.000 C 
BRANCH   4   5
HETATM    5  C   UNL     1     -21.764  -3.325 -11.971  1.00  0.00     0.000 C 
BRANCH   5   6
HETATM    6  C   UNL     1     -23.178  -2.784 -11.810  1.00  0.00     0.000 C 
BRANCH   6   7
HETATM    7  C   UNL     1     -23.979  -2.995 -13.089  1.00  0.00    -0.000 C 
BRANCH   7   8
HETATM    8  C   UNL     1     -23.125  -2.721 -14.321  1.00  0.00    -0.005 C 
HETATM    9  C   UNL     1     -23.525  -1.413 -14.977  1.00  0.00     0.005 C 
ENDBRANCH   7   8
ENDBRANCH   6   7
ENDBRANCH   5   6
ENDBRANCH   4   5
ENDBRANCH   3   4
ENDBRANCH   2   3
ENDBRANCH   1   2
BRANCH   1  10
HETATM   10  C   UNL     1     -20.554  -4.758  -6.063  1.00  0.00     0.000 C 
BRANCH  10  11
HETATM   11  C   UNL     1     -20.732  -6.214  -6.466  1.00  0.00     0.000 C 
BRANCH  11  12
HETATM   12  C   UNL     1     -20.636  -7.116  -5.246  1.00  0.00     0.000 C 
BRANCH  12  13
HETATM   13  C   UNL     1     -21.743  -6.787  -4.255  1.00  0.00     0.000 C 
BRANCH  13  14
HETATM   14  C   UNL     1     -21.151  -6.420  -2.898  1.00  0.00     0.002 C 
BRANCH  14  15
HETATM   15  C   UNL     1     -22.244  -6.288  -1.844  1.00  0.00     0.026 C 
BRANCH  15  16
HETATM   16  C   UNL     1     -22.242  -7.483  -0.904  1.00  0.00     0.164 C 
BRANCH  16  17
HETATM   17  O   UNL     1     -23.289  -7.347   0.046  1.00  0.00    -0.401 OA
HETATM   18  H   UNL     1     -23.478  -8.232   0.402  1.00  0.00     0.209 HD
ENDBRANCH  16  17
ENDBRANCH  15  16
ENDBRANCH  14  15
ENDBRANCH  13  14
ENDBRANCH  12  13
ENDBRANCH  11  12
ENDBRANCH  10  11
ENDBRANCH   1  10
TORSDOF 15
ENDMDL
