MODEL 1
REMARK VINA RESULT:      -7.2      0.000      0.000
REMARK  16 active torsions:
REMARK  status: ('A' for Active; 'I' for Inactive)
REMARK    1  A    between atoms: C_2  and  C_3 
REMARK    2  A    between atoms: C_3  and  C_4 
REMARK    3  A    between atoms: C_4  and  C_5 
REMARK    4  A    between atoms: C_5  and  C_6 
REMARK    5  A    between atoms: C_5  and  C_8 
REMARK    6  A    between atoms: C_8  and  O_9 
REMARK    7  A    between atoms: O_9  and  C_10 
REMARK    8  A    between atoms: C_10  and  C_12 
REMARK    9  A    between atoms: C_17  and  C_18 
REMARK   10  A    between atoms: C_18  and  O_20 
REMARK   11  A    between atoms: O_20  and  C_21 
REMARK   12  A    between atoms: C_21  and  C_22 
REMARK   13  A    between atoms: C_22  and  C_23 
REMARK   14  A    between atoms: C_22  and  C_25 
REMARK   15  A    between atoms: C_25  and  C_26 
REMARK   16  A    between atoms: C_26  and  C_27 
ROOT
HETATM    1  C   UNL     1     -21.229  -7.336  -3.008  1.00  0.00     0.055 A 
HETATM    2  C   UNL     1     -20.242  -8.228  -2.532  1.00  0.00     0.018 A 
HETATM    3  C   UNL     1     -19.568  -9.087  -3.398  1.00  0.00     0.001 A 
HETATM    4  C   UNL     1     -19.880  -9.080  -4.748  1.00  0.00     0.001 A 
HETATM    5  C   UNL     1     -20.824  -8.173  -5.240  1.00  0.00     0.018 A 
HETATM    6  C   UNL     1     -21.478  -7.265  -4.380  1.00  0.00     0.055 A 
ENDROOT
BRANCH   1   7
HETATM    7  C   UNL     1     -21.957  -6.530  -1.994  1.00  0.00     0.294 C 
HETATM    8  O   UNL     1     -21.864  -5.331  -1.828  1.00  0.00    -0.259 OA
BRANCH   7   9
HETATM    9  O   UNL     1     -22.701  -7.377  -1.235  1.00  0.00    -0.317 OA
BRANCH   9  10
HETATM   10  C   UNL     1     -22.267  -7.543   0.122  1.00  0.00     0.183 C 
BRANCH  10  11
HETATM   11  C   UNL     1     -22.312  -8.999   0.611  1.00  0.00     0.010 C 
BRANCH  11  12
HETATM   12  C   UNL     1     -22.784  -9.939  -0.521  1.00  0.00     0.007 C 
BRANCH  12  13
HETATM   13  C   UNL     1     -24.011 -10.802  -0.205  1.00  0.00     0.000 C 
BRANCH  13  14
HETATM   14  C   UNL     1     -23.772 -12.307  -0.331  1.00  0.00    -0.005 C 
HETATM   15  C   UNL     1     -23.260 -12.883   0.981  1.00  0.00     0.005 C 
ENDBRANCH  13  14
ENDBRANCH  12  13
ENDBRANCH  11  12
BRANCH  11  16
HETATM   16  C   UNL     1     -20.958  -9.386   1.247  1.00  0.00     0.002 C 
HETATM   17  C   UNL     1     -20.335 -10.675   0.728  1.00  0.00     0.005 C 
ENDBRANCH  11  16
ENDBRANCH  10  11
ENDBRANCH   9  10
ENDBRANCH   7   9
ENDBRANCH   1   7
BRANCH   6  18
HETATM   18  C   UNL     1     -22.360  -6.275  -5.056  1.00  0.00     0.294 C 
HETATM   19  O   UNL     1     -23.563  -6.247  -4.881  1.00  0.00    -0.259 OA
BRANCH  18  20
HETATM   20  O   UNL     1     -21.675  -5.686  -6.067  1.00  0.00    -0.317 OA
BRANCH  20  21
HETATM   21  C   UNL     1     -22.403  -4.748  -6.877  1.00  0.00     0.183 C 
BRANCH  21  22
HETATM   22  C   UNL     1     -21.523  -3.799  -7.720  1.00  0.00     0.010 C 
BRANCH  22  23
HETATM   23  C   UNL     1     -20.092  -4.337  -7.950  1.00  0.00     0.002 C 
HETATM   24  C   UNL     1     -19.797  -4.815  -9.368  1.00  0.00     0.005 C 
ENDBRANCH  22  23
BRANCH  22  25
HETATM   25  C   UNL     1     -22.202  -3.469  -9.076  1.00  0.00     0.007 C 
BRANCH  25  26
HETATM   26  C   UNL     1     -23.517  -4.223  -9.298  1.00  0.00     0.000 C 
BRANCH  26  27
HETATM   27  C   UNL     1     -23.738  -4.595 -10.764  1.00  0.00    -0.005 C 
HETATM   28  C   UNL     1     -24.333  -3.419 -11.527  1.00  0.00     0.005 C 
ENDBRANCH  26  27
ENDBRANCH  25  26
ENDBRANCH  22  25
ENDBRANCH  21  22
ENDBRANCH  20  21
ENDBRANCH  18  20
ENDBRANCH   6  18
TORSDOF 16
ENDMDL
MODEL 2
REMARK VINA RESULT:      -7.0      2.644      8.689
REMARK  16 active torsions:
REMARK  status: ('A' for Active; 'I' for Inactive)
REMARK    1  A    between atoms: C_2  and  C_3 
REMARK    2  A    between atoms: C_3  and  C_4 
REMARK    3  A    between atoms: C_4  and  C_5 
REMARK    4  A    between atoms: C_5  and  C_6 
REMARK    5  A    between atoms: C_5  and  C_8 
REMARK    6  A    between atoms: C_8  and  O_9 
REMARK    7  A    between atoms: O_9  and  C_10 
REMARK    8  A    between atoms: C_10  and  C_12 
REMARK    9  A    between atoms: C_17  and  C_18 
REMARK   10  A    between atoms: C_18  and  O_20 
REMARK   11  A    between atoms: O_20  and  C_21 
REMARK   12  A    between atoms: C_21  and  C_22 
REMARK   13  A    between atoms: C_22  and  C_23 
REMARK   14  A    between atoms: C_22  and  C_25 
REMARK   15  A    between atoms: C_25  and  C_26 
REMARK   16  A    between atoms: C_26  and  C_27 
ROOT
HETATM    1  C   UNL     1     -21.137  -7.364  -3.854  1.00  0.00     0.055 A 
HETATM    2  C   UNL     1     -21.794  -6.235  -3.313  1.00  0.00     0.018 A 
HETATM    3  C   UNL     1     -22.135  -6.177  -1.963  1.00  0.00     0.001 A 
HETATM    4  C   UNL     1     -21.839  -7.250  -1.136  1.00  0.00     0.001 A 
HETATM    5  C   UNL     1     -21.151  -8.354  -1.648  1.00  0.00     0.018 A 
HETATM    6  C   UNL     1     -20.758  -8.403  -3.002  1.00  0.00     0.055 A 
ENDROOT
BRANCH   1   7
HETATM    7  C   UNL     1     -20.902  -7.370  -5.320  1.00  0.00     0.294 C 
HETATM    8  O   UNL     1     -21.247  -8.235  -6.100  1.00  0.00    -0.259 OA
BRANCH   7   9
HETATM    9  O   UNL     1     -20.174  -6.267  -5.637  1.00  0.00    -0.317 OA
BRANCH   9  10
HETATM   10  C   UNL     1     -20.235  -5.852  -7.009  1.00  0.00     0.183 C 
BRANCH  10  11
HETATM   11  C   UNL     1     -20.134  -4.331  -7.198  1.00  0.00     0.010 C 
BRANCH  11  12
HETATM   12  C   UNL     1     -19.490  -3.993  -8.563  1.00  0.00     0.007 C 
BRANCH  12  13
HETATM   13  C   UNL     1     -20.107  -4.687  -9.783  1.00  0.00     0.000 C 
BRANCH  13  14
HETATM   14  C   UNL     1     -20.515  -3.735 -10.908  1.00  0.00    -0.005 C 
HETATM   15  C   UNL     1     -22.013  -3.818 -11.167  1.00  0.00     0.005 C 
ENDBRANCH  13  14
ENDBRANCH  12  13
ENDBRANCH  11  12
BRANCH  11  16
HETATM   16  C   UNL     1     -21.510  -3.673  -6.956  1.00  0.00     0.002 C 
HETATM   17  C   UNL     1     -22.717  -4.524  -7.329  1.00  0.00     0.005 C 
ENDBRANCH  11  16
ENDBRANCH  10  11
ENDBRANCH   9  10
ENDBRANCH   7   9
ENDBRANCH   1   7
BRANCH   6  18
HETATM   18  C   UNL     1     -19.924  -9.577  -3.377  1.00  0.00     0.294 C 
HETATM   19  O   UNL     1     -20.407 -10.651  -3.680  1.00  0.00    -0.259 OA
BRANCH  18  20
HETATM   20  O   UNL     1     -18.637  -9.339  -3.024  1.00  0.00    -0.317 OA
BRANCH  20  21
HETATM   21  C   UNL     1     -17.944 -10.407  -2.354  1.00  0.00     0.183 C 
BRANCH  21  22
HETATM   22  C   UNL     1     -16.406 -10.277  -2.342  1.00  0.00     0.010 C 
BRANCH  22  23
HETATM   23  C   UNL     1     -15.678 -11.639  -2.257  1.00  0.00     0.002 C 
HETATM   24  C   UNL     1     -15.854 -12.389  -0.942  1.00  0.00     0.005 C 
ENDBRANCH  22  23
BRANCH  22  25
HETATM   25  C   UNL     1     -15.907  -9.472  -3.571  1.00  0.00     0.007 C 
BRANCH  25  26
HETATM   26  C   UNL     1     -15.761 -10.323  -4.837  1.00  0.00     0.000 C 
BRANCH  26  27
HETATM   27  C   UNL     1     -16.617  -9.805  -5.992  1.00  0.00    -0.005 C 
HETATM   28  C   UNL     1     -17.793 -10.739  -6.244  1.00  0.00     0.005 C 
ENDBRANCH  26  27
ENDBRANCH  25  26
ENDBRANCH  22  25
ENDBRANCH  21  22
ENDBRANCH  20  21
ENDBRANCH  18  20
ENDBRANCH   6  18
TORSDOF 16
ENDMDL
MODEL 3
REMARK VINA RESULT:      -7.0      1.964      3.139
REMARK  16 active torsions:
REMARK  status: ('A' for Active; 'I' for Inactive)
REMARK    1  A    between atoms: C_2  and  C_3 
REMARK    2  A    between atoms: C_3  and  C_4 
REMARK    3  A    between atoms: C_4  and  C_5 
REMARK    4  A    between atoms: C_5  and  C_6 
REMARK    5  A    between atoms: C_5  and  C_8 
REMARK    6  A    between atoms: C_8  and  O_9 
REMARK    7  A    between atoms: O_9  and  C_10 
REMARK    8  A    between atoms: C_10  and  C_12 
REMARK    9  A    between atoms: C_17  and  C_18 
REMARK   10  A    between atoms: C_18  and  O_20 
REMARK   11  A    between atoms: O_20  and  C_21 
REMARK   12  A    between atoms: C_21  and  C_22 
REMARK   13  A    between atoms: C_22  and  C_23 
REMARK   14  A    between atoms: C_22  and  C_25 
REMARK   15  A    between atoms: C_25  and  C_26 
REMARK   16  A    between atoms: C_26  and  C_27 
ROOT
HETATM    1  C   UNL     1     -20.523  -8.274  -2.872  1.00  0.00     0.055 A 
HETATM    2  C   UNL     1     -20.923  -8.247  -1.517  1.00  0.00     0.018 A 
HETATM    3  C   UNL     1     -21.800  -7.273  -1.043  1.00  0.00     0.001 A 
HETATM    4  C   UNL     1     -22.279  -6.303  -1.910  1.00  0.00     0.001 A 
HETATM    5  C   UNL     1     -21.926  -6.344  -3.263  1.00  0.00     0.018 A 
HETATM    6  C   UNL     1     -21.078  -7.353  -3.764  1.00  0.00     0.055 A 
ENDROOT
BRANCH   1   7
HETATM    7  C   UNL     1     -19.513  -9.292  -3.258  1.00  0.00     0.294 C 
HETATM    8  O   UNL     1     -18.312  -9.127  -3.317  1.00  0.00    -0.259 OA
BRANCH   7   9
HETATM    9  O   UNL     1     -20.171 -10.432  -3.600  1.00  0.00    -0.317 OA
BRANCH   9  10
HETATM   10  C   UNL     1     -19.864 -11.589  -2.810  1.00  0.00     0.183 C 
BRANCH  10  11
HETATM   11  C   UNL     1     -20.728 -11.718  -1.545  1.00  0.00     0.010 C 
BRANCH  11  12
HETATM   12  C   UNL     1     -21.691 -12.921  -1.664  1.00  0.00     0.007 C 
BRANCH  12  13
HETATM   13  C   UNL     1     -23.182 -12.578  -1.768  1.00  0.00     0.000 C 
BRANCH  13  14
HETATM   14  C   UNL     1     -23.506 -11.103  -1.526  1.00  0.00    -0.005 C 
HETATM   15  C   UNL     1     -24.035 -10.893  -0.114  1.00  0.00     0.005 C 
ENDBRANCH  13  14
ENDBRANCH  12  13
ENDBRANCH  11  12
BRANCH  11  16
HETATM   16  C   UNL     1     -19.830 -11.734  -0.289  1.00  0.00     0.002 C 
HETATM   17  C   UNL     1     -20.361 -10.952   0.905  1.00  0.00     0.005 C 
ENDBRANCH  11  16
ENDBRANCH  10  11
ENDBRANCH   9  10
ENDBRANCH   7   9
ENDBRANCH   1   7
BRANCH   6  18
HETATM   18  C   UNL     1     -20.891  -7.348  -5.240  1.00  0.00     0.294 C 
HETATM   19  O   UNL     1     -21.393  -8.186  -5.964  1.00  0.00    -0.259 OA
BRANCH  18  20
HETATM   20  O   UNL     1     -19.874  -6.509  -5.557  1.00  0.00    -0.317 OA
BRANCH  20  21
HETATM   21  C   UNL     1     -20.240  -5.174  -5.947  1.00  0.00     0.183 C 
BRANCH  21  22
HETATM   22  C   UNL     1     -20.889  -5.060  -7.343  1.00  0.00     0.010 C 
BRANCH  22  23
HETATM   23  C   UNL     1     -21.900  -3.895  -7.453  1.00  0.00     0.002 C 
HETATM   24  C   UNL     1     -23.337  -4.305  -7.753  1.00  0.00     0.005 C 
ENDBRANCH  22  23
BRANCH  22  25
HETATM   25  C   UNL     1     -19.810  -4.947  -8.451  1.00  0.00     0.007 C 
BRANCH  25  26
HETATM   26  C   UNL     1     -20.133  -3.888  -9.510  1.00  0.00     0.000 C 
BRANCH  26  27
HETATM   27  C   UNL     1     -20.418  -4.499 -10.881  1.00  0.00    -0.005 C 
HETATM   28  C   UNL     1     -21.870  -4.267 -11.276  1.00  0.00     0.005 C 
ENDBRANCH  26  27
ENDBRANCH  25  26
ENDBRANCH  22  25
ENDBRANCH  21  22
ENDBRANCH  20  21
ENDBRANCH  18  20
ENDBRANCH   6  18
TORSDOF 16
ENDMDL
MODEL 4
REMARK VINA RESULT:      -6.9      1.282      2.042
REMARK  16 active torsions:
REMARK  status: ('A' for Active; 'I' for Inactive)
REMARK    1  A    between atoms: C_2  and  C_3 
REMARK    2  A    between atoms: C_3  and  C_4 
REMARK    3  A    between atoms: C_4  and  C_5 
REMARK    4  A    between atoms: C_5  and  C_6 
REMARK    5  A    between atoms: C_5  and  C_8 
REMARK    6  A    between atoms: C_8  and  O_9 
REMARK    7  A    between atoms: O_9  and  C_10 
REMARK    8  A    between atoms: C_10  and  C_12 
REMARK    9  A    between atoms: C_17  and  C_18 
REMARK   10  A    between atoms: C_18  and  O_20 
REMARK   11  A    between atoms: O_20  and  C_21 
REMARK   12  A    between atoms: C_21  and  C_22 
REMARK   13  A    between atoms: C_22  and  C_23 
REMARK   14  A    between atoms: C_22  and  C_25 
REMARK   15  A    between atoms: C_25  and  C_26 
REMARK   16  A    between atoms: C_26  and  C_27 
ROOT
HETATM    1  C   UNL     1     -20.719  -7.720  -2.794  1.00  0.00     0.055 A 
HETATM    2  C   UNL     1     -19.636  -8.561  -2.452  1.00  0.00     0.018 A 
HETATM    3  C   UNL     1     -18.831  -9.136  -3.435  1.00  0.00     0.001 A 
HETATM    4  C   UNL     1     -19.105  -8.892  -4.771  1.00  0.00     0.001 A 
HETATM    5  C   UNL     1     -20.146  -8.027  -5.123  1.00  0.00     0.018 A 
HETATM    6  C   UNL     1     -20.937  -7.402  -4.136  1.00  0.00     0.055 A 
ENDROOT
BRANCH   1   7
HETATM    7  C   UNL     1     -21.574  -7.234  -1.681  1.00  0.00     0.294 C 
HETATM    8  O   UNL     1     -22.227  -6.210  -1.670  1.00  0.00    -0.259 OA
BRANCH   7   9
HETATM    9  O   UNL     1     -21.451  -8.102  -0.642  1.00  0.00    -0.317 OA
BRANCH   9  10
HETATM   10  C   UNL     1     -22.670  -8.704  -0.185  1.00  0.00     0.183 C 
BRANCH  10  11
HETATM   11  C   UNL     1     -22.952 -10.078  -0.814  1.00  0.00     0.010 C 
BRANCH  11  12
HETATM   12  C   UNL     1     -21.641 -10.878  -0.987  1.00  0.00     0.007 C 
BRANCH  12  13
HETATM   13  C   UNL     1     -21.447 -11.557  -2.349  1.00  0.00     0.000 C 
BRANCH  13  14
HETATM   14  C   UNL     1     -22.355 -11.019  -3.455  1.00  0.00    -0.005 C 
HETATM   15  C   UNL     1     -21.841 -11.438  -4.825  1.00  0.00     0.005 C 
ENDBRANCH  13  14
ENDBRANCH  12  13
ENDBRANCH  11  12
BRANCH  11  16
HETATM   16  C   UNL     1     -24.052 -10.810  -0.014  1.00  0.00     0.002 C 
HETATM   17  C   UNL     1     -23.694 -12.213   0.458  1.00  0.00     0.005 C 
ENDBRANCH  11  16
ENDBRANCH  10  11
ENDBRANCH   9  10
ENDBRANCH   7   9
ENDBRANCH   1   7
BRANCH   6  18
HETATM   18  C   UNL     1     -21.923  -6.412  -4.649  1.00  0.00     0.294 C 
HETATM   19  O   UNL     1     -23.121  -6.621  -4.642  1.00  0.00    -0.259 OA
BRANCH  18  20
HETATM   20  O   UNL     1     -21.270  -5.464  -5.365  1.00  0.00    -0.317 OA
BRANCH  20  21
HETATM   21  C   UNL     1     -21.532  -5.431  -6.779  1.00  0.00     0.183 C 
BRANCH  21  22
HETATM   22  C   UNL     1     -21.431  -4.033  -7.425  1.00  0.00     0.010 C 
BRANCH  22  23
HETATM   23  C   UNL     1     -20.012  -3.698  -7.939  1.00  0.00     0.002 C 
HETATM   24  C   UNL     1     -18.920  -4.677  -7.520  1.00  0.00     0.005 C 
ENDBRANCH  22  23
BRANCH  22  25
HETATM   25  C   UNL     1     -22.471  -3.871  -8.565  1.00  0.00     0.007 C 
BRANCH  25  26
HETATM   26  C   UNL     1     -21.882  -4.089  -9.962  1.00  0.00     0.000 C 
BRANCH  26  27
HETATM   27  C   UNL     1     -22.952  -4.406 -11.006  1.00  0.00    -0.005 C 
HETATM   28  C   UNL     1     -23.940  -3.254 -11.121  1.00  0.00     0.005 C 
ENDBRANCH  26  27
ENDBRANCH  25  26
ENDBRANCH  22  25
ENDBRANCH  21  22
ENDBRANCH  20  21
ENDBRANCH  18  20
ENDBRANCH   6  18
TORSDOF 16
ENDMDL
MODEL 5
REMARK VINA RESULT:      -6.8      3.042      5.269
REMARK  16 active torsions:
REMARK  status: ('A' for Active; 'I' for Inactive)
REMARK    1  A    between atoms: C_2  and  C_3 
REMARK    2  A    between atoms: C_3  and  C_4 
REMARK    3  A    between atoms: C_4  and  C_5 
REMARK    4  A    between atoms: C_5  and  C_6 
REMARK    5  A    between atoms: C_5  and  C_8 
REMARK    6  A    between atoms: C_8  and  O_9 
REMARK    7  A    between atoms: O_9  and  C_10 
REMARK    8  A    between atoms: C_10  and  C_12 
REMARK    9  A    between atoms: C_17  and  C_18 
REMARK   10  A    between atoms: C_18  and  O_20 
REMARK   11  A    between atoms: O_20  and  C_21 
REMARK   12  A    between atoms: C_21  and  C_22 
REMARK   13  A    between atoms: C_22  and  C_23 
REMARK   14  A    between atoms: C_22  and  C_25 
REMARK   15  A    between atoms: C_25  and  C_26 
REMARK   16  A    between atoms: C_26  and  C_27 
ROOT
HETATM    1  C   UNL     1     -20.838  -8.447  -3.045  1.00  0.00     0.055 A 
HETATM    2  C   UNL     1     -21.036  -8.579  -1.652  1.00  0.00     0.018 A 
HETATM    3  C   UNL     1     -21.704  -7.598  -0.921  1.00  0.00     0.001 A 
HETATM    4  C   UNL     1     -22.170  -6.463  -1.567  1.00  0.00     0.001 A 
HETATM    5  C   UNL     1     -22.020  -6.339  -2.952  1.00  0.00     0.018 A 
HETATM    6  C   UNL     1     -21.389  -7.348  -3.709  1.00  0.00     0.055 A 
ENDROOT
BRANCH   1   7
HETATM    7  C   UNL     1     -20.033  -9.499  -3.716  1.00  0.00     0.294 C 
HETATM    8  O   UNL     1     -20.411 -10.615  -4.011  1.00  0.00    -0.259 OA
BRANCH   7   9
HETATM    9  O   UNL     1     -18.772  -9.022  -3.887  1.00  0.00    -0.317 OA
BRANCH   9  10
HETATM   10  C   UNL     1     -18.024  -9.609  -4.961  1.00  0.00     0.183 C 
BRANCH  10  11
HETATM   11  C   UNL     1     -16.735 -10.309  -4.504  1.00  0.00     0.010 C 
BRANCH  11  12
HETATM   12  C   UNL     1     -15.704 -10.357  -5.655  1.00  0.00     0.007 C 
BRANCH  12  13
HETATM   13  C   UNL     1     -15.649 -11.668  -6.450  1.00  0.00     0.000 C 
BRANCH  13  14
HETATM   14  C   UNL     1     -14.282 -12.353  -6.439  1.00  0.00    -0.005 C 
HETATM   15  C   UNL     1     -13.593 -12.160  -5.096  1.00  0.00     0.005 C 
ENDBRANCH  13  14
ENDBRANCH  12  13
ENDBRANCH  11  12
BRANCH  11  16
HETATM   16  C   UNL     1     -16.214  -9.664  -3.201  1.00  0.00     0.002 C 
HETATM   17  C   UNL     1     -15.779 -10.640  -2.116  1.00  0.00     0.005 C 
ENDBRANCH  11  16
ENDBRANCH  10  11
ENDBRANCH   9  10
ENDBRANCH   7   9
ENDBRANCH   1   7
BRANCH   6  18
HETATM   18  C   UNL     1     -21.412  -7.143  -5.183  1.00  0.00     0.294 C 
HETATM   19  O   UNL     1     -21.340  -8.066  -5.971  1.00  0.00    -0.259 OA
BRANCH  18  20
HETATM   20  O   UNL     1     -21.210  -5.830  -5.452  1.00  0.00    -0.317 OA
BRANCH  20  21
HETATM   21  C   UNL     1     -22.108  -5.219  -6.394  1.00  0.00     0.183 C 
BRANCH  21  22
HETATM   22  C   UNL     1     -21.425  -4.574  -7.618  1.00  0.00     0.010 C 
BRANCH  22  23
HETATM   23  C   UNL     1     -20.065  -5.222  -7.971  1.00  0.00     0.002 C 
HETATM   24  C   UNL     1     -18.836  -4.427  -7.545  1.00  0.00     0.005 C 
ENDBRANCH  22  23
BRANCH  22  25
HETATM   25  C   UNL     1     -22.366  -4.587  -8.852  1.00  0.00     0.007 C 
BRANCH  25  26
HETATM   26  C   UNL     1     -21.793  -3.843 -10.062  1.00  0.00     0.000 C 
BRANCH  26  27
HETATM   27  C   UNL     1     -22.881  -3.367 -11.025  1.00  0.00    -0.005 C 
HETATM   28  C   UNL     1     -22.303  -3.154 -12.417  1.00  0.00     0.005 C 
ENDBRANCH  26  27
ENDBRANCH  25  26
ENDBRANCH  22  25
ENDBRANCH  21  22
ENDBRANCH  20  21
ENDBRANCH  18  20
ENDBRANCH   6  18
TORSDOF 16
ENDMDL
MODEL 6
REMARK VINA RESULT:      -6.8      2.439      4.197
REMARK  16 active torsions:
REMARK  status: ('A' for Active; 'I' for Inactive)
REMARK    1  A    between atoms: C_2  and  C_3 
REMARK    2  A    between atoms: C_3  and  C_4 
REMARK    3  A    between atoms: C_4  and  C_5 
REMARK    4  A    between atoms: C_5  and  C_6 
REMARK    5  A    between atoms: C_5  and  C_8 
REMARK    6  A    between atoms: C_8  and  O_9 
REMARK    7  A    between atoms: O_9  and  C_10 
REMARK    8  A    between atoms: C_10  and  C_12 
REMARK    9  A    between atoms: C_17  and  C_18 
REMARK   10  A    between atoms: C_18  and  O_20 
REMARK   11  A    between atoms: O_20  and  C_21 
REMARK   12  A    between atoms: C_21  and  C_22 
REMARK   13  A    between atoms: C_22  and  C_23 
REMARK   14  A    between atoms: C_22  and  C_25 
REMARK   15  A    between atoms: C_25  and  C_26 
REMARK   16  A    between atoms: C_26  and  C_27 
ROOT
HETATM    1  C   UNL     1     -18.683 -10.728  -3.064  1.00  0.00     0.055 A 
HETATM    2  C   UNL     1     -17.592 -10.635  -2.170  1.00  0.00     0.018 A 
HETATM    3  C   UNL     1     -16.352 -10.160  -2.593  1.00  0.00     0.001 A 
HETATM    4  C   UNL     1     -16.178  -9.785  -3.916  1.00  0.00     0.001 A 
HETATM    5  C   UNL     1     -17.259  -9.831  -4.801  1.00  0.00     0.018 A 
HETATM    6  C   UNL     1     -18.532 -10.265  -4.373  1.00  0.00     0.055 A 
ENDROOT
BRANCH   1   7
HETATM    7  C   UNL     1     -19.934 -11.335  -2.542  1.00  0.00     0.294 C 
HETATM    8  O   UNL     1     -20.333 -12.461  -2.761  1.00  0.00    -0.259 OA
BRANCH   7   9
HETATM    9  O   UNL     1     -20.596 -10.389  -1.824  1.00  0.00    -0.317 OA
BRANCH   9  10
HETATM   10  C   UNL     1     -22.027 -10.429  -1.910  1.00  0.00     0.183 C 
BRANCH  10  11
HETATM   11  C   UNL     1     -22.736  -9.787  -0.707  1.00  0.00     0.010 C 
BRANCH  11  12
HETATM   12  C   UNL     1     -23.902 -10.679  -0.222  1.00  0.00     0.007 C 
BRANCH  12  13
HETATM   13  C   UNL     1     -23.676 -12.192  -0.329  1.00  0.00     0.000 C 
BRANCH  13  14
HETATM   14  C   UNL     1     -23.267 -12.861   0.984  1.00  0.00    -0.005 C 
HETATM   15  C   UNL     1     -21.759 -13.062   1.039  1.00  0.00     0.005 C 
ENDBRANCH  13  14
ENDBRANCH  12  13
ENDBRANCH  11  12
BRANCH  11  16
HETATM   16  C   UNL     1     -21.704  -9.426   0.385  1.00  0.00     0.002 C 
HETATM   17  C   UNL     1     -21.885  -8.057   1.028  1.00  0.00     0.005 C 
ENDBRANCH  11  16
ENDBRANCH  10  11
ENDBRANCH   9  10
ENDBRANCH   7   9
ENDBRANCH   1   7
BRANCH   6  18
HETATM   18  C   UNL     1     -19.617 -10.142  -5.385  1.00  0.00     0.294 C 
HETATM   19  O   UNL     1     -19.921 -11.054  -6.128  1.00  0.00    -0.259 OA
BRANCH  18  20
HETATM   20  O   UNL     1     -19.940  -8.834  -5.532  1.00  0.00    -0.317 OA
BRANCH  20  21
HETATM   21  C   UNL     1     -21.026  -8.344  -4.726  1.00  0.00     0.183 C 
BRANCH  21  22
HETATM   22  C   UNL     1     -21.380  -6.858  -4.949  1.00  0.00     0.010 C 
BRANCH  22  23
HETATM   23  C   UNL     1     -21.215  -5.994  -3.677  1.00  0.00     0.002 C 
HETATM   24  C   UNL     1     -21.929  -6.518  -2.437  1.00  0.00     0.005 C 
ENDBRANCH  22  23
BRANCH  22  25
HETATM   25  C   UNL     1     -20.558  -6.259  -6.120  1.00  0.00     0.007 C 
BRANCH  25  26
HETATM   26  C   UNL     1     -20.303  -4.755  -5.979  1.00  0.00     0.000 C 
BRANCH  26  27
HETATM   27  C   UNL     1     -20.542  -3.996  -7.284  1.00  0.00    -0.005 C 
HETATM   28  C   UNL     1     -22.026  -3.982  -7.627  1.00  0.00     0.005 C 
ENDBRANCH  26  27
ENDBRANCH  25  26
ENDBRANCH  22  25
ENDBRANCH  21  22
ENDBRANCH  20  21
ENDBRANCH  18  20
ENDBRANCH   6  18
TORSDOF 16
ENDMDL
MODEL 7
REMARK VINA RESULT:      -6.7      2.359      8.456
REMARK  16 active torsions:
REMARK  status: ('A' for Active; 'I' for Inactive)
REMARK    1  A    between atoms: C_2  and  C_3 
REMARK    2  A    between atoms: C_3  and  C_4 
REMARK    3  A    between atoms: C_4  and  C_5 
REMARK    4  A    between atoms: C_5  and  C_6 
REMARK    5  A    between atoms: C_5  and  C_8 
REMARK    6  A    between atoms: C_8  and  O_9 
REMARK    7  A    between atoms: O_9  and  C_10 
REMARK    8  A    between atoms: C_10  and  C_12 
REMARK    9  A    between atoms: C_17  and  C_18 
REMARK   10  A    between atoms: C_18  and  O_20 
REMARK   11  A    between atoms: O_20  and  C_21 
REMARK   12  A    between atoms: C_21  and  C_22 
REMARK   13  A    between atoms: C_22  and  C_23 
REMARK   14  A    between atoms: C_22  and  C_25 
REMARK   15  A    between atoms: C_25  and  C_26 
REMARK   16  A    between atoms: C_26  and  C_27 
ROOT
HETATM    1  C   UNL     1     -21.230  -7.532  -3.194  1.00  0.00     0.055 A 
HETATM    2  C   UNL     1     -22.140  -6.724  -2.475  1.00  0.00     0.018 A 
HETATM    3  C   UNL     1     -22.298  -6.867  -1.097  1.00  0.00     0.001 A 
HETATM    4  C   UNL     1     -21.563  -7.827  -0.420  1.00  0.00     0.001 A 
HETATM    5  C   UNL     1     -20.627  -8.603  -1.112  1.00  0.00     0.018 A 
HETATM    6  C   UNL     1     -20.424  -8.435  -2.498  1.00  0.00     0.055 A 
ENDROOT
BRANCH   1   7
HETATM    7  C   UNL     1     -21.204  -7.369  -4.670  1.00  0.00     0.294 C 
HETATM    8  O   UNL     1     -21.581  -8.181  -5.490  1.00  0.00    -0.259 OA
BRANCH   7   9
HETATM    9  O   UNL     1     -20.621  -6.174  -4.954  1.00  0.00    -0.317 OA
BRANCH   9  10
HETATM   10  C   UNL     1     -21.421  -5.255  -5.711  1.00  0.00     0.183 C 
BRANCH  10  11
HETATM   11  C   UNL     1     -21.163  -5.315  -7.224  1.00  0.00     0.010 C 
BRANCH  11  12
HETATM   12  C   UNL     1     -21.739  -4.064  -7.925  1.00  0.00     0.007 C 
BRANCH  12  13
HETATM   13  C   UNL     1     -22.174  -4.254  -9.383  1.00  0.00     0.000 C 
BRANCH  13  14
HETATM   14  C   UNL     1     -21.137  -3.803 -10.413  1.00  0.00    -0.005 C 
HETATM   15  C   UNL     1     -21.663  -3.999 -11.828  1.00  0.00     0.005 C 
ENDBRANCH  13  14
ENDBRANCH  12  13
ENDBRANCH  11  12
BRANCH  11  16
HETATM   16  C   UNL     1     -19.665  -5.573  -7.497  1.00  0.00     0.002 C 
HETATM   17  C   UNL     1     -18.774  -4.338  -7.481  1.00  0.00     0.005 C 
ENDBRANCH  11  16
ENDBRANCH  10  11
ENDBRANCH   9  10
ENDBRANCH   7   9
ENDBRANCH   1   7
BRANCH   6  18
HETATM   18  C   UNL     1     -19.312  -9.236  -3.077  1.00  0.00     0.294 C 
HETATM   19  O   UNL     1     -18.143  -8.993  -2.845  1.00  0.00    -0.259 OA
BRANCH  18  20
HETATM   20  O   UNL     1     -19.795 -10.005  -4.083  1.00  0.00    -0.317 OA
BRANCH  20  21
HETATM   21  C   UNL     1     -20.414 -11.246  -3.705  1.00  0.00     0.183 C 
BRANCH  21  22
HETATM   22  C   UNL     1     -21.827 -11.470  -4.284  1.00  0.00     0.010 C 
BRANCH  22  23
HETATM   23  C   UNL     1     -22.104 -12.942  -4.669  1.00  0.00     0.002 C 
HETATM   24  C   UNL     1     -22.289 -13.201  -6.160  1.00  0.00     0.005 C 
ENDBRANCH  22  23
BRANCH  22  25
HETATM   25  C   UNL     1     -22.917 -10.953  -3.308  1.00  0.00     0.007 C 
BRANCH  25  26
HETATM   26  C   UNL     1     -22.744 -11.466  -1.875  1.00  0.00     0.000 C 
BRANCH  26  27
HETATM   27  C   UNL     1     -24.065 -11.520  -1.109  1.00  0.00    -0.005 C 
HETATM   28  C   UNL     1     -24.046 -10.538   0.054  1.00  0.00     0.005 C 
ENDBRANCH  26  27
ENDBRANCH  25  26
ENDBRANCH  22  25
ENDBRANCH  21  22
ENDBRANCH  20  21
ENDBRANCH  18  20
ENDBRANCH   6  18
TORSDOF 16
ENDMDL
MODEL 8
REMARK VINA RESULT:      -6.6      2.394      8.377
REMARK  16 active torsions:
REMARK  status: ('A' for Active; 'I' for Inactive)
REMARK    1  A    between atoms: C_2  and  C_3 
REMARK    2  A    between atoms: C_3  and  C_4 
REMARK    3  A    between atoms: C_4  and  C_5 
REMARK    4  A    between atoms: C_5  and  C_6 
REMARK    5  A    between atoms: C_5  and  C_8 
REMARK    6  A    between atoms: C_8  and  O_9 
REMARK    7  A    between atoms: O_9  and  C_10 
REMARK    8  A    between atoms: C_10  and  C_12 
REMARK    9  A    between atoms: C_17  and  C_18 
REMARK   10  A    between atoms: C_18  and  O_20 
REMARK   11  A    between atoms: O_20  and  C_21 
REMARK   12  A    between atoms: C_21  and  C_22 
REMARK   13  A    between atoms: C_22  and  C_23 
REMARK   14  A    between atoms: C_22  and  C_25 
REMARK   15  A    between atoms: C_25  and  C_26 
REMARK   16  A    between atoms: C_26  and  C_27 
ROOT
HETATM    1  C   UNL     1     -18.762 -10.216  -4.650  1.00  0.00     0.055 A 
HETATM    2  C   UNL     1     -17.742  -9.959  -5.594  1.00  0.00     0.018 A 
HETATM    3  C   UNL     1     -16.433  -9.703  -5.189  1.00  0.00     0.001 A 
HETATM    4  C   UNL     1     -16.126  -9.685  -3.837  1.00  0.00     0.001 A 
HETATM    5  C   UNL     1     -17.116  -9.980  -2.895  1.00  0.00     0.018 A 
HETATM    6  C   UNL     1     -18.433 -10.288  -3.295  1.00  0.00     0.055 A 
ENDROOT
BRANCH   1   7
HETATM    7  C   UNL     1     -20.141 -10.383  -5.175  1.00  0.00     0.294 C 
HETATM    8  O   UNL     1     -20.827 -11.381  -5.092  1.00  0.00    -0.259 OA
BRANCH   7   9
HETATM    9  O   UNL     1     -20.487  -9.240  -5.827  1.00  0.00    -0.317 OA
BRANCH   9  10
HETATM   10  C   UNL     1     -21.166  -8.254  -5.038  1.00  0.00     0.183 C 
BRANCH  10  11
HETATM   11  C   UNL     1     -20.450  -6.894  -5.001  1.00  0.00     0.010 C 
BRANCH  11  12
HETATM   12  C   UNL     1     -20.281  -6.328  -6.429  1.00  0.00     0.007 C 
BRANCH  12  13
HETATM   13  C   UNL     1     -20.009  -4.822  -6.524  1.00  0.00     0.000 C 
BRANCH  13  14
HETATM   14  C   UNL     1     -20.707  -4.128  -7.694  1.00  0.00    -0.005 C 
HETATM   15  C   UNL     1     -20.030  -4.482  -9.011  1.00  0.00     0.005 C 
ENDBRANCH  13  14
ENDBRANCH  12  13
ENDBRANCH  11  12
BRANCH  11  16
HETATM   16  C   UNL     1     -21.164  -5.946  -4.012  1.00  0.00     0.002 C 
HETATM   17  C   UNL     1     -21.760  -6.613  -2.780  1.00  0.00     0.005 C 
ENDBRANCH  11  16
ENDBRANCH  10  11
ENDBRANCH   9  10
ENDBRANCH   7   9
ENDBRANCH   1   7
BRANCH   6  18
HETATM   18  C   UNL     1     -19.348 -10.706  -2.197  1.00  0.00     0.294 C 
HETATM   19  O   UNL     1     -19.455 -11.864  -1.843  1.00  0.00    -0.259 OA
BRANCH  18  20
HETATM   20  O   UNL     1     -20.204  -9.691  -1.922  1.00  0.00    -0.317 OA
BRANCH  20  21
HETATM   21  C   UNL     1     -21.576 -10.052  -1.689  1.00  0.00     0.183 C 
BRANCH  21  22
HETATM   22  C   UNL     1     -22.034  -9.948  -0.218  1.00  0.00     0.010 C 
BRANCH  22  23
HETATM   23  C   UNL     1     -21.896  -8.522   0.365  1.00  0.00     0.002 C 
HETATM   24  C   UNL     1     -23.211  -7.812   0.665  1.00  0.00     0.005 C 
ENDBRANCH  22  23
BRANCH  22  25
HETATM   25  C   UNL     1     -23.489 -10.461  -0.051  1.00  0.00     0.007 C 
BRANCH  25  26
HETATM   26  C   UNL     1     -23.913 -11.454  -1.138  1.00  0.00     0.000 C 
BRANCH  26  27
HETATM   27  C   UNL     1     -23.850 -12.905  -0.663  1.00  0.00    -0.005 C 
HETATM   28  C   UNL     1     -23.391 -12.970   0.788  1.00  0.00     0.005 C 
ENDBRANCH  26  27
ENDBRANCH  25  26
ENDBRANCH  22  25
ENDBRANCH  21  22
ENDBRANCH  20  21
ENDBRANCH  18  20
ENDBRANCH   6  18
TORSDOF 16
ENDMDL
MODEL 9
REMARK VINA RESULT:      -6.5      2.246      3.413
REMARK  16 active torsions:
REMARK  status: ('A' for Active; 'I' for Inactive)
REMARK    1  A    between atoms: C_2  and  C_3 
REMARK    2  A    between atoms: C_3  and  C_4 
REMARK    3  A    between atoms: C_4  and  C_5 
REMARK    4  A    between atoms: C_5  and  C_6 
REMARK    5  A    between atoms: C_5  and  C_8 
REMARK    6  A    between atoms: C_8  and  O_9 
REMARK    7  A    between atoms: O_9  and  C_10 
REMARK    8  A    between atoms: C_10  and  C_12 
REMARK    9  A    between atoms: C_17  and  C_18 
REMARK   10  A    between atoms: C_18  and  O_20 
REMARK   11  A    between atoms: O_20  and  C_21 
REMARK   12  A    between atoms: C_21  and  C_22 
REMARK   13  A    between atoms: C_22  and  C_23 
REMARK   14  A    between atoms: C_22  and  C_25 
REMARK   15  A    between atoms: C_25  and  C_26 
REMARK   16  A    between atoms: C_26  and  C_27 
ROOT
HETATM    1  C   UNL     1     -20.564  -8.353  -2.778  1.00  0.00     0.055 A 
HETATM    2  C   UNL     1     -21.035  -8.294  -1.447  1.00  0.00     0.018 A 
HETATM    3  C   UNL     1     -21.868  -7.260  -1.022  1.00  0.00     0.001 A 
HETATM    4  C   UNL     1     -22.231  -6.263  -1.914  1.00  0.00     0.001 A 
HETATM    5  C   UNL     1     -21.808  -6.332  -3.245  1.00  0.00     0.018 A 
HETATM    6  C   UNL     1     -21.004  -7.399  -3.699  1.00  0.00     0.055 A 
ENDROOT
BRANCH   1   7
HETATM    7  C   UNL     1     -19.607  -9.439  -3.108  1.00  0.00     0.294 C 
HETATM    8  O   UNL     1     -18.399  -9.394  -2.989  1.00  0.00    -0.259 OA
BRANCH   7   9
HETATM    9  O   UNL     1     -20.310 -10.478  -3.632  1.00  0.00    -0.317 OA
BRANCH   9  10
HETATM   10  C   UNL     1     -20.488 -11.609  -2.767  1.00  0.00     0.183 C 
BRANCH  10  11
HETATM   11  C   UNL     1     -21.590 -12.573  -3.232  1.00  0.00     0.010 C 
BRANCH  11  12
HETATM   12  C   UNL     1     -22.305 -13.210  -2.018  1.00  0.00     0.007 C 
BRANCH  12  13
HETATM   13  C   UNL     1     -23.488 -12.418  -1.448  1.00  0.00     0.000 C 
BRANCH  13  14
HETATM   14  C   UNL     1     -23.194 -11.713  -0.123  1.00  0.00    -0.005 C 
HETATM   15  C   UNL     1     -23.821 -10.327  -0.100  1.00  0.00     0.005 C 
ENDBRANCH  13  14
ENDBRANCH  12  13
ENDBRANCH  11  12
BRANCH  11  16
HETATM   16  C   UNL     1     -22.529 -11.864  -4.232  1.00  0.00     0.002 C 
HETATM   17  C   UNL     1     -22.752 -12.593  -5.550  1.00  0.00     0.005 C 
ENDBRANCH  11  16
ENDBRANCH  10  11
ENDBRANCH   9  10
ENDBRANCH   7   9
ENDBRANCH   1   7
BRANCH   6  18
HETATM   18  C   UNL     1     -20.736  -7.412  -5.163  1.00  0.00     0.294 C 
HETATM   19  O   UNL     1     -19.721  -7.885  -5.635  1.00  0.00    -0.259 OA
BRANCH  18  20
HETATM   20  O   UNL     1     -21.603  -6.573  -5.781  1.00  0.00    -0.317 OA
BRANCH  20  21
HETATM   21  C   UNL     1     -21.278  -6.189  -7.128  1.00  0.00     0.183 C 
BRANCH  21  22
HETATM   22  C   UNL     1     -21.603  -4.722  -7.481  1.00  0.00     0.010 C 
BRANCH  22  23
HETATM   23  C   UNL     1     -20.347  -3.824  -7.577  1.00  0.00     0.002 C 
HETATM   24  C   UNL     1     -19.023  -4.526  -7.299  1.00  0.00     0.005 C 
ENDBRANCH  22  23
BRANCH  22  25
HETATM   25  C   UNL     1     -22.431  -4.635  -8.790  1.00  0.00     0.007 C 
BRANCH  25  26
HETATM   26  C   UNL     1     -21.665  -3.997  -9.954  1.00  0.00     0.000 C 
BRANCH  26  27
HETATM   27  C   UNL     1     -22.595  -3.405 -11.012  1.00  0.00    -0.005 C 
HETATM   28  C   UNL     1     -24.033  -3.399 -10.513  1.00  0.00     0.005 C 
ENDBRANCH  26  27
ENDBRANCH  25  26
ENDBRANCH  22  25
ENDBRANCH  21  22
ENDBRANCH  20  21
ENDBRANCH  18  20
ENDBRANCH   6  18
TORSDOF 16
ENDMDL
