MODEL 1
REMARK VINA RESULT:      -6.9      0.000      0.000
REMARK  16 active torsions:
REMARK  status: ('A' for Active; 'I' for Inactive)
REMARK    1  A    between atoms: C_2  and  C_3 
REMARK    2  A    between atoms: C_3  and  C_4 
REMARK    3  A    between atoms: C_4  and  C_5 
REMARK    4  A    between atoms: C_5  and  C_6 
REMARK    5  A    between atoms: C_6  and  C_7 
REMARK    6  A    between atoms: C_7  and  C_8 
REMARK    7  A    between atoms: C_8  and  C_9 
REMARK    8  A    between atoms: C_9  and  C_10 
REMARK    9  A    between atoms: C_10  and  C_11 
REMARK   10  A    between atoms: C_11  and  C_12 
REMARK   11  A    between atoms: C_12  and  C_13 
REMARK   12  A    between atoms: C_13  and  C_14 
REMARK   13  A    between atoms: C_14  and  C_15 
REMARK   14  A    between atoms: C_15  and  C_16 
REMARK   15  A    between atoms: C_16  and  C_18 
REMARK   16  A    between atoms: C_19  and  O_30 
ROOT
HETATM    1  C   UNL     1     -20.339  -5.338  -6.219  1.00  0.00     0.162 C 
HETATM    2  O   UNL     1     -19.939  -4.506  -5.428  1.00  0.00    -0.292 OA
ENDROOT
BRANCH   1   3
HETATM    3  C   UNL     1     -19.933  -6.810  -6.105  1.00  0.00     0.084 C 
BRANCH   3   4
HETATM    4  C   UNL     1     -21.012  -7.689  -5.486  1.00  0.00     0.008 C 
BRANCH   4   5
HETATM    5  C   UNL     1     -21.198  -7.352  -4.017  1.00  0.00     0.000 C 
BRANCH   5   6
HETATM    6  C   UNL     1     -20.353  -8.266  -3.150  1.00  0.00     0.000 C 
BRANCH   6   7
HETATM    7  C   UNL     1     -20.574  -7.953  -1.678  1.00  0.00     0.000 C 
BRANCH   7   8
HETATM    8  C   UNL     1     -21.827  -7.108  -1.509  1.00  0.00     0.000 C 
BRANCH   8   9
HETATM    9  C   UNL     1     -22.505  -7.420  -0.183  1.00  0.00     0.000 C 
BRANCH   9  10
HETATM   10  C   UNL     1     -22.248  -8.866   0.211  1.00  0.00     0.000 C 
BRANCH  10  11
HETATM   11  C   UNL     1     -23.448  -9.732  -0.143  1.00  0.00     0.000 C 
BRANCH  11  12
HETATM   12  C   UNL     1     -23.055 -11.202  -0.154  1.00  0.00     0.000 C 
BRANCH  12  13
HETATM   13  C   UNL     1     -21.915 -11.442  -1.132  1.00  0.00     0.000 C 
BRANCH  13  14
HETATM   14  C   UNL     1     -22.423 -12.143  -2.386  1.00  0.00     0.000 C 
BRANCH  14  15
HETATM   15  C   UNL     1     -21.415 -12.008  -3.521  1.00  0.00    -0.000 C 
BRANCH  15  16
HETATM   16  C   UNL     1     -21.983 -11.170  -4.661  1.00  0.00    -0.005 C 
HETATM   17  C   UNL     1     -21.205 -11.403  -5.944  1.00  0.00     0.005 C 
ENDBRANCH  15  16
ENDBRANCH  14  15
ENDBRANCH  13  14
ENDBRANCH  12  13
ENDBRANCH  11  12
ENDBRANCH  10  11
ENDBRANCH   9  10
ENDBRANCH   8   9
ENDBRANCH   7   8
ENDBRANCH   6   7
ENDBRANCH   5   6
ENDBRANCH   4   5
ENDBRANCH   3   4
ENDBRANCH   1   3
BRANCH   1  18
HETATM   18  C   UNL     1     -21.250  -4.946  -7.339  1.00  0.00     0.044 A 
HETATM   19  C   UNL     1     -22.619  -4.693  -7.146  1.00  0.00     0.084 A 
HETATM   20  C   UNL     1     -23.376  -4.282  -8.242  1.00  0.00     0.075 A 
HETATM   21  C   UNL     1     -22.797  -4.116  -9.496  1.00  0.00     0.079 A 
HETATM   22  C   UNL     1     -21.438  -4.353  -9.692  1.00  0.00    -0.024 A 
HETATM   23  O   UNL     1     -23.646  -3.676 -10.469  1.00  0.00    -0.340 OA
HETATM   24  C   UNL     1     -20.679  -4.787  -8.611  1.00  0.00     0.028 A 
HETATM   25  C   UNL     1     -20.803  -4.163 -11.037  1.00  0.00     0.044 C 
HETATM   26  C   UNL     1     -21.680  -3.264 -11.900  1.00  0.00     0.042 C 
HETATM   27  C   UNL     1     -23.159  -3.677 -11.820  1.00  0.00     0.061 C 
HETATM   28  C   UNL     1     -24.018  -2.636 -12.553  1.00  0.00     0.046 C 
HETATM   29  C   UNL     1     -23.428  -5.058 -12.434  1.00  0.00     0.046 C 
BRANCH  19  30
HETATM   30  O   UNL     1     -23.136  -4.815  -5.884  1.00  0.00    -0.355 OA
HETATM   31  C   UNL     1     -24.065  -5.866  -5.637  1.00  0.00     0.210 C 
ENDBRANCH  19  30
ENDBRANCH   1  18
TORSDOF 16
ENDMDL
MODEL 2
REMARK VINA RESULT:      -6.9      3.144      8.929
REMARK  16 active torsions:
REMARK  status: ('A' for Active; 'I' for Inactive)
REMARK    1  A    between atoms: C_2  and  C_3 
REMARK    2  A    between atoms: C_3  and  C_4 
REMARK    3  A    between atoms: C_4  and  C_5 
REMARK    4  A    between atoms: C_5  and  C_6 
REMARK    5  A    between atoms: C_6  and  C_7 
REMARK    6  A    between atoms: C_7  and  C_8 
REMARK    7  A    between atoms: C_8  and  C_9 
REMARK    8  A    between atoms: C_9  and  C_10 
REMARK    9  A    between atoms: C_10  and  C_11 
REMARK   10  A    between atoms: C_11  and  C_12 
REMARK   11  A    between atoms: C_12  and  C_13 
REMARK   12  A    between atoms: C_13  and  C_14 
REMARK   13  A    between atoms: C_14  and  C_15 
REMARK   14  A    between atoms: C_15  and  C_16 
REMARK   15  A    between atoms: C_16  and  C_18 
REMARK   16  A    between atoms: C_19  and  O_30 
ROOT
HETATM    1  C   UNL     1     -23.178 -10.105  -0.447  1.00  0.00     0.162 C 
HETATM    2  O   UNL     1     -24.033 -10.937  -0.211  1.00  0.00    -0.292 OA
ENDROOT
BRANCH   1   3
HETATM    3  C   UNL     1     -23.267  -8.684   0.119  1.00  0.00     0.084 C 
BRANCH   3   4
HETATM    4  C   UNL     1     -22.013  -7.856  -0.126  1.00  0.00     0.008 C 
BRANCH   4   5
HETATM    5  C   UNL     1     -22.310  -6.700  -1.064  1.00  0.00     0.000 C 
BRANCH   5   6
HETATM    6  C   UNL     1     -21.285  -6.640  -2.179  1.00  0.00     0.000 C 
BRANCH   6   7
HETATM    7  C   UNL     1     -21.970  -6.726  -3.535  1.00  0.00     0.000 C 
BRANCH   7   8
HETATM    8  C   UNL     1     -21.187  -5.928  -4.565  1.00  0.00     0.000 C 
BRANCH   8   9
HETATM    9  C   UNL     1     -21.827  -6.058  -5.939  1.00  0.00     0.000 C 
BRANCH   9  10
HETATM   10  C   UNL     1     -20.774  -5.910  -7.025  1.00  0.00     0.000 C 
BRANCH  10  11
HETATM   11  C   UNL     1     -19.975  -4.632  -6.817  1.00  0.00     0.000 C 
BRANCH  11  12
HETATM   12  C   UNL     1     -19.386  -4.154  -8.136  1.00  0.00     0.000 C 
BRANCH  12  13
HETATM   13  C   UNL     1     -20.114  -4.796  -9.307  1.00  0.00     0.000 C 
BRANCH  13  14
HETATM   14  C   UNL     1     -20.636  -3.731 -10.264  1.00  0.00     0.000 C 
BRANCH  14  15
HETATM   15  C   UNL     1     -21.745  -4.298 -11.142  1.00  0.00    -0.000 C 
BRANCH  15  16
HETATM   16  C   UNL     1     -23.102  -3.728 -10.746  1.00  0.00    -0.005 C 
HETATM   17  C   UNL     1     -23.462  -4.125  -9.326  1.00  0.00     0.005 C 
ENDBRANCH  15  16
ENDBRANCH  14  15
ENDBRANCH  13  14
ENDBRANCH  12  13
ENDBRANCH  11  12
ENDBRANCH  10  11
ENDBRANCH   9  10
ENDBRANCH   8   9
ENDBRANCH   7   8
ENDBRANCH   6   7
ENDBRANCH   5   6
ENDBRANCH   4   5
ENDBRANCH   3   4
ENDBRANCH   1   3
BRANCH   1  18
HETATM   18  C   UNL     1     -22.001 -10.447  -1.304  1.00  0.00     0.044 A 
HETATM   19  C   UNL     1     -20.861 -11.095  -0.798  1.00  0.00     0.084 A 
HETATM   20  C   UNL     1     -19.837 -11.419  -1.687  1.00  0.00     0.075 A 
HETATM   21  C   UNL     1     -19.936 -11.119  -3.042  1.00  0.00     0.079 A 
HETATM   22  C   UNL     1     -21.069 -10.488  -3.552  1.00  0.00    -0.024 A 
HETATM   23  O   UNL     1     -18.878 -11.525  -3.801  1.00  0.00    -0.340 OA
HETATM   24  C   UNL     1     -22.086 -10.138  -2.671  1.00  0.00     0.028 A 
HETATM   25  C   UNL     1     -21.191 -10.174  -5.013  1.00  0.00     0.044 C 
HETATM   26  C   UNL     1     -20.224 -11.042  -5.810  1.00  0.00     0.042 C 
HETATM   27  C   UNL     1     -18.830 -11.070  -5.163  1.00  0.00     0.061 C 
HETATM   28  C   UNL     1     -17.951 -12.096  -5.893  1.00  0.00     0.046 C 
HETATM   29  C   UNL     1     -18.126  -9.706  -5.197  1.00  0.00     0.046 C 
BRANCH  19  30
HETATM   30  O   UNL     1     -20.828 -11.421   0.531  1.00  0.00    -0.355 OA
HETATM   31  C   UNL     1     -20.166 -10.531   1.425  1.00  0.00     0.210 C 
ENDBRANCH  19  30
ENDBRANCH   1  18
TORSDOF 16
ENDMDL
MODEL 3
REMARK VINA RESULT:      -6.8      3.198      8.754
REMARK  16 active torsions:
REMARK  status: ('A' for Active; 'I' for Inactive)
REMARK    1  A    between atoms: C_2  and  C_3 
REMARK    2  A    between atoms: C_3  and  C_4 
REMARK    3  A    between atoms: C_4  and  C_5 
REMARK    4  A    between atoms: C_5  and  C_6 
REMARK    5  A    between atoms: C_6  and  C_7 
REMARK    6  A    between atoms: C_7  and  C_8 
REMARK    7  A    between atoms: C_8  and  C_9 
REMARK    8  A    between atoms: C_9  and  C_10 
REMARK    9  A    between atoms: C_10  and  C_11 
REMARK   10  A    between atoms: C_11  and  C_12 
REMARK   11  A    between atoms: C_12  and  C_13 
REMARK   12  A    between atoms: C_13  and  C_14 
REMARK   13  A    between atoms: C_14  and  C_15 
REMARK   14  A    between atoms: C_15  and  C_16 
REMARK   15  A    between atoms: C_16  and  C_18 
REMARK   16  A    between atoms: C_19  and  O_30 
ROOT
HETATM    1  C   UNL     1     -21.401 -10.504  -0.653  1.00  0.00     0.162 C 
HETATM    2  O   UNL     1     -22.176 -11.426  -0.484  1.00  0.00    -0.292 OA
ENDROOT
BRANCH   1   3
HETATM    3  C   UNL     1     -21.320  -9.336   0.334  1.00  0.00     0.084 C 
BRANCH   3   4
HETATM    4  C   UNL     1     -21.114  -7.987  -0.340  1.00  0.00     0.008 C 
BRANCH   4   5
HETATM    5  C   UNL     1     -22.435  -7.436  -0.847  1.00  0.00     0.000 C 
BRANCH   5   6
HETATM    6  C   UNL     1     -22.199  -6.296  -1.819  1.00  0.00     0.000 C 
BRANCH   6   7
HETATM    7  C   UNL     1     -21.352  -6.766  -2.992  1.00  0.00     0.000 C 
BRANCH   7   8
HETATM    8  C   UNL     1     -22.190  -6.796  -4.260  1.00  0.00     0.000 C 
BRANCH   8   9
HETATM    9  C   UNL     1     -21.305  -6.650  -5.489  1.00  0.00     0.000 C 
BRANCH   9  10
HETATM   10  C   UNL     1     -20.259  -5.571  -5.257  1.00  0.00     0.000 C 
BRANCH  10  11
HETATM   11  C   UNL     1     -19.994  -4.807  -6.546  1.00  0.00     0.000 C 
BRANCH  11  12
HETATM   12  C   UNL     1     -20.811  -5.393  -7.687  1.00  0.00     0.000 C 
BRANCH  12  13
HETATM   13  C   UNL     1     -21.063  -4.340  -8.757  1.00  0.00     0.000 C 
BRANCH  13  14
HETATM   14  C   UNL     1     -22.550  -4.244  -9.076  1.00  0.00     0.000 C 
BRANCH  14  15
HETATM   15  C   UNL     1     -22.812  -4.635 -10.526  1.00  0.00    -0.000 C 
BRANCH  15  16
HETATM   16  C   UNL     1     -21.749  -4.053 -11.450  1.00  0.00    -0.005 C 
HETATM   17  C   UNL     1     -22.383  -3.199 -12.534  1.00  0.00     0.005 C 
ENDBRANCH  15  16
ENDBRANCH  14  15
ENDBRANCH  13  14
ENDBRANCH  12  13
ENDBRANCH  11  12
ENDBRANCH  10  11
ENDBRANCH   9  10
ENDBRANCH   8   9
ENDBRANCH   7   8
ENDBRANCH   6   7
ENDBRANCH   5   6
ENDBRANCH   4   5
ENDBRANCH   3   4
ENDBRANCH   1   3
BRANCH   1  18
HETATM   18  C   UNL     1     -20.493 -10.483  -1.841  1.00  0.00     0.044 A 
HETATM   19  C   UNL     1     -20.974 -10.400  -3.159  1.00  0.00     0.084 A 
HETATM   20  C   UNL     1     -20.046 -10.333  -4.198  1.00  0.00     0.075 A 
HETATM   21  C   UNL     1     -18.678 -10.338  -3.944  1.00  0.00     0.079 A 
HETATM   22  C   UNL     1     -18.194 -10.407  -2.639  1.00  0.00    -0.024 A 
HETATM   23  O   UNL     1     -17.886 -10.231  -5.050  1.00  0.00    -0.340 OA
HETATM   24  C   UNL     1     -19.111 -10.500  -1.597  1.00  0.00     0.028 A 
HETATM   25  C   UNL     1     -16.722 -10.399  -2.356  1.00  0.00     0.044 C 
HETATM   26  C   UNL     1     -15.969  -9.830  -3.552  1.00  0.00     0.042 C 
HETATM   27  C   UNL     1     -16.475 -10.432  -4.873  1.00  0.00     0.061 C 
HETATM   28  C   UNL     1     -15.819  -9.696  -6.051  1.00  0.00     0.046 C 
HETATM   29  C   UNL     1     -16.176 -11.932  -5.001  1.00  0.00     0.046 C 
BRANCH  19  30
HETATM   30  O   UNL     1     -22.326 -10.341  -3.361  1.00  0.00    -0.355 OA
HETATM   31  C   UNL     1     -22.972 -11.480  -3.921  1.00  0.00     0.210 C 
ENDBRANCH  19  30
ENDBRANCH   1  18
TORSDOF 16
ENDMDL
MODEL 4
REMARK VINA RESULT:      -6.8      3.301      8.400
REMARK  16 active torsions:
REMARK  status: ('A' for Active; 'I' for Inactive)
REMARK    1  A    between atoms: C_2  and  C_3 
REMARK    2  A    between atoms: C_3  and  C_4 
REMARK    3  A    between atoms: C_4  and  C_5 
REMARK    4  A    between atoms: C_5  and  C_6 
REMARK    5  A    between atoms: C_6  and  C_7 
REMARK    6  A    between atoms: C_7  and  C_8 
REMARK    7  A    between atoms: C_8  and  C_9 
REMARK    8  A    between atoms: C_9  and  C_10 
REMARK    9  A    between atoms: C_10  and  C_11 
REMARK   10  A    between atoms: C_11  and  C_12 
REMARK   11  A    between atoms: C_12  and  C_13 
REMARK   12  A    between atoms: C_13  and  C_14 
REMARK   13  A    between atoms: C_14  and  C_15 
REMARK   14  A    between atoms: C_15  and  C_16 
REMARK   15  A    between atoms: C_16  and  C_18 
REMARK   16  A    between atoms: C_19  and  O_30 
ROOT
HETATM    1  C   UNL     1     -22.206 -11.847  -1.483  1.00  0.00     0.162 C 
HETATM    2  O   UNL     1     -22.170 -12.789  -0.714  1.00  0.00    -0.292 OA
ENDROOT
BRANCH   1   3
HETATM    3  C   UNL     1     -23.353 -10.833  -1.452  1.00  0.00     0.084 C 
BRANCH   3   4
HETATM    4  C   UNL     1     -23.505 -10.132  -0.109  1.00  0.00     0.008 C 
BRANCH   4   5
HETATM    5  C   UNL     1     -22.150  -9.707   0.428  1.00  0.00     0.000 C 
BRANCH   5   6
HETATM    6  C   UNL     1     -22.024  -8.196   0.426  1.00  0.00     0.000 C 
BRANCH   6   7
HETATM    7  C   UNL     1     -21.327  -7.724  -0.841  1.00  0.00     0.000 C 
BRANCH   7   8
HETATM    8  C   UNL     1     -22.196  -6.707  -1.565  1.00  0.00     0.000 C 
BRANCH   8   9
HETATM    9  C   UNL     1     -21.777  -6.590  -3.023  1.00  0.00     0.000 C 
BRANCH   9  10
HETATM   10  C   UNL     1     -21.092  -7.869  -3.477  1.00  0.00     0.000 C 
BRANCH  10  11
HETATM   11  C   UNL     1     -20.525  -7.697  -4.878  1.00  0.00     0.000 C 
BRANCH  11  12
HETATM   12  C   UNL     1     -20.547  -6.231  -5.282  1.00  0.00     0.000 C 
BRANCH  12  13
HETATM   13  C   UNL     1     -20.796  -6.094  -6.777  1.00  0.00     0.000 C 
BRANCH  13  14
HETATM   14  C   UNL     1     -19.657  -5.332  -7.442  1.00  0.00     0.000 C 
BRANCH  14  15
HETATM   15  C   UNL     1     -20.145  -3.983  -7.959  1.00  0.00    -0.000 C 
BRANCH  15  16
HETATM   16  C   UNL     1     -21.364  -4.151  -8.858  1.00  0.00    -0.005 C 
HETATM   17  C   UNL     1     -20.951  -4.252 -10.316  1.00  0.00     0.005 C 
ENDBRANCH  15  16
ENDBRANCH  14  15
ENDBRANCH  13  14
ENDBRANCH  12  13
ENDBRANCH  11  12
ENDBRANCH  10  11
ENDBRANCH   9  10
ENDBRANCH   8   9
ENDBRANCH   7   8
ENDBRANCH   6   7
ENDBRANCH   5   6
ENDBRANCH   4   5
ENDBRANCH   3   4
ENDBRANCH   1   3
BRANCH   1  18
HETATM   18  C   UNL     1     -21.119 -11.646  -2.490  1.00  0.00     0.044 A 
HETATM   19  C   UNL     1     -21.293 -11.927  -3.857  1.00  0.00     0.084 A 
HETATM   20  C   UNL     1     -20.237 -11.656  -4.726  1.00  0.00     0.075 A 
HETATM   21  C   UNL     1     -19.042 -11.116  -4.262  1.00  0.00     0.079 A 
HETATM   22  C   UNL     1     -18.867 -10.824  -2.911  1.00  0.00    -0.024 A 
HETATM   23  O   UNL     1     -18.109 -10.869  -5.227  1.00  0.00    -0.340 OA
HETATM   24  C   UNL     1     -19.904 -11.113  -2.031  1.00  0.00     0.028 A 
HETATM   25  C   UNL     1     -17.588 -10.228  -2.406  1.00  0.00     0.044 C 
HETATM   26  C   UNL     1     -16.826  -9.584  -3.558  1.00  0.00     0.042 C 
HETATM   27  C   UNL     1     -16.791 -10.502  -4.791  1.00  0.00     0.061 C 
HETATM   28  C   UNL     1     -16.179  -9.739  -5.975  1.00  0.00     0.046 C 
HETATM   29  C   UNL     1     -15.979 -11.784  -4.559  1.00  0.00     0.046 C 
BRANCH  19  30
HETATM   30  O   UNL     1     -22.504 -12.405  -4.278  1.00  0.00    -0.355 OA
HETATM   31  C   UNL     1     -22.665 -12.701  -5.662  1.00  0.00     0.210 C 
ENDBRANCH  19  30
ENDBRANCH   1  18
TORSDOF 16
ENDMDL
MODEL 5
REMARK VINA RESULT:      -6.7      1.411      2.836
REMARK  16 active torsions:
REMARK  status: ('A' for Active; 'I' for Inactive)
REMARK    1  A    between atoms: C_2  and  C_3 
REMARK    2  A    between atoms: C_3  and  C_4 
REMARK    3  A    between atoms: C_4  and  C_5 
REMARK    4  A    between atoms: C_5  and  C_6 
REMARK    5  A    between atoms: C_6  and  C_7 
REMARK    6  A    between atoms: C_7  and  C_8 
REMARK    7  A    between atoms: C_8  and  C_9 
REMARK    8  A    between atoms: C_9  and  C_10 
REMARK    9  A    between atoms: C_10  and  C_11 
REMARK   10  A    between atoms: C_11  and  C_12 
REMARK   11  A    between atoms: C_12  and  C_13 
REMARK   12  A    between atoms: C_13  and  C_14 
REMARK   13  A    between atoms: C_14  and  C_15 
REMARK   14  A    between atoms: C_15  and  C_16 
REMARK   15  A    between atoms: C_16  and  C_18 
REMARK   16  A    between atoms: C_19  and  O_30 
ROOT
HETATM    1  C   UNL     1     -20.125  -5.311  -6.548  1.00  0.00     0.162 C 
HETATM    2  O   UNL     1     -19.513  -4.456  -5.938  1.00  0.00    -0.292 OA
ENDROOT
BRANCH   1   3
HETATM    3  C   UNL     1     -19.918  -6.801  -6.261  1.00  0.00     0.084 C 
BRANCH   3   4
HETATM    4  C   UNL     1     -20.417  -7.228  -4.887  1.00  0.00     0.008 C 
BRANCH   4   5
HETATM    5  C   UNL     1     -20.973  -8.639  -4.935  1.00  0.00     0.000 C 
BRANCH   5   6
HETATM    6  C   UNL     1     -20.226  -9.541  -3.971  1.00  0.00     0.000 C 
BRANCH   6   7
HETATM    7  C   UNL     1     -18.813  -9.797  -4.472  1.00  0.00     0.000 C 
BRANCH   7   8
HETATM    8  C   UNL     1     -18.075 -10.707  -3.503  1.00  0.00     0.000 C 
BRANCH   8   9
HETATM    9  C   UNL     1     -18.579 -10.495  -2.083  1.00  0.00     0.000 C 
BRANCH   9  10
HETATM   10  C   UNL     1     -19.068 -11.810  -1.497  1.00  0.00     0.000 C 
BRANCH  10  11
HETATM   11  C   UNL     1     -19.193 -11.702   0.015  1.00  0.00     0.000 C 
BRANCH  11  12
HETATM   12  C   UNL     1     -20.655 -11.571   0.417  1.00  0.00     0.000 C 
BRANCH  12  13
HETATM   13  C   UNL     1     -20.984 -10.127   0.765  1.00  0.00     0.000 C 
BRANCH  13  14
HETATM   14  C   UNL     1     -21.776  -9.471  -0.358  1.00  0.00     0.000 C 
BRANCH  14  15
HETATM   15  C   UNL     1     -21.212  -8.092  -0.677  1.00  0.00    -0.000 C 
BRANCH  15  16
HETATM   16  C   UNL     1     -22.318  -7.044  -0.717  1.00  0.00    -0.005 C 
HETATM   17  C   UNL     1     -22.192  -6.171  -1.952  1.00  0.00     0.005 C 
ENDBRANCH  15  16
ENDBRANCH  14  15
ENDBRANCH  13  14
ENDBRANCH  12  13
ENDBRANCH  11  12
ENDBRANCH  10  11
ENDBRANCH   9  10
ENDBRANCH   8   9
ENDBRANCH   7   8
ENDBRANCH   6   7
ENDBRANCH   5   6
ENDBRANCH   4   5
ENDBRANCH   3   4
ENDBRANCH   1   3
BRANCH   1  18
HETATM   18  C   UNL     1     -21.112  -4.931  -7.606  1.00  0.00     0.044 A 
HETATM   19  C   UNL     1     -22.468  -4.694  -7.325  1.00  0.00     0.084 A 
HETATM   20  C   UNL     1     -23.299  -4.293  -8.370  1.00  0.00     0.075 A 
HETATM   21  C   UNL     1     -22.804  -4.121  -9.659  1.00  0.00     0.079 A 
HETATM   22  C   UNL     1     -21.457  -4.342  -9.943  1.00  0.00    -0.024 A 
HETATM   23  O   UNL     1     -23.719  -3.691 -10.575  1.00  0.00    -0.340 OA
HETATM   24  C   UNL     1     -20.625  -4.766  -8.912  1.00  0.00     0.028 A 
HETATM   25  C   UNL     1     -20.913  -4.145 -11.325  1.00  0.00     0.044 C 
HETATM   26  C   UNL     1     -21.855  -3.257 -12.130  1.00  0.00     0.042 C 
HETATM   27  C   UNL     1     -23.320  -3.688 -11.955  1.00  0.00     0.061 C 
HETATM   28  C   UNL     1     -24.237  -2.658 -12.630  1.00  0.00     0.046 C 
HETATM   29  C   UNL     1     -23.612  -5.072 -12.550  1.00  0.00     0.046 C 
BRANCH  19  30
HETATM   30  O   UNL     1     -22.901  -4.821  -6.033  1.00  0.00    -0.355 OA
HETATM   31  C   UNL     1     -23.684  -5.962  -5.695  1.00  0.00     0.210 C 
ENDBRANCH  19  30
ENDBRANCH   1  18
TORSDOF 16
ENDMDL
MODEL 6
REMARK VINA RESULT:      -6.6      4.657      7.783
REMARK  16 active torsions:
REMARK  status: ('A' for Active; 'I' for Inactive)
REMARK    1  A    between atoms: C_2  and  C_3 
REMARK    2  A    between atoms: C_3  and  C_4 
REMARK    3  A    between atoms: C_4  and  C_5 
REMARK    4  A    between atoms: C_5  and  C_6 
REMARK    5  A    between atoms: C_6  and  C_7 
REMARK    6  A    between atoms: C_7  and  C_8 
REMARK    7  A    between atoms: C_8  and  C_9 
REMARK    8  A    between atoms: C_9  and  C_10 
REMARK    9  A    between atoms: C_10  and  C_11 
REMARK   10  A    between atoms: C_11  and  C_12 
REMARK   11  A    between atoms: C_12  and  C_13 
REMARK   12  A    between atoms: C_13  and  C_14 
REMARK   13  A    between atoms: C_14  and  C_15 
REMARK   14  A    between atoms: C_15  and  C_16 
REMARK   15  A    between atoms: C_16  and  C_18 
REMARK   16  A    between atoms: C_19  and  O_30 
ROOT
HETATM    1  C   UNL     1     -20.548  -8.128  -4.883  1.00  0.00     0.162 C 
HETATM    2  O   UNL     1     -20.413  -7.413  -5.858  1.00  0.00    -0.292 OA
ENDROOT
BRANCH   1   3
HETATM    3  C   UNL     1     -21.637  -7.861  -3.839  1.00  0.00     0.084 C 
BRANCH   3   4
HETATM    4  C   UNL     1     -21.189  -6.927  -2.724  1.00  0.00     0.008 C 
BRANCH   4   5
HETATM    5  C   UNL     1     -22.339  -6.639  -1.774  1.00  0.00     0.000 C 
BRANCH   5   6
HETATM    6  C   UNL     1     -22.028  -7.164  -0.386  1.00  0.00     0.000 C 
BRANCH   6   7
HETATM    7  C   UNL     1     -23.120  -8.116   0.078  1.00  0.00     0.000 C 
BRANCH   7   8
HETATM    8  C   UNL     1     -22.598  -9.544   0.081  1.00  0.00     0.000 C 
BRANCH   8   9
HETATM    9  C   UNL     1     -23.061 -10.283  -1.166  1.00  0.00     0.000 C 
BRANCH   9  10
HETATM   10  C   UNL     1     -21.870 -10.898  -1.884  1.00  0.00     0.000 C 
BRANCH  10  11
HETATM   11  C   UNL     1     -20.571 -10.455  -1.228  1.00  0.00     0.000 C 
BRANCH  11  12
HETATM   12  C   UNL     1     -19.709 -11.663  -0.891  1.00  0.00     0.000 C 
BRANCH  12  13
HETATM   13  C   UNL     1     -20.164 -12.879  -1.683  1.00  0.00     0.000 C 
BRANCH  13  14
HETATM   14  C   UNL     1     -20.296 -14.094  -0.773  1.00  0.00     0.000 C 
BRANCH  14  15
HETATM   15  C   UNL     1     -21.760 -14.355  -0.438  1.00  0.00    -0.000 C 
BRANCH  15  16
HETATM   16  C   UNL     1     -22.040 -14.086   1.036  1.00  0.00    -0.005 C 
HETATM   17  C   UNL     1     -23.180 -13.096   1.199  1.00  0.00     0.005 C 
ENDBRANCH  15  16
ENDBRANCH  14  15
ENDBRANCH  13  14
ENDBRANCH  12  13
ENDBRANCH  11  12
ENDBRANCH  10  11
ENDBRANCH   9  10
ENDBRANCH   8   9
ENDBRANCH   7   8
ENDBRANCH   6   7
ENDBRANCH   5   6
ENDBRANCH   4   5
ENDBRANCH   3   4
ENDBRANCH   1   3
BRANCH   1  18
HETATM   18  C   UNL     1     -19.648  -9.304  -4.673  1.00  0.00     0.044 A 
HETATM   19  C   UNL     1     -19.852 -10.537  -5.318  1.00  0.00     0.084 A 
HETATM   20  C   UNL     1     -18.927 -11.557  -5.099  1.00  0.00     0.075 A 
HETATM   21  C   UNL     1     -17.825 -11.366  -4.271  1.00  0.00     0.079 A 
HETATM   22  C   UNL     1     -17.611 -10.143  -3.639  1.00  0.00    -0.024 A 
HETATM   23  O   UNL     1     -16.984 -12.436  -4.175  1.00  0.00    -0.340 OA
HETATM   24  C   UNL     1     -18.540  -9.126  -3.831  1.00  0.00     0.028 A 
HETATM   25  C   UNL     1     -16.418  -9.924  -2.757  1.00  0.00     0.044 C 
HETATM   26  C   UNL     1     -15.346 -10.960  -3.071  1.00  0.00     0.042 C 
HETATM   27  C   UNL     1     -15.945 -12.371  -3.186  1.00  0.00     0.061 C 
HETATM   28  C   UNL     1     -14.864 -13.343  -3.683  1.00  0.00     0.046 C 
HETATM   29  C   UNL     1     -16.504 -12.895  -1.856  1.00  0.00     0.046 C 
BRANCH  19  30
HETATM   30  O   UNL     1     -20.917 -10.664  -6.167  1.00  0.00    -0.355 OA
HETATM   31  C   UNL     1     -21.528 -11.944  -6.291  1.00  0.00     0.210 C 
ENDBRANCH  19  30
ENDBRANCH   1  18
TORSDOF 16
ENDMDL
MODEL 7
REMARK VINA RESULT:      -6.6      3.464      6.889
REMARK  16 active torsions:
REMARK  status: ('A' for Active; 'I' for Inactive)
REMARK    1  A    between atoms: C_2  and  C_3 
REMARK    2  A    between atoms: C_3  and  C_4 
REMARK    3  A    between atoms: C_4  and  C_5 
REMARK    4  A    between atoms: C_5  and  C_6 
REMARK    5  A    between atoms: C_6  and  C_7 
REMARK    6  A    between atoms: C_7  and  C_8 
REMARK    7  A    between atoms: C_8  and  C_9 
REMARK    8  A    between atoms: C_9  and  C_10 
REMARK    9  A    between atoms: C_10  and  C_11 
REMARK   10  A    between atoms: C_11  and  C_12 
REMARK   11  A    between atoms: C_12  and  C_13 
REMARK   12  A    between atoms: C_13  and  C_14 
REMARK   13  A    between atoms: C_14  and  C_15 
REMARK   14  A    between atoms: C_15  and  C_16 
REMARK   15  A    between atoms: C_16  and  C_18 
REMARK   16  A    between atoms: C_19  and  O_30 
ROOT
HETATM    1  C   UNL     1     -21.669 -10.612  -0.908  1.00  0.00     0.162 C 
HETATM    2  O   UNL     1     -22.711 -11.239  -0.885  1.00  0.00    -0.292 OA
ENDROOT
BRANCH   1   3
HETATM    3  C   UNL     1     -20.424 -11.101  -0.162  1.00  0.00     0.084 C 
BRANCH   3   4
HETATM    4  C   UNL     1     -19.621 -12.135  -0.939  1.00  0.00     0.008 C 
BRANCH   4   5
HETATM    5  C   UNL     1     -18.232 -11.607  -1.252  1.00  0.00     0.000 C 
BRANCH   5   6
HETATM    6  C   UNL     1     -18.144 -11.166  -2.700  1.00  0.00     0.000 C 
BRANCH   6   7
HETATM    7  C   UNL     1     -17.651  -9.729  -2.787  1.00  0.00     0.000 C 
BRANCH   7   8
HETATM    8  C   UNL     1     -16.163  -9.707  -3.098  1.00  0.00     0.000 C 
BRANCH   8   9
HETATM    9  C   UNL     1     -15.932  -9.746  -4.602  1.00  0.00     0.000 C 
BRANCH   9  10
HETATM   10  C   UNL     1     -15.210 -11.027  -4.989  1.00  0.00     0.000 C 
BRANCH  10  11
HETATM   11  C   UNL     1     -15.650 -11.485  -6.371  1.00  0.00     0.000 C 
BRANCH  11  12
HETATM   12  C   UNL     1     -16.901 -12.346  -6.271  1.00  0.00     0.000 C 
BRANCH  12  13
HETATM   13  C   UNL     1     -18.074 -11.663  -6.959  1.00  0.00     0.000 C 
BRANCH  13  14
HETATM   14  C   UNL     1     -19.276 -11.594  -6.026  1.00  0.00     0.000 C 
BRANCH  14  15
HETATM   15  C   UNL     1     -20.496 -12.237  -6.677  1.00  0.00    -0.000 C 
BRANCH  15  16
HETATM   16  C   UNL     1     -21.762 -11.937  -5.882  1.00  0.00    -0.005 C 
HETATM   17  C   UNL     1     -21.769 -12.700  -4.569  1.00  0.00     0.005 C 
ENDBRANCH  15  16
ENDBRANCH  14  15
ENDBRANCH  13  14
ENDBRANCH  12  13
ENDBRANCH  11  12
ENDBRANCH  10  11
ENDBRANCH   9  10
ENDBRANCH   8   9
ENDBRANCH   7   8
ENDBRANCH   6   7
ENDBRANCH   5   6
ENDBRANCH   4   5
ENDBRANCH   3   4
ENDBRANCH   1   3
BRANCH   1  18
HETATM   18  C   UNL     1     -21.570  -9.332  -1.676  1.00  0.00     0.044 A 
HETATM   19  C   UNL     1     -21.704  -8.072  -1.066  1.00  0.00     0.084 A 
HETATM   20  C   UNL     1     -21.542  -6.936  -1.857  1.00  0.00     0.075 A 
HETATM   21  C   UNL     1     -21.249  -7.037  -3.213  1.00  0.00     0.079 A 
HETATM   22  C   UNL     1     -21.103  -8.282  -3.822  1.00  0.00    -0.024 A 
HETATM   23  O   UNL     1     -21.082  -5.845  -3.857  1.00  0.00    -0.340 OA
HETATM   24  C   UNL     1     -21.286  -9.423  -3.047  1.00  0.00     0.028 A 
HETATM   25  C   UNL     1     -20.773  -8.399  -5.279  1.00  0.00     0.044 C 
HETATM   26  C   UNL     1     -20.171  -7.092  -5.780  1.00  0.00     0.042 C 
HETATM   27  C   UNL     1     -20.977  -5.878  -5.289  1.00  0.00     0.061 C 
HETATM   28  C   UNL     1     -20.232  -4.588  -5.662  1.00  0.00     0.046 C 
HETATM   29  C   UNL     1     -22.391  -5.819  -5.883  1.00  0.00     0.046 C 
BRANCH  19  30
HETATM   30  O   UNL     1     -21.937  -8.018   0.282  1.00  0.00    -0.355 OA
HETATM   31  C   UNL     1     -23.289  -7.975   0.728  1.00  0.00     0.210 C 
ENDBRANCH  19  30
ENDBRANCH   1  18
TORSDOF 16
ENDMDL
MODEL 8
REMARK VINA RESULT:      -6.5      1.057      2.583
REMARK  16 active torsions:
REMARK  status: ('A' for Active; 'I' for Inactive)
REMARK    1  A    between atoms: C_2  and  C_3 
REMARK    2  A    between atoms: C_3  and  C_4 
REMARK    3  A    between atoms: C_4  and  C_5 
REMARK    4  A    between atoms: C_5  and  C_6 
REMARK    5  A    between atoms: C_6  and  C_7 
REMARK    6  A    between atoms: C_7  and  C_8 
REMARK    7  A    between atoms: C_8  and  C_9 
REMARK    8  A    between atoms: C_9  and  C_10 
REMARK    9  A    between atoms: C_10  and  C_11 
REMARK   10  A    between atoms: C_11  and  C_12 
REMARK   11  A    between atoms: C_12  and  C_13 
REMARK   12  A    between atoms: C_13  and  C_14 
REMARK   13  A    between atoms: C_14  and  C_15 
REMARK   14  A    between atoms: C_15  and  C_16 
REMARK   15  A    between atoms: C_16  and  C_18 
REMARK   16  A    between atoms: C_19  and  O_30 
ROOT
HETATM    1  C   UNL     1     -20.081  -5.295  -6.314  1.00  0.00     0.162 C 
HETATM    2  O   UNL     1     -19.627  -4.433  -5.587  1.00  0.00    -0.292 OA
ENDROOT
BRANCH   1   3
HETATM    3  C   UNL     1     -19.667  -6.762  -6.170  1.00  0.00     0.084 C 
BRANCH   3   4
HETATM    4  C   UNL     1     -20.267  -7.443  -4.948  1.00  0.00     0.008 C 
BRANCH   4   5
HETATM    5  C   UNL     1     -19.953  -8.929  -4.956  1.00  0.00     0.000 C 
BRANCH   5   6
HETATM    6  C   UNL     1     -18.891  -9.255  -3.924  1.00  0.00     0.000 C 
BRANCH   6   7
HETATM    7  C   UNL     1     -18.910 -10.740  -3.595  1.00  0.00     0.000 C 
BRANCH   7   8
HETATM    8  C   UNL     1     -18.834 -10.941  -2.090  1.00  0.00     0.000 C 
BRANCH   8   9
HETATM    9  C   UNL     1     -20.231 -11.022  -1.491  1.00  0.00     0.000 C 
BRANCH   9  10
HETATM   10  C   UNL     1     -21.248 -11.348  -2.573  1.00  0.00     0.000 C 
BRANCH  10  11
HETATM   11  C   UNL     1     -22.453 -12.053  -1.971  1.00  0.00     0.000 C 
BRANCH  11  12
HETATM   12  C   UNL     1     -23.522 -11.041  -1.586  1.00  0.00     0.000 C 
BRANCH  12  13
HETATM   13  C   UNL     1     -23.573 -10.870  -0.075  1.00  0.00     0.000 C 
BRANCH  13  14
HETATM   14  C   UNL     1     -23.741  -9.401   0.293  1.00  0.00     0.000 C 
BRANCH  14  15
HETATM   15  C   UNL     1     -22.392  -8.692   0.292  1.00  0.00    -0.000 C 
BRANCH  15  16
HETATM   16  C   UNL     1     -22.397  -7.509  -0.670  1.00  0.00    -0.005 C 
HETATM   17  C   UNL     1     -21.128  -7.485  -1.504  1.00  0.00     0.005 C 
ENDBRANCH  15  16
ENDBRANCH  14  15
ENDBRANCH  13  14
ENDBRANCH  12  13
ENDBRANCH  11  12
ENDBRANCH  10  11
ENDBRANCH   9  10
ENDBRANCH   8   9
ENDBRANCH   7   8
ENDBRANCH   6   7
ENDBRANCH   5   6
ENDBRANCH   4   5
ENDBRANCH   3   4
ENDBRANCH   1   3
BRANCH   1  18
HETATM   18  C   UNL     1     -21.070  -4.946  -7.381  1.00  0.00     0.044 A 
HETATM   19  C   UNL     1     -22.444  -4.806  -7.121  1.00  0.00     0.084 A 
HETATM   20  C   UNL     1     -23.279  -4.426  -8.171  1.00  0.00     0.075 A 
HETATM   21  C   UNL     1     -22.772  -4.183  -9.444  1.00  0.00     0.079 A 
HETATM   22  C   UNL     1     -21.409  -4.309  -9.706  1.00  0.00    -0.024 A 
HETATM   23  O   UNL     1     -23.696  -3.785 -10.366  1.00  0.00    -0.340 OA
HETATM   24  C   UNL     1     -20.571  -4.710  -8.672  1.00  0.00     0.028 A 
HETATM   25  C   UNL     1     -20.853  -4.035 -11.070  1.00  0.00     0.044 C 
HETATM   26  C   UNL     1     -21.834  -3.185 -11.868  1.00  0.00     0.042 C 
HETATM   27  C   UNL     1     -23.272  -3.714 -11.736  1.00  0.00     0.061 C 
HETATM   28  C   UNL     1     -24.241  -2.724 -12.400  1.00  0.00     0.046 C 
HETATM   29  C   UNL     1     -23.463  -5.095 -12.377  1.00  0.00     0.046 C 
BRANCH  19  30
HETATM   30  O   UNL     1     -22.892  -4.999  -5.842  1.00  0.00    -0.355 OA
HETATM   31  C   UNL     1     -24.009  -5.861  -5.645  1.00  0.00     0.210 C 
ENDBRANCH  19  30
ENDBRANCH   1  18
TORSDOF 16
ENDMDL
MODEL 9
REMARK VINA RESULT:      -6.5      4.123      8.355
REMARK  16 active torsions:
REMARK  status: ('A' for Active; 'I' for Inactive)
REMARK    1  A    between atoms: C_2  and  C_3 
REMARK    2  A    between atoms: C_3  and  C_4 
REMARK    3  A    between atoms: C_4  and  C_5 
REMARK    4  A    between atoms: C_5  and  C_6 
REMARK    5  A    between atoms: C_6  and  C_7 
REMARK    6  A    between atoms: C_7  and  C_8 
REMARK    7  A    between atoms: C_8  and  C_9 
REMARK    8  A    between atoms: C_9  and  C_10 
REMARK    9  A    between atoms: C_10  and  C_11 
REMARK   10  A    between atoms: C_11  and  C_12 
REMARK   11  A    between atoms: C_12  and  C_13 
REMARK   12  A    between atoms: C_13  and  C_14 
REMARK   13  A    between atoms: C_14  and  C_15 
REMARK   14  A    between atoms: C_15  and  C_16 
REMARK   15  A    between atoms: C_16  and  C_18 
REMARK   16  A    between atoms: C_19  and  O_30 
ROOT
HETATM    1  C   UNL     1     -20.839 -11.208  -6.067  1.00  0.00     0.162 C 
HETATM    2  O   UNL     1     -21.697 -11.274  -6.925  1.00  0.00    -0.292 OA
ENDROOT
BRANCH   1   3
HETATM    3  C   UNL     1     -19.480 -11.893  -6.239  1.00  0.00     0.084 C 
BRANCH   3   4
HETATM    4  C   UNL     1     -19.209 -12.348  -7.667  1.00  0.00     0.008 C 
BRANCH   4   5
HETATM    5  C   UNL     1     -17.801 -12.903  -7.793  1.00  0.00     0.000 C 
BRANCH   5   6
HETATM    6  C   UNL     1     -17.341 -13.494  -6.474  1.00  0.00     0.000 C 
BRANCH   6   7
HETATM    7  C   UNL     1     -15.843 -13.295  -6.297  1.00  0.00     0.000 C 
BRANCH   7   8
HETATM    8  C   UNL     1     -15.581 -12.207  -5.269  1.00  0.00     0.000 C 
BRANCH   8   9
HETATM    9  C   UNL     1     -15.270 -10.886  -5.958  1.00  0.00     0.000 C 
BRANCH   9  10
HETATM   10  C   UNL     1     -15.747  -9.723  -5.102  1.00  0.00     0.000 C 
BRANCH  10  11
HETATM   11  C   UNL     1     -17.122 -10.020  -4.524  1.00  0.00     0.000 C 
BRANCH  11  12
HETATM   12  C   UNL     1     -17.141  -9.739  -3.029  1.00  0.00     0.000 C 
BRANCH  12  13
HETATM   13  C   UNL     1     -18.199 -10.588  -2.341  1.00  0.00     0.000 C 
BRANCH  13  14
HETATM   14  C   UNL     1     -18.185 -12.010  -2.887  1.00  0.00     0.000 C 
BRANCH  14  15
HETATM   15  C   UNL     1     -18.868 -12.964  -1.914  1.00  0.00    -0.000 C 
BRANCH  15  16
HETATM   16  C   UNL     1     -19.182 -12.268  -0.595  1.00  0.00    -0.005 C 
HETATM   17  C   UNL     1     -20.113 -13.114   0.255  1.00  0.00     0.005 C 
ENDBRANCH  15  16
ENDBRANCH  14  15
ENDBRANCH  13  14
ENDBRANCH  12  13
ENDBRANCH  11  12
ENDBRANCH  10  11
ENDBRANCH   9  10
ENDBRANCH   8   9
ENDBRANCH   7   8
ENDBRANCH   6   7
ENDBRANCH   5   6
ENDBRANCH   4   5
ENDBRANCH   3   4
ENDBRANCH   1   3
BRANCH   1  18
HETATM   18  C   UNL     1     -21.085 -10.446  -4.803  1.00  0.00     0.044 A 
HETATM   19  C   UNL     1     -20.783  -9.080  -4.674  1.00  0.00     0.084 A 
HETATM   20  C   UNL     1     -21.098  -8.445  -3.473  1.00  0.00     0.075 A 
HETATM   21  C   UNL     1     -21.703  -9.137  -2.429  1.00  0.00     0.079 A 
HETATM   22  C   UNL     1     -22.016 -10.489  -2.555  1.00  0.00    -0.024 A 
HETATM   23  O   UNL     1     -21.987  -8.384  -1.327  1.00  0.00    -0.340 OA
HETATM   24  C   UNL     1     -21.684 -11.138  -3.739  1.00  0.00     0.028 A 
HETATM   25  C   UNL     1     -22.681 -11.238  -1.440  1.00  0.00     0.044 C 
HETATM   26  C   UNL     1     -23.352 -10.257  -0.486  1.00  0.00     0.042 C 
HETATM   27  C   UNL     1     -22.425  -9.078  -0.149  1.00  0.00     0.061 C 
HETATM   28  C   UNL     1     -23.206  -8.032   0.660  1.00  0.00     0.046 C 
HETATM   29  C   UNL     1     -21.188  -9.500   0.656  1.00  0.00     0.046 C 
BRANCH  19  30
HETATM   30  O   UNL     1     -20.239  -8.425  -5.746  1.00  0.00    -0.355 OA
HETATM   31  C   UNL     1     -20.256  -7.000  -5.741  1.00  0.00     0.210 C 
ENDBRANCH  19  30
ENDBRANCH   1  18
TORSDOF 16
ENDMDL
