MODEL 1
REMARK VINA RESULT:      -7.5      0.000      0.000
REMARK  21 active torsions:
REMARK  status: ('A' for Active; 'I' for Inactive)
REMARK    1  A    between atoms: C_2  and  C_3 
REMARK    2  A    between atoms: C_3  and  C_4 
REMARK    3  A    between atoms: C_4  and  C_5 
REMARK    4  A    between atoms: C_5  and  C_6 
REMARK    5  A    between atoms: C_6  and  C_7 
REMARK    6  A    between atoms: C_7  and  C_8 
REMARK    7  A    between atoms: C_8  and  C_9 
REMARK    8  A    between atoms: C_9  and  C_10 
REMARK    9  A    between atoms: C_10  and  C_11 
REMARK   10  A    between atoms: C_11  and  C_12 
REMARK   11  A    between atoms: C_12  and  C_13 
REMARK   12  A    between atoms: C_13  and  C_14 
REMARK   13  A    between atoms: C_14  and  C_15 
REMARK   14  A    between atoms: C_15  and  C_16 
REMARK   15  A    between atoms: C_16  and  O_18 
REMARK   16  A    between atoms: O_18  and  C_19 
REMARK   17  A    between atoms: C_19  and  C_20 
REMARK   18  A    between atoms: C_20  and  C_21 
REMARK   19  A    between atoms: C_20  and  O_29 
REMARK   20  A    between atoms: C_22  and  O_28 
REMARK   21  A    between atoms: C_23  and  O_27 
ROOT
HETATM    1  C   UNL     1     -19.774  -4.597  -7.600  1.00  0.00     0.258 C 
HETATM    2  O   UNL     1     -18.584  -4.301  -7.593  1.00  0.00    -0.265 OA
ENDROOT
BRANCH   1   3
HETATM    3  C   UNL     1     -20.682  -4.563  -6.391  1.00  0.00     0.111 C 
BRANCH   3   4
HETATM    4  C   UNL     1     -20.447  -5.804  -5.534  1.00  0.00     0.010 C 
BRANCH   4   5
HETATM    5  C   UNL     1     -21.654  -6.715  -5.460  1.00  0.00     0.000 C 
BRANCH   5   6
HETATM    6  C   UNL     1     -21.782  -7.286  -4.053  1.00  0.00     0.000 C 
BRANCH   6   7
HETATM    7  C   UNL     1     -21.394  -6.241  -3.020  1.00  0.00     0.000 C 
BRANCH   7   8
HETATM    8  C   UNL     1     -22.291  -6.344  -1.798  1.00  0.00     0.000 C 
BRANCH   8   9
HETATM    9  C   UNL     1     -21.738  -7.378  -0.832  1.00  0.00     0.000 C 
BRANCH   9  10
HETATM   10  C   UNL     1     -22.834  -7.859   0.101  1.00  0.00     0.000 C 
BRANCH  10  11
HETATM   11  C   UNL     1     -23.011  -9.361  -0.039  1.00  0.00     0.000 C 
BRANCH  11  12
HETATM   12  C   UNL     1     -21.718 -10.071   0.323  1.00  0.00     0.000 C 
BRANCH  12  13
HETATM   13  C   UNL     1     -21.376 -11.103  -0.737  1.00  0.00     0.000 C 
BRANCH  13  14
HETATM   14  C   UNL     1     -19.882 -11.091  -1.015  1.00  0.00     0.000 C 
BRANCH  14  15
HETATM   15  C   UNL     1     -19.626 -10.797  -2.486  1.00  0.00    -0.000 C 
BRANCH  15  16
HETATM   16  C   UNL     1     -19.011  -9.414  -2.655  1.00  0.00    -0.005 C 
HETATM   17  C   UNL     1     -18.689  -9.152  -4.113  1.00  0.00     0.005 C 
ENDBRANCH  15  16
ENDBRANCH  14  15
ENDBRANCH  13  14
ENDBRANCH  12  13
ENDBRANCH  11  12
ENDBRANCH  10  11
ENDBRANCH   9  10
ENDBRANCH   8   9
ENDBRANCH   7   8
ENDBRANCH   6   7
ENDBRANCH   5   6
ENDBRANCH   4   5
ENDBRANCH   3   4
ENDBRANCH   1   3
BRANCH   1  18
HETATM   18  O   UNL     1     -20.461  -4.915  -8.739  1.00  0.00    -0.319 OA
BRANCH  18  19
HETATM   19  C   UNL     1     -21.115  -3.814  -9.396  1.00  0.00     0.213 C 
BRANCH  19  20
HETATM   20  C   UNL     1     -21.013  -3.939 -10.925  1.00  0.00     0.178 C 
BRANCH  20  21
HETATM   21  C   UNL     1     -22.315  -4.466 -11.581  1.00  0.00     0.222 C 
HETATM   22  C   UNL     1     -22.791  -3.576 -12.669  1.00  0.00     0.114 C 
HETATM   23  C   UNL     1     -23.960  -2.988 -12.329  1.00  0.00     0.173 C 
HETATM   24  C   UNL     1     -24.331  -3.527 -10.997  1.00  0.00     0.320 C 
HETATM   25  O   UNL     1     -25.300  -3.204 -10.334  1.00  0.00    -0.257 OA
HETATM   26  O   UNL     1     -23.420  -4.495 -10.661  1.00  0.00    -0.301 OA
BRANCH  22  27
HETATM   27  O   UNL     1     -22.110  -3.430 -13.855  1.00  0.00    -0.359 OA
HETATM   28  H   UNL     1     -21.725  -2.525 -13.845  1.00  0.00     0.217 HD
ENDBRANCH  22  27
BRANCH  23  29
HETATM   29  O   UNL     1     -24.720  -2.123 -13.051  1.00  0.00    -0.353 OA
HETATM   30  H   UNL     1     -25.588  -2.064 -12.615  1.00  0.00     0.218 HD
ENDBRANCH  23  29
ENDBRANCH  20  21
BRANCH  20  31
HETATM   31  O   UNL     1     -20.631  -2.706 -11.543  1.00  0.00    -0.390 OA
HETATM   32  H   UNL     1     -20.843  -2.758 -12.494  1.00  0.00     0.210 HD
ENDBRANCH  20  31
ENDBRANCH  19  20
ENDBRANCH  18  19
ENDBRANCH   1  18
TORSDOF 21
ENDMDL
MODEL 2
REMARK VINA RESULT:      -7.3      1.723      2.935
REMARK  21 active torsions:
REMARK  status: ('A' for Active; 'I' for Inactive)
REMARK    1  A    between atoms: C_2  and  C_3 
REMARK    2  A    between atoms: C_3  and  C_4 
REMARK    3  A    between atoms: C_4  and  C_5 
REMARK    4  A    between atoms: C_5  and  C_6 
REMARK    5  A    between atoms: C_6  and  C_7 
REMARK    6  A    between atoms: C_7  and  C_8 
REMARK    7  A    between atoms: C_8  and  C_9 
REMARK    8  A    between atoms: C_9  and  C_10 
REMARK    9  A    between atoms: C_10  and  C_11 
REMARK   10  A    between atoms: C_11  and  C_12 
REMARK   11  A    between atoms: C_12  and  C_13 
REMARK   12  A    between atoms: C_13  and  C_14 
REMARK   13  A    between atoms: C_14  and  C_15 
REMARK   14  A    between atoms: C_15  and  C_16 
REMARK   15  A    between atoms: C_16  and  O_18 
REMARK   16  A    between atoms: O_18  and  C_19 
REMARK   17  A    between atoms: C_19  and  C_20 
REMARK   18  A    between atoms: C_20  and  C_21 
REMARK   19  A    between atoms: C_20  and  O_29 
REMARK   20  A    between atoms: C_22  and  O_28 
REMARK   21  A    between atoms: C_23  and  O_27 
ROOT
HETATM    1  C   UNL     1     -20.557  -4.929  -6.954  1.00  0.00     0.258 C 
HETATM    2  O   UNL     1     -19.438  -4.630  -6.552  1.00  0.00    -0.265 OA
ENDROOT
BRANCH   1   3
HETATM    3  C   UNL     1     -21.398  -6.063  -6.411  1.00  0.00     0.111 C 
BRANCH   3   4
HETATM    4  C   UNL     1     -21.340  -6.064  -4.887  1.00  0.00     0.010 C 
BRANCH   4   5
HETATM    5  C   UNL     1     -21.170  -7.449  -4.298  1.00  0.00     0.000 C 
BRANCH   5   6
HETATM    6  C   UNL     1     -21.012  -7.349  -2.785  1.00  0.00     0.000 C 
BRANCH   6   7
HETATM    7  C   UNL     1     -21.997  -6.340  -2.216  1.00  0.00     0.000 C 
BRANCH   7   8
HETATM    8  C   UNL     1     -22.449  -6.765  -0.829  1.00  0.00     0.000 C 
BRANCH   8   9
HETATM    9  C   UNL     1     -21.591  -7.916  -0.331  1.00  0.00     0.000 C 
BRANCH   9  10
HETATM   10  C   UNL     1     -22.467  -8.986   0.294  1.00  0.00     0.000 C 
BRANCH  10  11
HETATM   11  C   UNL     1     -22.937  -9.960  -0.772  1.00  0.00     0.000 C 
BRANCH  11  12
HETATM   12  C   UNL     1     -23.910 -10.958  -0.169  1.00  0.00     0.000 C 
BRANCH  12  13
HETATM   13  C   UNL     1     -24.016 -12.183  -1.060  1.00  0.00     0.000 C 
BRANCH  13  14
HETATM   14  C   UNL     1     -23.778 -13.444  -0.244  1.00  0.00     0.000 C 
BRANCH  14  15
HETATM   15  C   UNL     1     -23.392 -13.081   1.181  1.00  0.00    -0.000 C 
BRANCH  15  16
HETATM   16  C   UNL     1     -22.024 -13.655   1.527  1.00  0.00    -0.005 C 
HETATM   17  C   UNL     1     -20.971 -13.123   0.575  1.00  0.00     0.005 C 
ENDBRANCH  15  16
ENDBRANCH  14  15
ENDBRANCH  13  14
ENDBRANCH  12  13
ENDBRANCH  11  12
ENDBRANCH  10  11
ENDBRANCH   9  10
ENDBRANCH   8   9
ENDBRANCH   7   8
ENDBRANCH   6   7
ENDBRANCH   5   6
ENDBRANCH   4   5
ENDBRANCH   3   4
ENDBRANCH   1   3
BRANCH   1  18
HETATM   18  O   UNL     1     -21.232  -4.205  -7.898  1.00  0.00    -0.319 OA
BRANCH  18  19
HETATM   19  C   UNL     1     -22.657  -4.411  -7.934  1.00  0.00     0.213 C 
BRANCH  19  20
HETATM   20  C   UNL     1     -23.300  -3.635  -9.095  1.00  0.00     0.178 C 
BRANCH  20  21
HETATM   21  C   UNL     1     -23.416  -4.472 -10.395  1.00  0.00     0.222 C 
HETATM   22  C   UNL     1     -22.275  -4.236 -11.314  1.00  0.00     0.114 C 
HETATM   23  C   UNL     1     -22.688  -3.611 -12.440  1.00  0.00     0.173 C 
HETATM   24  C   UNL     1     -24.161  -3.462 -12.322  1.00  0.00     0.320 C 
HETATM   25  O   UNL     1     -24.893  -2.906 -13.120  1.00  0.00    -0.257 OA
HETATM   26  O   UNL     1     -24.564  -4.107 -11.181  1.00  0.00    -0.301 OA
BRANCH  22  27
HETATM   27  O   UNL     1     -20.995  -4.645 -11.022  1.00  0.00    -0.359 OA
HETATM   28  H   UNL     1     -20.891  -4.560 -10.047  1.00  0.00     0.217 HD
ENDBRANCH  22  27
BRANCH  23  29
HETATM   29  O   UNL     1     -21.959  -3.235 -13.522  1.00  0.00    -0.353 OA
HETATM   30  H   UNL     1     -21.789  -4.033 -14.052  1.00  0.00     0.218 HD
ENDBRANCH  23  29
ENDBRANCH  20  21
BRANCH  20  31
HETATM   31  O   UNL     1     -24.586  -3.111  -8.748  1.00  0.00    -0.390 OA
HETATM   32  H   UNL     1     -24.491  -2.563  -7.947  1.00  0.00     0.210 HD
ENDBRANCH  20  31
ENDBRANCH  19  20
ENDBRANCH  18  19
ENDBRANCH   1  18
TORSDOF 21
ENDMDL
MODEL 3
REMARK VINA RESULT:      -7.3      1.236      2.042
REMARK  21 active torsions:
REMARK  status: ('A' for Active; 'I' for Inactive)
REMARK    1  A    between atoms: C_2  and  C_3 
REMARK    2  A    between atoms: C_3  and  C_4 
REMARK    3  A    between atoms: C_4  and  C_5 
REMARK    4  A    between atoms: C_5  and  C_6 
REMARK    5  A    between atoms: C_6  and  C_7 
REMARK    6  A    between atoms: C_7  and  C_8 
REMARK    7  A    between atoms: C_8  and  C_9 
REMARK    8  A    between atoms: C_9  and  C_10 
REMARK    9  A    between atoms: C_10  and  C_11 
REMARK   10  A    between atoms: C_11  and  C_12 
REMARK   11  A    between atoms: C_12  and  C_13 
REMARK   12  A    between atoms: C_13  and  C_14 
REMARK   13  A    between atoms: C_14  and  C_15 
REMARK   14  A    between atoms: C_15  and  C_16 
REMARK   15  A    between atoms: C_16  and  O_18 
REMARK   16  A    between atoms: O_18  and  C_19 
REMARK   17  A    between atoms: C_19  and  C_20 
REMARK   18  A    between atoms: C_20  and  C_21 
REMARK   19  A    between atoms: C_20  and  O_29 
REMARK   20  A    between atoms: C_22  and  O_28 
REMARK   21  A    between atoms: C_23  and  O_27 
ROOT
HETATM    1  C   UNL     1     -20.298  -4.426  -7.513  1.00  0.00     0.258 C 
HETATM    2  O   UNL     1     -19.278  -4.787  -8.091  1.00  0.00    -0.265 OA
ENDROOT
BRANCH   1   3
HETATM    3  C   UNL     1     -20.506  -4.469  -6.016  1.00  0.00     0.111 C 
BRANCH   3   4
HETATM    4  C   UNL     1     -20.487  -5.917  -5.535  1.00  0.00     0.010 C 
BRANCH   4   5
HETATM    5  C   UNL     1     -21.755  -6.322  -4.813  1.00  0.00     0.000 C 
BRANCH   5   6
HETATM    6  C   UNL     1     -21.404  -6.949  -3.469  1.00  0.00     0.000 C 
BRANCH   6   7
HETATM    7  C   UNL     1     -21.925  -6.085  -2.332  1.00  0.00     0.000 C 
BRANCH   7   8
HETATM    8  C   UNL     1     -22.326  -6.951  -1.148  1.00  0.00     0.000 C 
BRANCH   8   9
HETATM    9  C   UNL     1     -21.179  -7.870  -0.764  1.00  0.00     0.000 C 
BRANCH   9  10
HETATM   10  C   UNL     1     -21.677  -8.963   0.164  1.00  0.00     0.000 C 
BRANCH  10  11
HETATM   11  C   UNL     1     -23.192  -8.917   0.254  1.00  0.00     0.000 C 
BRANCH  11  12
HETATM   12  C   UNL     1     -23.770 -10.293  -0.023  1.00  0.00     0.000 C 
BRANCH  12  13
HETATM   13  C   UNL     1     -22.776 -11.125  -0.814  1.00  0.00     0.000 C 
BRANCH  13  14
HETATM   14  C   UNL     1     -23.220 -11.231  -2.264  1.00  0.00     0.000 C 
BRANCH  14  15
HETATM   15  C   UNL     1     -22.187 -10.589  -3.177  1.00  0.00    -0.000 C 
BRANCH  15  16
HETATM   16  C   UNL     1     -20.830 -11.259  -3.002  1.00  0.00    -0.005 C 
HETATM   17  C   UNL     1     -19.715 -10.244  -3.157  1.00  0.00     0.005 C 
ENDBRANCH  15  16
ENDBRANCH  14  15
ENDBRANCH  13  14
ENDBRANCH  12  13
ENDBRANCH  11  12
ENDBRANCH  10  11
ENDBRANCH   9  10
ENDBRANCH   8   9
ENDBRANCH   7   8
ENDBRANCH   6   7
ENDBRANCH   5   6
ENDBRANCH   4   5
ENDBRANCH   3   4
ENDBRANCH   1   3
BRANCH   1  18
HETATM   18  O   UNL     1     -21.357  -3.844  -8.155  1.00  0.00    -0.319 OA
BRANCH  18  19
HETATM   19  C   UNL     1     -22.220  -4.748  -8.869  1.00  0.00     0.213 C 
BRANCH  19  20
HETATM   20  C   UNL     1     -22.111  -4.537 -10.388  1.00  0.00     0.178 C 
BRANCH  20  21
HETATM   21  C   UNL     1     -22.651  -3.160 -10.852  1.00  0.00     0.222 C 
HETATM   22  C   UNL     1     -24.114  -3.190 -11.100  1.00  0.00     0.114 C 
HETATM   23  C   UNL     1     -24.380  -3.019 -12.415  1.00  0.00     0.173 C 
HETATM   24  C   UNL     1     -23.072  -2.809 -13.085  1.00  0.00     0.320 C 
HETATM   25  O   UNL     1     -22.891  -2.664 -14.280  1.00  0.00    -0.257 OA
HETATM   26  O   UNL     1     -22.102  -2.754 -12.117  1.00  0.00    -0.301 OA
BRANCH  22  27
HETATM   27  O   UNL     1     -25.032  -3.345 -10.088  1.00  0.00    -0.359 OA
HETATM   28  H   UNL     1     -25.882  -2.979 -10.424  1.00  0.00     0.217 HD
ENDBRANCH  22  27
BRANCH  23  29
HETATM   29  O   UNL     1     -25.584  -2.971 -13.042  1.00  0.00    -0.353 OA
HETATM   30  H   UNL     1     -25.948  -3.874 -13.044  1.00  0.00     0.218 HD
ENDBRANCH  23  29
ENDBRANCH  20  21
BRANCH  20  31
HETATM   31  O   UNL     1     -20.772  -4.709 -10.862  1.00  0.00    -0.390 OA
HETATM   32  H   UNL     1     -20.561  -3.976 -11.469  1.00  0.00     0.210 HD
ENDBRANCH  20  31
ENDBRANCH  19  20
ENDBRANCH  18  19
ENDBRANCH   1  18
TORSDOF 21
ENDMDL
MODEL 4
REMARK VINA RESULT:      -7.2      1.560      2.363
REMARK  21 active torsions:
REMARK  status: ('A' for Active; 'I' for Inactive)
REMARK    1  A    between atoms: C_2  and  C_3 
REMARK    2  A    between atoms: C_3  and  C_4 
REMARK    3  A    between atoms: C_4  and  C_5 
REMARK    4  A    between atoms: C_5  and  C_6 
REMARK    5  A    between atoms: C_6  and  C_7 
REMARK    6  A    between atoms: C_7  and  C_8 
REMARK    7  A    between atoms: C_8  and  C_9 
REMARK    8  A    between atoms: C_9  and  C_10 
REMARK    9  A    between atoms: C_10  and  C_11 
REMARK   10  A    between atoms: C_11  and  C_12 
REMARK   11  A    between atoms: C_12  and  C_13 
REMARK   12  A    between atoms: C_13  and  C_14 
REMARK   13  A    between atoms: C_14  and  C_15 
REMARK   14  A    between atoms: C_15  and  C_16 
REMARK   15  A    between atoms: C_16  and  O_18 
REMARK   16  A    between atoms: O_18  and  C_19 
REMARK   17  A    between atoms: C_19  and  C_20 
REMARK   18  A    between atoms: C_20  and  C_21 
REMARK   19  A    between atoms: C_20  and  O_29 
REMARK   20  A    between atoms: C_22  and  O_28 
REMARK   21  A    between atoms: C_23  and  O_27 
ROOT
HETATM    1  C   UNL     1     -20.484  -6.228  -6.344  1.00  0.00     0.258 C 
HETATM    2  O   UNL     1     -19.768  -7.206  -6.530  1.00  0.00    -0.265 OA
ENDROOT
BRANCH   1   3
HETATM    3  C   UNL     1     -21.574  -6.140  -5.300  1.00  0.00     0.111 C 
BRANCH   3   4
HETATM    4  C   UNL     1     -20.966  -6.270  -3.906  1.00  0.00     0.010 C 
BRANCH   4   5
HETATM    5  C   UNL     1     -22.002  -6.300  -2.804  1.00  0.00     0.000 C 
BRANCH   5   6
HETATM    6  C   UNL     1     -21.467  -7.088  -1.614  1.00  0.00     0.000 C 
BRANCH   6   7
HETATM    7  C   UNL     1     -22.563  -7.299  -0.583  1.00  0.00     0.000 C 
BRANCH   7   8
HETATM    8  C   UNL     1     -22.239  -8.494   0.299  1.00  0.00     0.000 C 
BRANCH   8   9
HETATM    9  C   UNL     1     -23.322  -9.551   0.161  1.00  0.00     0.000 C 
BRANCH   9  10
HETATM   10  C   UNL     1     -22.763 -10.783  -0.525  1.00  0.00     0.000 C 
BRANCH  10  11
HETATM   11  C   UNL     1     -23.562 -11.085  -1.781  1.00  0.00     0.000 C 
BRANCH  11  12
HETATM   12  C   UNL     1     -22.623 -11.446  -2.918  1.00  0.00     0.000 C 
BRANCH  12  13
HETATM   13  C   UNL     1     -22.173 -10.188  -3.640  1.00  0.00     0.000 C 
BRANCH  13  14
HETATM   14  C   UNL     1     -20.733 -10.340  -4.104  1.00  0.00     0.000 C 
BRANCH  14  15
HETATM   15  C   UNL     1     -19.780  -9.878  -3.013  1.00  0.00    -0.000 C 
BRANCH  15  16
HETATM   16  C   UNL     1     -18.588  -9.149  -3.617  1.00  0.00    -0.005 C 
HETATM   17  C   UNL     1     -17.314  -9.514  -2.881  1.00  0.00     0.005 C 
ENDBRANCH  15  16
ENDBRANCH  14  15
ENDBRANCH  13  14
ENDBRANCH  12  13
ENDBRANCH  11  12
ENDBRANCH  10  11
ENDBRANCH   9  10
ENDBRANCH   8   9
ENDBRANCH   7   8
ENDBRANCH   6   7
ENDBRANCH   5   6
ENDBRANCH   4   5
ENDBRANCH   3   4
ENDBRANCH   1   3
BRANCH   1  18
HETATM   18  O   UNL     1     -20.323  -5.044  -7.009  1.00  0.00    -0.319 OA
BRANCH  18  19
HETATM   19  C   UNL     1     -20.562  -5.092  -8.427  1.00  0.00     0.213 C 
BRANCH  19  20
HETATM   20  C   UNL     1     -21.624  -4.062  -8.847  1.00  0.00     0.178 C 
BRANCH  20  21
HETATM   21  C   UNL     1     -22.711  -4.654  -9.780  1.00  0.00     0.222 C 
HETATM   22  C   UNL     1     -22.736  -3.984 -11.104  1.00  0.00     0.114 C 
HETATM   23  C   UNL     1     -23.884  -3.288 -11.267  1.00  0.00     0.173 C 
HETATM   24  C   UNL     1     -24.698  -3.528 -10.050  1.00  0.00     0.320 C 
HETATM   25  O   UNL     1     -25.783  -3.034  -9.802  1.00  0.00    -0.257 OA
HETATM   26  O   UNL     1     -24.041  -4.446  -9.272  1.00  0.00    -0.301 OA
BRANCH  22  27
HETATM   27  O   UNL     1     -21.714  -4.113 -12.015  1.00  0.00    -0.359 OA
HETATM   28  H   UNL     1     -21.232  -4.937 -11.778  1.00  0.00     0.217 HD
ENDBRANCH  22  27
BRANCH  23  29
HETATM   29  O   UNL     1     -24.291  -2.556 -12.337  1.00  0.00    -0.353 OA
HETATM   30  H   UNL     1     -24.087  -3.071 -13.137  1.00  0.00     0.218 HD
ENDBRANCH  23  29
ENDBRANCH  20  21
BRANCH  20  31
HETATM   31  O   UNL     1     -22.248  -3.439  -7.720  1.00  0.00    -0.390 OA
HETATM   32  H   UNL     1     -22.487  -4.132  -7.077  1.00  0.00     0.210 HD
ENDBRANCH  20  31
ENDBRANCH  19  20
ENDBRANCH  18  19
ENDBRANCH   1  18
TORSDOF 21
ENDMDL
MODEL 5
REMARK VINA RESULT:      -7.2      2.242      3.593
REMARK  21 active torsions:
REMARK  status: ('A' for Active; 'I' for Inactive)
REMARK    1  A    between atoms: C_2  and  C_3 
REMARK    2  A    between atoms: C_3  and  C_4 
REMARK    3  A    between atoms: C_4  and  C_5 
REMARK    4  A    between atoms: C_5  and  C_6 
REMARK    5  A    between atoms: C_6  and  C_7 
REMARK    6  A    between atoms: C_7  and  C_8 
REMARK    7  A    between atoms: C_8  and  C_9 
REMARK    8  A    between atoms: C_9  and  C_10 
REMARK    9  A    between atoms: C_10  and  C_11 
REMARK   10  A    between atoms: C_11  and  C_12 
REMARK   11  A    between atoms: C_12  and  C_13 
REMARK   12  A    between atoms: C_13  and  C_14 
REMARK   13  A    between atoms: C_14  and  C_15 
REMARK   14  A    between atoms: C_15  and  C_16 
REMARK   15  A    between atoms: C_16  and  O_18 
REMARK   16  A    between atoms: O_18  and  C_19 
REMARK   17  A    between atoms: C_19  and  C_20 
REMARK   18  A    between atoms: C_20  and  C_21 
REMARK   19  A    between atoms: C_20  and  O_29 
REMARK   20  A    between atoms: C_22  and  O_28 
REMARK   21  A    between atoms: C_23  and  O_27 
ROOT
HETATM    1  C   UNL     1     -20.750  -6.076  -6.513  1.00  0.00     0.258 C 
HETATM    2  O   UNL     1     -19.867  -6.615  -7.170  1.00  0.00    -0.265 OA
ENDROOT
BRANCH   1   3
HETATM    3  C   UNL     1     -21.476  -6.714  -5.349  1.00  0.00     0.111 C 
BRANCH   3   4
HETATM    4  C   UNL     1     -21.201  -5.923  -4.074  1.00  0.00     0.010 C 
BRANCH   4   5
HETATM    5  C   UNL     1     -21.817  -6.548  -2.840  1.00  0.00     0.000 C 
BRANCH   5   6
HETATM    6  C   UNL     1     -21.023  -7.785  -2.438  1.00  0.00     0.000 C 
BRANCH   6   7
HETATM    7  C   UNL     1     -21.124  -8.014  -0.939  1.00  0.00     0.000 C 
BRANCH   7   8
HETATM    8  C   UNL     1     -22.315  -7.263  -0.366  1.00  0.00     0.000 C 
BRANCH   8   9
HETATM    9  C   UNL     1     -23.241  -8.227   0.354  1.00  0.00     0.000 C 
BRANCH   9  10
HETATM   10  C   UNL     1     -22.811  -9.658   0.088  1.00  0.00     0.000 C 
BRANCH  10  11
HETATM   11  C   UNL     1     -24.031 -10.558   0.000  1.00  0.00     0.000 C 
BRANCH  11  12
HETATM   12  C   UNL     1     -23.871 -11.537  -1.150  1.00  0.00     0.000 C 
BRANCH  12  13
HETATM   13  C   UNL     1     -23.773 -12.955  -0.617  1.00  0.00     0.000 C 
BRANCH  13  14
HETATM   14  C   UNL     1     -23.374 -12.935   0.850  1.00  0.00     0.000 C 
BRANCH  14  15
HETATM   15  C   UNL     1     -22.656 -14.225   1.214  1.00  0.00    -0.000 C 
BRANCH  15  16
HETATM   16  C   UNL     1     -22.691 -14.450   2.720  1.00  0.00    -0.005 C 
HETATM   17  C   UNL     1     -24.110 -14.715   3.184  1.00  0.00     0.005 C 
ENDBRANCH  15  16
ENDBRANCH  14  15
ENDBRANCH  13  14
ENDBRANCH  12  13
ENDBRANCH  11  12
ENDBRANCH  10  11
ENDBRANCH   9  10
ENDBRANCH   8   9
ENDBRANCH   7   8
ENDBRANCH   6   7
ENDBRANCH   5   6
ENDBRANCH   4   5
ENDBRANCH   3   4
ENDBRANCH   1   3
BRANCH   1  18
HETATM   18  O   UNL     1     -21.134  -4.776  -6.696  1.00  0.00    -0.319 OA
BRANCH  18  19
HETATM   19  C   UNL     1     -21.036  -4.286  -8.046  1.00  0.00     0.213 C 
BRANCH  19  20
HETATM   20  C   UNL     1     -22.420  -3.909  -8.602  1.00  0.00     0.178 C 
BRANCH  20  21
HETATM   21  C   UNL     1     -22.768  -4.645  -9.921  1.00  0.00     0.222 C 
HETATM   22  C   UNL     1     -21.920  -4.193 -11.052  1.00  0.00     0.114 C 
HETATM   23  C   UNL     1     -22.662  -3.536 -11.973  1.00  0.00     0.173 C 
HETATM   24  C   UNL     1     -24.066  -3.584 -11.494  1.00  0.00     0.320 C 
HETATM   25  O   UNL     1     -25.027  -3.062 -12.030  1.00  0.00    -0.257 OA
HETATM   26  O   UNL     1     -24.106  -4.365 -10.368  1.00  0.00    -0.301 OA
BRANCH  22  27
HETATM   27  O   UNL     1     -20.573  -4.459 -11.118  1.00  0.00    -0.359 OA
HETATM   28  H   UNL     1     -20.152  -3.669 -11.526  1.00  0.00     0.217 HD
ENDBRANCH  22  27
BRANCH  23  29
HETATM   29  O   UNL     1     -22.265  -2.983 -13.149  1.00  0.00    -0.353 OA
HETATM   30  H   UNL     1     -21.969  -3.708 -13.726  1.00  0.00     0.218 HD
ENDBRANCH  23  29
ENDBRANCH  20  21
BRANCH  20  31
HETATM   31  O   UNL     1     -23.462  -4.124  -7.645  1.00  0.00    -0.390 OA
HETATM   32  H   UNL     1     -23.999  -4.884  -7.937  1.00  0.00     0.210 HD
ENDBRANCH  20  31
ENDBRANCH  19  20
ENDBRANCH  18  19
ENDBRANCH   1  18
TORSDOF 21
ENDMDL
MODEL 6
REMARK VINA RESULT:      -7.1      1.676      3.005
REMARK  21 active torsions:
REMARK  status: ('A' for Active; 'I' for Inactive)
REMARK    1  A    between atoms: C_2  and  C_3 
REMARK    2  A    between atoms: C_3  and  C_4 
REMARK    3  A    between atoms: C_4  and  C_5 
REMARK    4  A    between atoms: C_5  and  C_6 
REMARK    5  A    between atoms: C_6  and  C_7 
REMARK    6  A    between atoms: C_7  and  C_8 
REMARK    7  A    between atoms: C_8  and  C_9 
REMARK    8  A    between atoms: C_9  and  C_10 
REMARK    9  A    between atoms: C_10  and  C_11 
REMARK   10  A    between atoms: C_11  and  C_12 
REMARK   11  A    between atoms: C_12  and  C_13 
REMARK   12  A    between atoms: C_13  and  C_14 
REMARK   13  A    between atoms: C_14  and  C_15 
REMARK   14  A    between atoms: C_15  and  C_16 
REMARK   15  A    between atoms: C_16  and  O_18 
REMARK   16  A    between atoms: O_18  and  C_19 
REMARK   17  A    between atoms: C_19  and  C_20 
REMARK   18  A    between atoms: C_20  and  C_21 
REMARK   19  A    between atoms: C_20  and  O_29 
REMARK   20  A    between atoms: C_22  and  O_28 
REMARK   21  A    between atoms: C_23  and  O_27 
ROOT
HETATM    1  C   UNL     1     -19.773  -4.947  -7.722  1.00  0.00     0.258 C 
HETATM    2  O   UNL     1     -18.855  -4.200  -7.401  1.00  0.00    -0.265 OA
ENDROOT
BRANCH   1   3
HETATM    3  C   UNL     1     -20.020  -6.318  -7.133  1.00  0.00     0.111 C 
BRANCH   3   4
HETATM    4  C   UNL     1     -20.105  -6.219  -5.613  1.00  0.00     0.010 C 
BRANCH   4   5
HETATM    5  C   UNL     1     -20.963  -7.300  -4.991  1.00  0.00     0.000 C 
BRANCH   5   6
HETATM    6  C   UNL     1     -22.068  -6.664  -4.157  1.00  0.00     0.000 C 
BRANCH   6   7
HETATM    7  C   UNL     1     -21.476  -5.938  -2.960  1.00  0.00     0.000 C 
BRANCH   7   8
HETATM    8  C   UNL     1     -22.215  -6.321  -1.688  1.00  0.00     0.000 C 
BRANCH   8   9
HETATM    9  C   UNL     1     -21.642  -7.608  -1.121  1.00  0.00     0.000 C 
BRANCH   9  10
HETATM   10  C   UNL     1     -22.377  -7.989   0.151  1.00  0.00     0.000 C 
BRANCH  10  11
HETATM   11  C   UNL     1     -22.699  -9.474   0.138  1.00  0.00     0.000 C 
BRANCH  11  12
HETATM   12  C   UNL     1     -22.044 -10.135  -1.061  1.00  0.00     0.000 C 
BRANCH  12  13
HETATM   13  C   UNL     1     -23.044 -11.030  -1.773  1.00  0.00     0.000 C 
BRANCH  13  14
HETATM   14  C   UNL     1     -24.090 -11.529  -0.789  1.00  0.00     0.000 C 
BRANCH  14  15
HETATM   15  C   UNL     1     -23.775 -12.957  -0.370  1.00  0.00    -0.000 C 
BRANCH  15  16
HETATM   16  C   UNL     1     -23.246 -12.990   1.058  1.00  0.00    -0.005 C 
HETATM   17  C   UNL     1     -23.380 -14.383   1.640  1.00  0.00     0.005 C 
ENDBRANCH  15  16
ENDBRANCH  14  15
ENDBRANCH  13  14
ENDBRANCH  12  13
ENDBRANCH  11  12
ENDBRANCH  10  11
ENDBRANCH   9  10
ENDBRANCH   8   9
ENDBRANCH   7   8
ENDBRANCH   6   7
ENDBRANCH   5   6
ENDBRANCH   4   5
ENDBRANCH   3   4
ENDBRANCH   1   3
BRANCH   1  18
HETATM   18  O   UNL     1     -20.756  -4.591  -8.603  1.00  0.00    -0.319 OA
BRANCH  18  19
HETATM   19  C   UNL     1     -20.331  -4.412  -9.967  1.00  0.00     0.213 C 
BRANCH  19  20
HETATM   20  C   UNL     1     -21.535  -4.372 -10.923  1.00  0.00     0.178 C 
BRANCH  20  21
HETATM   21  C   UNL     1     -22.415  -3.109 -10.742  1.00  0.00     0.222 C 
HETATM   22  C   UNL     1     -23.507  -3.326  -9.761  1.00  0.00     0.114 C 
HETATM   23  C   UNL     1     -24.713  -3.295 -10.373  1.00  0.00     0.173 C 
HETATM   24  C   UNL     1     -24.451  -2.992 -11.802  1.00  0.00     0.320 C 
HETATM   25  O   UNL     1     -25.285  -2.926 -12.687  1.00  0.00    -0.257 OA
HETATM   26  O   UNL     1     -23.110  -2.747 -11.947  1.00  0.00    -0.301 OA
BRANCH  22  27
HETATM   27  O   UNL     1     -23.270  -3.501  -8.418  1.00  0.00    -0.359 OA
HETATM   28  H   UNL     1     -24.138  -3.400  -7.966  1.00  0.00     0.217 HD
ENDBRANCH  22  27
BRANCH  23  29
HETATM   29  O   UNL     1     -25.949  -3.437  -9.827  1.00  0.00    -0.353 OA
HETATM   30  H   UNL     1     -26.599  -3.287 -10.535  1.00  0.00     0.218 HD
ENDBRANCH  23  29
ENDBRANCH  20  21
BRANCH  20  31
HETATM   31  O   UNL     1     -21.139  -4.486 -12.294  1.00  0.00    -0.390 OA
HETATM   32  H   UNL     1     -20.728  -5.360 -12.426  1.00  0.00     0.210 HD
ENDBRANCH  20  31
ENDBRANCH  19  20
ENDBRANCH  18  19
ENDBRANCH   1  18
TORSDOF 21
ENDMDL
MODEL 7
REMARK VINA RESULT:      -6.7      1.935      3.585
REMARK  21 active torsions:
REMARK  status: ('A' for Active; 'I' for Inactive)
REMARK    1  A    between atoms: C_2  and  C_3 
REMARK    2  A    between atoms: C_3  and  C_4 
REMARK    3  A    between atoms: C_4  and  C_5 
REMARK    4  A    between atoms: C_5  and  C_6 
REMARK    5  A    between atoms: C_6  and  C_7 
REMARK    6  A    between atoms: C_7  and  C_8 
REMARK    7  A    between atoms: C_8  and  C_9 
REMARK    8  A    between atoms: C_9  and  C_10 
REMARK    9  A    between atoms: C_10  and  C_11 
REMARK   10  A    between atoms: C_11  and  C_12 
REMARK   11  A    between atoms: C_12  and  C_13 
REMARK   12  A    between atoms: C_13  and  C_14 
REMARK   13  A    between atoms: C_14  and  C_15 
REMARK   14  A    between atoms: C_15  and  C_16 
REMARK   15  A    between atoms: C_16  and  O_18 
REMARK   16  A    between atoms: O_18  and  C_19 
REMARK   17  A    between atoms: C_19  and  C_20 
REMARK   18  A    between atoms: C_20  and  C_21 
REMARK   19  A    between atoms: C_20  and  O_29 
REMARK   20  A    between atoms: C_22  and  O_28 
REMARK   21  A    between atoms: C_23  and  O_27 
ROOT
HETATM    1  C   UNL     1     -21.589  -7.640  -5.277  1.00  0.00     0.258 C 
HETATM    2  O   UNL     1     -21.014  -8.370  -6.078  1.00  0.00    -0.265 OA
ENDROOT
BRANCH   1   3
HETATM    3  C   UNL     1     -21.888  -8.000  -3.839  1.00  0.00     0.111 C 
BRANCH   3   4
HETATM    4  C   UNL     1     -20.585  -8.114  -3.054  1.00  0.00     0.010 C 
BRANCH   4   5
HETATM    5  C   UNL     1     -20.725  -7.704  -1.603  1.00  0.00     0.000 C 
BRANCH   5   6
HETATM    6  C   UNL     1     -21.980  -6.857  -1.426  1.00  0.00     0.000 C 
BRANCH   6   7
HETATM    7  C   UNL     1     -22.786  -7.349  -0.235  1.00  0.00     0.000 C 
BRANCH   7   8
HETATM    8  C   UNL     1     -22.251  -8.686   0.252  1.00  0.00     0.000 C 
BRANCH   8   9
HETATM    9  C   UNL     1     -23.232  -9.795  -0.090  1.00  0.00     0.000 C 
BRANCH   9  10
HETATM   10  C   UNL     1     -22.504 -10.941  -0.768  1.00  0.00     0.000 C 
BRANCH  10  11
HETATM   11  C   UNL     1     -21.146 -11.149  -0.120  1.00  0.00     0.000 C 
BRANCH  11  12
HETATM   12  C   UNL     1     -20.103 -11.437  -1.185  1.00  0.00     0.000 C 
BRANCH  12  13
HETATM   13  C   UNL     1     -18.777 -11.787  -0.534  1.00  0.00     0.000 C 
BRANCH  13  14
HETATM   14  C   UNL     1     -17.636 -11.545  -1.509  1.00  0.00     0.000 C 
BRANCH  14  15
HETATM   15  C   UNL     1     -18.133 -10.758  -2.712  1.00  0.00    -0.000 C 
BRANCH  15  16
HETATM   16  C   UNL     1     -17.239  -9.551  -2.966  1.00  0.00    -0.005 C 
HETATM   17  C   UNL     1     -15.800  -9.874  -2.615  1.00  0.00     0.005 C 
ENDBRANCH  15  16
ENDBRANCH  14  15
ENDBRANCH  13  14
ENDBRANCH  12  13
ENDBRANCH  11  12
ENDBRANCH  10  11
ENDBRANCH   9  10
ENDBRANCH   8   9
ENDBRANCH   7   8
ENDBRANCH   6   7
ENDBRANCH   5   6
ENDBRANCH   4   5
ENDBRANCH   3   4
ENDBRANCH   1   3
BRANCH   1  18
HETATM   18  O   UNL     1     -21.956  -6.355  -5.564  1.00  0.00    -0.319 OA
BRANCH  18  19
HETATM   19  C   UNL     1     -20.926  -5.529  -6.136  1.00  0.00     0.213 C 
BRANCH  19  20
HETATM   20  C   UNL     1     -21.118  -5.373  -7.654  1.00  0.00     0.178 C 
BRANCH  20  21
HETATM   21  C   UNL     1     -21.850  -4.064  -8.044  1.00  0.00     0.222 C 
HETATM   22  C   UNL     1     -23.326  -4.214  -7.993  1.00  0.00     0.114 C 
HETATM   23  C   UNL     1     -23.860  -4.126  -9.232  1.00  0.00     0.173 C 
HETATM   24  C   UNL     1     -22.731  -3.853 -10.157  1.00  0.00     0.320 C 
HETATM   25  O   UNL     1     -22.803  -3.752 -11.369  1.00  0.00    -0.257 OA
HETATM   26  O   UNL     1     -21.597  -3.679  -9.407  1.00  0.00    -0.301 OA
BRANCH  22  27
HETATM   27  O   UNL     1     -24.010  -4.387  -6.812  1.00  0.00    -0.359 OA
HETATM   28  H   UNL     1     -24.887  -3.958  -6.933  1.00  0.00     0.217 HD
ENDBRANCH  22  27
BRANCH  23  29
HETATM   29  O   UNL     1     -25.164  -4.198  -9.605  1.00  0.00    -0.353 OA
HETATM   30  H   UNL     1     -25.185  -4.441 -10.547  1.00  0.00     0.218 HD
ENDBRANCH  23  29
ENDBRANCH  20  21
BRANCH  20  31
HETATM   31  O   UNL     1     -19.880  -5.459  -8.367  1.00  0.00    -0.390 OA
HETATM   32  H   UNL     1     -19.832  -4.715  -8.996  1.00  0.00     0.210 HD
ENDBRANCH  20  31
ENDBRANCH  19  20
ENDBRANCH  18  19
ENDBRANCH   1  18
TORSDOF 21
ENDMDL
MODEL 8
REMARK VINA RESULT:      -6.4      2.015      3.639
REMARK  21 active torsions:
REMARK  status: ('A' for Active; 'I' for Inactive)
REMARK    1  A    between atoms: C_2  and  C_3 
REMARK    2  A    between atoms: C_3  and  C_4 
REMARK    3  A    between atoms: C_4  and  C_5 
REMARK    4  A    between atoms: C_5  and  C_6 
REMARK    5  A    between atoms: C_6  and  C_7 
REMARK    6  A    between atoms: C_7  and  C_8 
REMARK    7  A    between atoms: C_8  and  C_9 
REMARK    8  A    between atoms: C_9  and  C_10 
REMARK    9  A    between atoms: C_10  and  C_11 
REMARK   10  A    between atoms: C_11  and  C_12 
REMARK   11  A    between atoms: C_12  and  C_13 
REMARK   12  A    between atoms: C_13  and  C_14 
REMARK   13  A    between atoms: C_14  and  C_15 
REMARK   14  A    between atoms: C_15  and  C_16 
REMARK   15  A    between atoms: C_16  and  O_18 
REMARK   16  A    between atoms: O_18  and  C_19 
REMARK   17  A    between atoms: C_19  and  C_20 
REMARK   18  A    between atoms: C_20  and  C_21 
REMARK   19  A    between atoms: C_20  and  O_29 
REMARK   20  A    between atoms: C_22  and  O_28 
REMARK   21  A    between atoms: C_23  and  O_27 
ROOT
HETATM    1  C   UNL     1     -21.863  -6.056  -4.905  1.00  0.00     0.258 C 
HETATM    2  O   UNL     1     -23.034  -6.327  -5.148  1.00  0.00    -0.265 OA
ENDROOT
BRANCH   1   3
HETATM    3  C   UNL     1     -21.195  -6.228  -3.559  1.00  0.00     0.111 C 
BRANCH   3   4
HETATM    4  C   UNL     1     -22.181  -6.841  -2.569  1.00  0.00     0.010 C 
BRANCH   4   5
HETATM    5  C   UNL     1     -22.020  -6.309  -1.161  1.00  0.00     0.000 C 
BRANCH   5   6
HETATM    6  C   UNL     1     -22.653  -7.278  -0.169  1.00  0.00     0.000 C 
BRANCH   6   7
HETATM    7  C   UNL     1     -22.449  -8.713  -0.628  1.00  0.00     0.000 C 
BRANCH   7   8
HETATM    8  C   UNL     1     -21.624  -9.484   0.389  1.00  0.00     0.000 C 
BRANCH   8   9
HETATM    9  C   UNL     1     -21.875 -10.974   0.240  1.00  0.00     0.000 C 
BRANCH   9  10
HETATM   10  C   UNL     1     -23.332 -11.225  -0.103  1.00  0.00     0.000 C 
BRANCH  10  11
HETATM   11  C   UNL     1     -23.430 -12.118  -1.328  1.00  0.00     0.000 C 
BRANCH  11  12
HETATM   12  C   UNL     1     -23.098 -11.321  -2.577  1.00  0.00     0.000 C 
BRANCH  12  13
HETATM   13  C   UNL     1     -22.510 -12.235  -3.636  1.00  0.00     0.000 C 
BRANCH  13  14
HETATM   14  C   UNL     1     -21.754 -11.417  -4.671  1.00  0.00     0.000 C 
BRANCH  14  15
HETATM   15  C   UNL     1     -21.516 -10.007  -4.152  1.00  0.00    -0.000 C 
BRANCH  15  16
HETATM   16  C   UNL     1     -20.027  -9.687  -4.137  1.00  0.00    -0.005 C 
HETATM   17  C   UNL     1     -19.532  -9.533  -2.712  1.00  0.00     0.005 C 
ENDBRANCH  15  16
ENDBRANCH  14  15
ENDBRANCH  13  14
ENDBRANCH  12  13
ENDBRANCH  11  12
ENDBRANCH  10  11
ENDBRANCH   9  10
ENDBRANCH   8   9
ENDBRANCH   7   8
ENDBRANCH   6   7
ENDBRANCH   5   6
ENDBRANCH   4   5
ENDBRANCH   3   4
ENDBRANCH   1   3
BRANCH   1  18
HETATM   18  O   UNL     1     -20.976  -5.644  -5.861  1.00  0.00    -0.319 OA
BRANCH  18  19
HETATM   19  C   UNL     1     -21.322  -5.984  -7.216  1.00  0.00     0.213 C 
BRANCH  19  20
HETATM   20  C   UNL     1     -20.677  -5.009  -8.216  1.00  0.00     0.178 C 
BRANCH  20  21
HETATM   21  C   UNL     1     -21.637  -3.880  -8.670  1.00  0.00     0.222 C 
HETATM   22  C   UNL     1     -23.057  -4.206  -8.384  1.00  0.00     0.114 C 
HETATM   23  C   UNL     1     -23.748  -4.380  -9.533  1.00  0.00     0.173 C 
HETATM   24  C   UNL     1     -22.797  -4.112 -10.641  1.00  0.00     0.320 C 
HETATM   25  O   UNL     1     -23.034  -4.211 -11.831  1.00  0.00    -0.257 OA
HETATM   26  O   UNL     1     -21.616  -3.682 -10.094  1.00  0.00    -0.301 OA
BRANCH  22  27
HETATM   27  O   UNL     1     -23.554  -4.279  -7.104  1.00  0.00    -0.359 OA
HETATM   28  H   UNL     1     -23.667  -5.236  -6.903  1.00  0.00     0.217 HD
ENDBRANCH  22  27
BRANCH  23  29
HETATM   29  O   UNL     1     -25.064  -4.674  -9.699  1.00  0.00    -0.353 OA
HETATM   30  H   UNL     1     -25.576  -3.911  -9.379  1.00  0.00     0.218 HD
ENDBRANCH  23  29
ENDBRANCH  20  21
BRANCH  20  31
HETATM   31  O   UNL     1     -19.470  -4.434  -7.707  1.00  0.00    -0.390 OA
HETATM   32  H   UNL     1     -19.462  -3.484  -7.926  1.00  0.00     0.210 HD
ENDBRANCH  20  31
ENDBRANCH  19  20
ENDBRANCH  18  19
ENDBRANCH   1  18
TORSDOF 21
ENDMDL
MODEL 9
REMARK VINA RESULT:      -6.4      1.912      4.004
REMARK  21 active torsions:
REMARK  status: ('A' for Active; 'I' for Inactive)
REMARK    1  A    between atoms: C_2  and  C_3 
REMARK    2  A    between atoms: C_3  and  C_4 
REMARK    3  A    between atoms: C_4  and  C_5 
REMARK    4  A    between atoms: C_5  and  C_6 
REMARK    5  A    between atoms: C_6  and  C_7 
REMARK    6  A    between atoms: C_7  and  C_8 
REMARK    7  A    between atoms: C_8  and  C_9 
REMARK    8  A    between atoms: C_9  and  C_10 
REMARK    9  A    between atoms: C_10  and  C_11 
REMARK   10  A    between atoms: C_11  and  C_12 
REMARK   11  A    between atoms: C_12  and  C_13 
REMARK   12  A    between atoms: C_13  and  C_14 
REMARK   13  A    between atoms: C_14  and  C_15 
REMARK   14  A    between atoms: C_15  and  C_16 
REMARK   15  A    between atoms: C_16  and  O_18 
REMARK   16  A    between atoms: O_18  and  C_19 
REMARK   17  A    between atoms: C_19  and  C_20 
REMARK   18  A    between atoms: C_20  and  C_21 
REMARK   19  A    between atoms: C_20  and  O_29 
REMARK   20  A    between atoms: C_22  and  O_28 
REMARK   21  A    between atoms: C_23  and  O_27 
ROOT
HETATM    1  C   UNL     1     -21.808  -6.227  -4.839  1.00  0.00     0.258 C 
HETATM    2  O   UNL     1     -23.019  -6.144  -5.015  1.00  0.00    -0.265 OA
ENDROOT
BRANCH   1   3
HETATM    3  C   UNL     1     -21.149  -6.723  -3.571  1.00  0.00     0.111 C 
BRANCH   3   4
HETATM    4  C   UNL     1     -20.549  -8.105  -3.809  1.00  0.00     0.010 C 
BRANCH   4   5
HETATM    5  C   UNL     1     -21.568  -9.127  -4.267  1.00  0.00     0.000 C 
BRANCH   5   6
HETATM    6  C   UNL     1     -21.024 -10.533  -4.044  1.00  0.00     0.000 C 
BRANCH   6   7
HETATM    7  C   UNL     1     -20.073 -10.550  -2.858  1.00  0.00     0.000 C 
BRANCH   7   8
HETATM    8  C   UNL     1     -20.063 -11.923  -2.205  1.00  0.00     0.000 C 
BRANCH   8   9
HETATM    9  C   UNL     1     -20.168 -11.783  -0.697  1.00  0.00     0.000 C 
BRANCH   9  10
HETATM   10  C   UNL     1     -21.120 -12.826  -0.142  1.00  0.00     0.000 C 
BRANCH  10  11
HETATM   11  C   UNL     1     -22.114 -12.170   0.802  1.00  0.00     0.000 C 
BRANCH  11  12
HETATM   12  C   UNL     1     -23.502 -12.189   0.188  1.00  0.00     0.000 C 
BRANCH  12  13
HETATM   13  C   UNL     1     -23.711 -10.950  -0.663  1.00  0.00     0.000 C 
BRANCH  13  14
HETATM   14  C   UNL     1     -23.292  -9.709   0.108  1.00  0.00     0.000 C 
BRANCH  14  15
HETATM   15  C   UNL     1     -22.483  -8.784  -0.788  1.00  0.00    -0.000 C 
BRANCH  15  16
HETATM   16  C   UNL     1     -21.351  -8.135  -0.002  1.00  0.00    -0.005 C 
HETATM   17  C   UNL     1     -21.179  -8.817   1.341  1.00  0.00     0.005 C 
ENDBRANCH  15  16
ENDBRANCH  14  15
ENDBRANCH  13  14
ENDBRANCH  12  13
ENDBRANCH  11  12
ENDBRANCH  10  11
ENDBRANCH   9  10
ENDBRANCH   8   9
ENDBRANCH   7   8
ENDBRANCH   6   7
ENDBRANCH   5   6
ENDBRANCH   4   5
ENDBRANCH   3   4
ENDBRANCH   1   3
BRANCH   1  18
HETATM   18  O   UNL     1     -20.888  -5.961  -5.816  1.00  0.00    -0.319 OA
BRANCH  18  19
HETATM   19  C   UNL     1     -21.387  -6.007  -7.166  1.00  0.00     0.213 C 
BRANCH  19  20
HETATM   20  C   UNL     1     -20.668  -4.982  -8.059  1.00  0.00     0.178 C 
BRANCH  20  21
HETATM   21  C   UNL     1     -21.618  -3.896  -8.626  1.00  0.00     0.222 C 
HETATM   22  C   UNL     1     -23.045  -4.219  -8.378  1.00  0.00     0.114 C 
HETATM   23  C   UNL     1     -23.686  -4.476  -9.541  1.00  0.00     0.173 C 
HETATM   24  C   UNL     1     -22.692  -4.271 -10.624  1.00  0.00     0.320 C 
HETATM   25  O   UNL     1     -22.878  -4.450 -11.814  1.00  0.00    -0.257 OA
HETATM   26  O   UNL     1     -21.539  -3.793 -10.058  1.00  0.00    -0.301 OA
BRANCH  22  27
HETATM   27  O   UNL     1     -23.596  -4.214  -7.118  1.00  0.00    -0.359 OA
HETATM   28  H   UNL     1     -22.903  -3.865  -6.513  1.00  0.00     0.217 HD
ENDBRANCH  22  27
BRANCH  23  29
HETATM   29  O   UNL     1     -24.991  -4.795  -9.741  1.00  0.00    -0.353 OA
HETATM   30  H   UNL     1     -25.016  -5.545 -10.361  1.00  0.00     0.218 HD
ENDBRANCH  23  29
ENDBRANCH  20  21
BRANCH  20  31
HETATM   31  O   UNL     1     -19.572  -4.355  -7.386  1.00  0.00    -0.390 OA
HETATM   32  H   UNL     1     -19.611  -4.593  -6.441  1.00  0.00     0.210 HD
ENDBRANCH  20  31
ENDBRANCH  19  20
ENDBRANCH  18  19
ENDBRANCH   1  18
TORSDOF 21
ENDMDL
