MODEL 1
REMARK VINA RESULT:      -4.9      0.000      0.000
REMARK WARNING: 32 MAX_TORS EXCEEDED!!!
REMARK  60 active torsions:
REMARK  status: ('A' for Active; 'I' for Inactive)
REMARK    1  A    between atoms: C_2  and  C_3 
REMARK    2  A    between atoms: C_3  and  O_5 
REMARK    3  A    between atoms: O_5  and  C_6 
REMARK    4  A    between atoms: C_6  and  C_7 
REMARK    5  A    between atoms: C_8  and  O_28 
REMARK    6  A    between atoms: C_9  and  O_23 
REMARK    7  A    between atoms: C_10  and  O_18 
REMARK    8  A    between atoms: C_11  and  O_13 
REMARK    9  A    between atoms: O_13  and  C_14 
REMARK   10  A    between atoms: C_14  and  C_16 
REMARK   11  A    between atoms: O_18  and  C_19 
REMARK   12  A    between atoms: C_19  and  C_21 
REMARK   13  A    between atoms: O_23  and  C_24 
REMARK   14  A    between atoms: C_24  and  C_26 
REMARK   15  A    between atoms: O_28  and  C_29 
REMARK   16  A    between atoms: C_30  and  O_51 
REMARK   17  A    between atoms: C_31  and  O_46 
REMARK   18  A    between atoms: C_32  and  O_41 
REMARK   19  A    between atoms: C_33  and  C_35 
REMARK   20  A    between atoms: C_35  and  O_36 
REMARK   21  A    between atoms: O_36  and  C_37 
REMARK   22  A    between atoms: C_37  and  C_39 
REMARK   23  A    between atoms: O_41  and  C_42 
REMARK   24  A    between atoms: C_42  and  C_44 
REMARK   25  A    between atoms: O_46  and  C_47 
REMARK   26  A    between atoms: C_47  and  C_49 
REMARK   27  A    between atoms: O_51  and  C_52 
REMARK   28  A    between atoms: C_52  and  C_54 
REMARK   29  A    between atoms: C_57  and  O_59 
REMARK   30  A    between atoms: O_59  and  C_60 
REMARK   31  A    between atoms: C_60  and  C_61 
REMARK   32  A    between atoms: C_62  and  O_79 
REMARK   33  A    between atoms: C_63  and  O_75 
REMARK   34  A    between atoms: C_64  and  O_71 
REMARK   35  A    between atoms: C_65  and  O_67 
REMARK   36  A    between atoms: O_67  and  C_68 
REMARK   37  A    between atoms: O_71  and  C_72 
REMARK   38  A    between atoms: O_75  and  C_76 
REMARK   39  A    between atoms: O_79  and  C_80 
REMARK   40  A    between atoms: C_81  and  O_99 
REMARK   41  A    between atoms: C_82  and  O_95 
REMARK   42  A    between atoms: C_83  and  O_91 
REMARK   43  A    between atoms: C_84  and  C_86 
REMARK   44  A    between atoms: C_86  and  O_87 
REMARK   45  A    between atoms: O_87  and  C_88 
REMARK   46  A    between atoms: O_91  and  C_92 
REMARK   47  A    between atoms: O_95  and  C_96 
REMARK   48  A    between atoms: O_99  and  C_100 
REMARK   49  A    between atoms: C_103  and  C_104 
REMARK   50  A    between atoms: C_103  and  O_125 
REMARK   51  A    between atoms: C_105  and  O_124 
REMARK   52  A    between atoms: C_106  and  O_123 
REMARK   53  A    between atoms: C_107  and  O_122 
REMARK   54  A    between atoms: C_108  and  O_110 
REMARK   55  A    between atoms: O_110  and  C_111 
REMARK   56  A    between atoms: C_112  and  C_120 
REMARK   57  A    between atoms: C_114  and  O_119 
REMARK   58  A    between atoms: C_115  and  O_118 
REMARK   59  A    between atoms: C_116  and  O_117 
REMARK   60  A    between atoms: C_120  and  O_121 
ROOT
HETATM    1  O   UNL     3     -20.002 -10.076  -4.948  1.00  0.00    -0.348 OA
ENDROOT
BRANCH   1   2
HETATM    2  C   UNL     3     -20.782  -9.172  -4.144  1.00  0.00     0.292 C 
HETATM    3  C   UNL     3     -21.372  -8.102  -5.082  1.00  0.00     0.204 C 
HETATM    4  C   UNL     3     -22.223  -7.066  -4.328  1.00  0.00     0.183 C 
HETATM    5  C   UNL     3     -21.415  -6.480  -3.157  1.00  0.00     0.180 C 
HETATM    6  C   UNL     3     -20.807  -7.615  -2.299  1.00  0.00     0.179 C 
HETATM    7  O   UNL     3     -20.033  -8.514  -3.118  1.00  0.00    -0.348 OA
BRANCH   3   8
HETATM    8  O   UNL     3     -20.299  -7.415  -5.751  1.00  0.00    -0.388 OA
HETATM    9  H   UNL     3     -20.006  -7.877  -6.561  1.00  0.00     0.210 HD
ENDBRANCH   3   8
BRANCH   4  10
HETATM   10  O   UNL     3     -22.693  -6.035  -5.196  1.00  0.00    -0.390 OA
HETATM   11  H   UNL     3     -23.642  -6.140  -5.397  1.00  0.00     0.210 HD
ENDBRANCH   4  10
BRANCH   5  12
HETATM   12  O   UNL     3     -22.203  -5.663  -2.295  1.00  0.00    -0.390 OA
HETATM   13  H   UNL     3     -21.660  -5.028  -1.792  1.00  0.00     0.210 HD
ENDBRANCH   5  12
BRANCH   6  14
HETATM   14  C   UNL     3     -21.892  -8.332  -1.442  1.00  0.00     0.198 C 
BRANCH  14  15
HETATM   15  O   UNL     3     -22.248  -7.578  -0.293  1.00  0.00    -0.398 OA
HETATM   16  H   UNL     3     -23.128  -7.187  -0.427  1.00  0.00     0.209 HD
ENDBRANCH  14  15
ENDBRANCH   6  14
ENDBRANCH   1   2
BRANCH   1  17
HETATM   17  C   UNL     3     -18.613 -10.215  -4.628  1.00  0.00     0.187 C 
HETATM   18  C   UNL     3     -18.236 -11.419  -3.751  1.00  0.00     0.180 C 
HETATM   19  O   UNL     3     -16.796 -11.624  -3.692  1.00  0.00    -0.349 OA
HETATM   20  C   UNL     3     -16.177 -11.827  -4.960  1.00  0.00     0.288 C 
HETATM   21  C   UNL     3     -16.387 -10.606  -5.813  1.00  0.00     0.204 C 
HETATM   22  C   UNL     3     -17.852 -10.260  -5.964  1.00  0.00     0.183 C 
BRANCH  18  23
HETATM   23  C   UNL     3     -18.866 -12.776  -4.062  1.00  0.00     0.198 C 
BRANCH  23  24
HETATM   24  O   UNL     3     -20.228 -12.678  -3.630  1.00  0.00    -0.398 OA
HETATM   25  H   UNL     3     -20.638 -12.056  -4.284  1.00  0.00     0.209 HD
ENDBRANCH  23  24
ENDBRANCH  18  23
BRANCH  20  26
HETATM   26  O   UNL     3     -14.772 -11.852  -4.738  1.00  0.00    -0.369 OA
HETATM   27  H   UNL     3     -14.334 -12.150  -5.560  1.00  0.00     0.212 HD
ENDBRANCH  20  26
BRANCH  21  28
HETATM   28  O   UNL     3     -15.718  -9.594  -5.050  1.00  0.00    -0.388 OA
HETATM   29  H   UNL     3     -16.333  -9.387  -4.313  1.00  0.00     0.210 HD
ENDBRANCH  21  28
BRANCH  22  30
HETATM   30  O   UNL     3     -17.944  -8.981  -6.590  1.00  0.00    -0.390 OA
HETATM   31  H   UNL     3     -18.780  -8.571  -6.292  1.00  0.00     0.210 HD
ENDBRANCH  22  30
ENDBRANCH   1  17
TORSDOF 60
ENDMDL
MODEL 2
REMARK VINA RESULT:      -4.8      4.009      6.645
REMARK WARNING: 32 MAX_TORS EXCEEDED!!!
REMARK  60 active torsions:
REMARK  status: ('A' for Active; 'I' for Inactive)
REMARK    1  A    between atoms: C_2  and  C_3 
REMARK    2  A    between atoms: C_3  and  O_5 
REMARK    3  A    between atoms: O_5  and  C_6 
REMARK    4  A    between atoms: C_6  and  C_7 
REMARK    5  A    between atoms: C_8  and  O_28 
REMARK    6  A    between atoms: C_9  and  O_23 
REMARK    7  A    between atoms: C_10  and  O_18 
REMARK    8  A    between atoms: C_11  and  O_13 
REMARK    9  A    between atoms: O_13  and  C_14 
REMARK   10  A    between atoms: C_14  and  C_16 
REMARK   11  A    between atoms: O_18  and  C_19 
REMARK   12  A    between atoms: C_19  and  C_21 
REMARK   13  A    between atoms: O_23  and  C_24 
REMARK   14  A    between atoms: C_24  and  C_26 
REMARK   15  A    between atoms: O_28  and  C_29 
REMARK   16  A    between atoms: C_30  and  O_51 
REMARK   17  A    between atoms: C_31  and  O_46 
REMARK   18  A    between atoms: C_32  and  O_41 
REMARK   19  A    between atoms: C_33  and  C_35 
REMARK   20  A    between atoms: C_35  and  O_36 
REMARK   21  A    between atoms: O_36  and  C_37 
REMARK   22  A    between atoms: C_37  and  C_39 
REMARK   23  A    between atoms: O_41  and  C_42 
REMARK   24  A    between atoms: C_42  and  C_44 
REMARK   25  A    between atoms: O_46  and  C_47 
REMARK   26  A    between atoms: C_47  and  C_49 
REMARK   27  A    between atoms: O_51  and  C_52 
REMARK   28  A    between atoms: C_52  and  C_54 
REMARK   29  A    between atoms: C_57  and  O_59 
REMARK   30  A    between atoms: O_59  and  C_60 
REMARK   31  A    between atoms: C_60  and  C_61 
REMARK   32  A    between atoms: C_62  and  O_79 
REMARK   33  A    between atoms: C_63  and  O_75 
REMARK   34  A    between atoms: C_64  and  O_71 
REMARK   35  A    between atoms: C_65  and  O_67 
REMARK   36  A    between atoms: O_67  and  C_68 
REMARK   37  A    between atoms: O_71  and  C_72 
REMARK   38  A    between atoms: O_75  and  C_76 
REMARK   39  A    between atoms: O_79  and  C_80 
REMARK   40  A    between atoms: C_81  and  O_99 
REMARK   41  A    between atoms: C_82  and  O_95 
REMARK   42  A    between atoms: C_83  and  O_91 
REMARK   43  A    between atoms: C_84  and  C_86 
REMARK   44  A    between atoms: C_86  and  O_87 
REMARK   45  A    between atoms: O_87  and  C_88 
REMARK   46  A    between atoms: O_91  and  C_92 
REMARK   47  A    between atoms: O_95  and  C_96 
REMARK   48  A    between atoms: O_99  and  C_100 
REMARK   49  A    between atoms: C_103  and  C_104 
REMARK   50  A    between atoms: C_103  and  O_125 
REMARK   51  A    between atoms: C_105  and  O_124 
REMARK   52  A    between atoms: C_106  and  O_123 
REMARK   53  A    between atoms: C_107  and  O_122 
REMARK   54  A    between atoms: C_108  and  O_110 
REMARK   55  A    between atoms: O_110  and  C_111 
REMARK   56  A    between atoms: C_112  and  C_120 
REMARK   57  A    between atoms: C_114  and  O_119 
REMARK   58  A    between atoms: C_115  and  O_118 
REMARK   59  A    between atoms: C_116  and  O_117 
REMARK   60  A    between atoms: C_120  and  O_121 
ROOT
HETATM    1  O   UNL     3     -20.444  -6.305  -7.166  1.00  0.00    -0.348 OA
ENDROOT
BRANCH   1   2
HETATM    2  C   UNL     3     -21.196  -5.712  -8.240  1.00  0.00     0.292 C 
HETATM    3  C   UNL     3     -20.190  -5.141  -9.257  1.00  0.00     0.204 C 
HETATM    4  C   UNL     3     -20.883  -4.469 -10.455  1.00  0.00     0.183 C 
HETATM    5  C   UNL     3     -21.904  -3.433  -9.952  1.00  0.00     0.180 C 
HETATM    6  C   UNL     3     -22.838  -4.066  -8.893  1.00  0.00     0.179 C 
HETATM    7  O   UNL     3     -22.071  -4.659  -7.825  1.00  0.00    -0.348 OA
BRANCH   3   8
HETATM    8  O   UNL     3     -19.357  -4.168  -8.604  1.00  0.00    -0.388 OA
HETATM    9  H   UNL     3     -19.863  -3.389  -8.296  1.00  0.00     0.210 HD
ENDBRANCH   3   8
BRANCH   4  10
HETATM   10  O   UNL     3     -19.940  -3.871 -11.344  1.00  0.00    -0.390 OA
HETATM   11  H   UNL     3     -19.767  -4.440 -12.118  1.00  0.00     0.210 HD
ENDBRANCH   4  10
BRANCH   5  12
HETATM   12  O   UNL     3     -22.725  -2.914 -10.994  1.00  0.00    -0.390 OA
HETATM   13  H   UNL     3     -23.527  -2.479 -10.649  1.00  0.00     0.210 HD
ENDBRANCH   5  12
BRANCH   6  14
HETATM   14  C   UNL     3     -23.862  -5.045  -9.540  1.00  0.00     0.198 C 
BRANCH  14  15
HETATM   15  O   UNL     3     -25.131  -4.438  -9.731  1.00  0.00    -0.398 OA
HETATM   16  H   UNL     3     -25.720  -4.689  -8.998  1.00  0.00     0.209 HD
ENDBRANCH  14  15
ENDBRANCH   6  14
ENDBRANCH   1   2
BRANCH   1  17
HETATM   17  C   UNL     3     -21.163  -6.686  -5.987  1.00  0.00     0.187 C 
HETATM   18  C   UNL     3     -21.045  -8.159  -5.566  1.00  0.00     0.180 C 
HETATM   19  O   UNL     3     -21.588  -8.393  -4.236  1.00  0.00    -0.349 OA
HETATM   20  C   UNL     3     -20.979  -7.619  -3.206  1.00  0.00     0.288 C 
HETATM   21  C   UNL     3     -21.199  -6.158  -3.491  1.00  0.00     0.204 C 
HETATM   22  C   UNL     3     -20.685  -5.760  -4.857  1.00  0.00     0.183 C 
BRANCH  18  23
HETATM   23  C   UNL     3     -19.669  -8.822  -5.608  1.00  0.00     0.198 C 
BRANCH  23  24
HETATM   24  O   UNL     3     -19.910 -10.192  -5.953  1.00  0.00    -0.398 OA
HETATM   25  H   UNL     3     -19.824 -10.203  -6.941  1.00  0.00     0.209 HD
ENDBRANCH  23  24
ENDBRANCH  18  23
BRANCH  20  26
HETATM   26  O   UNL     3     -21.724  -7.851  -2.016  1.00  0.00    -0.369 OA
HETATM   27  H   UNL     3     -22.222  -7.037  -1.799  1.00  0.00     0.212 HD
ENDBRANCH  20  26
BRANCH  21  28
HETATM   28  O   UNL     3     -22.629  -6.062  -3.455  1.00  0.00    -0.388 OA
HETATM   29  H   UNL     3     -22.899  -6.620  -2.694  1.00  0.00     0.210 HD
ENDBRANCH  21  28
BRANCH  22  30
HETATM   30  O   UNL     3     -21.130  -4.431  -5.129  1.00  0.00    -0.390 OA
HETATM   31  H   UNL     3     -20.433  -3.822  -4.817  1.00  0.00     0.210 HD
ENDBRANCH  22  30
ENDBRANCH   1  17
TORSDOF 60
ENDMDL
MODEL 3
REMARK VINA RESULT:      -4.8      2.040      3.533
REMARK WARNING: 32 MAX_TORS EXCEEDED!!!
REMARK  60 active torsions:
REMARK  status: ('A' for Active; 'I' for Inactive)
REMARK    1  A    between atoms: C_2  and  C_3 
REMARK    2  A    between atoms: C_3  and  O_5 
REMARK    3  A    between atoms: O_5  and  C_6 
REMARK    4  A    between atoms: C_6  and  C_7 
REMARK    5  A    between atoms: C_8  and  O_28 
REMARK    6  A    between atoms: C_9  and  O_23 
REMARK    7  A    between atoms: C_10  and  O_18 
REMARK    8  A    between atoms: C_11  and  O_13 
REMARK    9  A    between atoms: O_13  and  C_14 
REMARK   10  A    between atoms: C_14  and  C_16 
REMARK   11  A    between atoms: O_18  and  C_19 
REMARK   12  A    between atoms: C_19  and  C_21 
REMARK   13  A    between atoms: O_23  and  C_24 
REMARK   14  A    between atoms: C_24  and  C_26 
REMARK   15  A    between atoms: O_28  and  C_29 
REMARK   16  A    between atoms: C_30  and  O_51 
REMARK   17  A    between atoms: C_31  and  O_46 
REMARK   18  A    between atoms: C_32  and  O_41 
REMARK   19  A    between atoms: C_33  and  C_35 
REMARK   20  A    between atoms: C_35  and  O_36 
REMARK   21  A    between atoms: O_36  and  C_37 
REMARK   22  A    between atoms: C_37  and  C_39 
REMARK   23  A    between atoms: O_41  and  C_42 
REMARK   24  A    between atoms: C_42  and  C_44 
REMARK   25  A    between atoms: O_46  and  C_47 
REMARK   26  A    between atoms: C_47  and  C_49 
REMARK   27  A    between atoms: O_51  and  C_52 
REMARK   28  A    between atoms: C_52  and  C_54 
REMARK   29  A    between atoms: C_57  and  O_59 
REMARK   30  A    between atoms: O_59  and  C_60 
REMARK   31  A    between atoms: C_60  and  C_61 
REMARK   32  A    between atoms: C_62  and  O_79 
REMARK   33  A    between atoms: C_63  and  O_75 
REMARK   34  A    between atoms: C_64  and  O_71 
REMARK   35  A    between atoms: C_65  and  O_67 
REMARK   36  A    between atoms: O_67  and  C_68 
REMARK   37  A    between atoms: O_71  and  C_72 
REMARK   38  A    between atoms: O_75  and  C_76 
REMARK   39  A    between atoms: O_79  and  C_80 
REMARK   40  A    between atoms: C_81  and  O_99 
REMARK   41  A    between atoms: C_82  and  O_95 
REMARK   42  A    between atoms: C_83  and  O_91 
REMARK   43  A    between atoms: C_84  and  C_86 
REMARK   44  A    between atoms: C_86  and  O_87 
REMARK   45  A    between atoms: O_87  and  C_88 
REMARK   46  A    between atoms: O_91  and  C_92 
REMARK   47  A    between atoms: O_95  and  C_96 
REMARK   48  A    between atoms: O_99  and  C_100 
REMARK   49  A    between atoms: C_103  and  C_104 
REMARK   50  A    between atoms: C_103  and  O_125 
REMARK   51  A    between atoms: C_105  and  O_124 
REMARK   52  A    between atoms: C_106  and  O_123 
REMARK   53  A    between atoms: C_107  and  O_122 
REMARK   54  A    between atoms: C_108  and  O_110 
REMARK   55  A    between atoms: O_110  and  C_111 
REMARK   56  A    between atoms: C_112  and  C_120 
REMARK   57  A    between atoms: C_114  and  O_119 
REMARK   58  A    between atoms: C_115  and  O_118 
REMARK   59  A    between atoms: C_116  and  O_117 
REMARK   60  A    between atoms: C_120  and  O_121 
ROOT
HETATM    1  O   UNL     3     -19.024  -9.044  -4.451  1.00  0.00    -0.348 OA
ENDROOT
BRANCH   1   2
HETATM    2  C   UNL     3     -19.674  -7.811  -4.808  1.00  0.00     0.292 C 
HETATM    3  C   UNL     3     -20.822  -7.580  -3.807  1.00  0.00     0.204 C 
HETATM    4  C   UNL     3     -21.601  -6.285  -4.097  1.00  0.00     0.183 C 
HETATM    5  C   UNL     3     -22.053  -6.266  -5.567  1.00  0.00     0.180 C 
HETATM    6  C   UNL     3     -20.858  -6.565  -6.504  1.00  0.00     0.179 C 
HETATM    7  O   UNL     3     -20.215  -7.801  -6.132  1.00  0.00    -0.348 OA
BRANCH   3   8
HETATM    8  O   UNL     3     -21.736  -8.688  -3.871  1.00  0.00    -0.388 OA
HETATM    9  H   UNL     3     -21.662  -9.279  -3.095  1.00  0.00     0.210 HD
ENDBRANCH   3   8
BRANCH   4  10
HETATM   10  O   UNL     3     -22.712  -6.128  -3.215  1.00  0.00    -0.390 OA
HETATM   11  H   UNL     3     -23.470  -6.677  -3.493  1.00  0.00     0.210 HD
ENDBRANCH   4  10
BRANCH   5  12
HETATM   12  O   UNL     3     -22.605  -5.013  -5.961  1.00  0.00    -0.390 OA
HETATM   13  H   UNL     3     -23.110  -4.590  -5.242  1.00  0.00     0.210 HD
ENDBRANCH   5  12
BRANCH   6  14
HETATM   14  C   UNL     3     -19.878  -5.356  -6.590  1.00  0.00     0.198 C 
BRANCH  14  15
HETATM   15  O   UNL     3     -20.282  -4.413  -7.571  1.00  0.00    -0.398 OA
HETATM   16  H   UNL     3     -21.251  -4.433  -7.655  1.00  0.00     0.209 HD
ENDBRANCH  14  15
ENDBRANCH   6  14
ENDBRANCH   1   2
BRANCH   1  17
HETATM   17  C   UNL     3     -18.506  -9.851  -5.515  1.00  0.00     0.187 C 
HETATM   18  C   UNL     3     -17.019 -10.227  -5.419  1.00  0.00     0.180 C 
HETATM   19  O   UNL     3     -16.648 -11.245  -6.391  1.00  0.00    -0.349 OA
HETATM   20  C   UNL     3     -17.388 -12.458  -6.287  1.00  0.00     0.288 C 
HETATM   21  C   UNL     3     -18.846 -12.169  -6.526  1.00  0.00     0.204 C 
HETATM   22  C   UNL     3     -19.380 -11.114  -5.582  1.00  0.00     0.183 C 
BRANCH  18  23
HETATM   23  C   UNL     3     -16.466 -10.680  -4.068  1.00  0.00     0.198 C 
BRANCH  23  24
HETATM   24  O   UNL     3     -16.398  -9.497  -3.262  1.00  0.00    -0.398 OA
HETATM   25  H   UNL     3     -16.495  -8.761  -3.918  1.00  0.00     0.209 HD
ENDBRANCH  23  24
ENDBRANCH  18  23
BRANCH  20  26
HETATM   26  O   UNL     3     -17.016 -13.270  -7.394  1.00  0.00    -0.369 OA
HETATM   27  H   UNL     3     -17.788 -13.809  -7.656  1.00  0.00     0.212 HD
ENDBRANCH  20  26
BRANCH  21  28
HETATM   28  O   UNL     3     -18.831 -11.668  -7.869  1.00  0.00    -0.388 OA
HETATM   29  H   UNL     3     -19.130 -10.735  -7.792  1.00  0.00     0.210 HD
ENDBRANCH  21  28
BRANCH  22  30
HETATM   30  O   UNL     3     -20.687 -10.746  -6.022  1.00  0.00    -0.390 OA
HETATM   31  H   UNL     3     -20.754  -9.773  -5.956  1.00  0.00     0.210 HD
ENDBRANCH  22  30
ENDBRANCH   1  17
TORSDOF 60
ENDMDL
MODEL 4
REMARK VINA RESULT:      -4.8      2.865      5.973
REMARK WARNING: 32 MAX_TORS EXCEEDED!!!
REMARK  60 active torsions:
REMARK  status: ('A' for Active; 'I' for Inactive)
REMARK    1  A    between atoms: C_2  and  C_3 
REMARK    2  A    between atoms: C_3  and  O_5 
REMARK    3  A    between atoms: O_5  and  C_6 
REMARK    4  A    between atoms: C_6  and  C_7 
REMARK    5  A    between atoms: C_8  and  O_28 
REMARK    6  A    between atoms: C_9  and  O_23 
REMARK    7  A    between atoms: C_10  and  O_18 
REMARK    8  A    between atoms: C_11  and  O_13 
REMARK    9  A    between atoms: O_13  and  C_14 
REMARK   10  A    between atoms: C_14  and  C_16 
REMARK   11  A    between atoms: O_18  and  C_19 
REMARK   12  A    between atoms: C_19  and  C_21 
REMARK   13  A    between atoms: O_23  and  C_24 
REMARK   14  A    between atoms: C_24  and  C_26 
REMARK   15  A    between atoms: O_28  and  C_29 
REMARK   16  A    between atoms: C_30  and  O_51 
REMARK   17  A    between atoms: C_31  and  O_46 
REMARK   18  A    between atoms: C_32  and  O_41 
REMARK   19  A    between atoms: C_33  and  C_35 
REMARK   20  A    between atoms: C_35  and  O_36 
REMARK   21  A    between atoms: O_36  and  C_37 
REMARK   22  A    between atoms: C_37  and  C_39 
REMARK   23  A    between atoms: O_41  and  C_42 
REMARK   24  A    between atoms: C_42  and  C_44 
REMARK   25  A    between atoms: O_46  and  C_47 
REMARK   26  A    between atoms: C_47  and  C_49 
REMARK   27  A    between atoms: O_51  and  C_52 
REMARK   28  A    between atoms: C_52  and  C_54 
REMARK   29  A    between atoms: C_57  and  O_59 
REMARK   30  A    between atoms: O_59  and  C_60 
REMARK   31  A    between atoms: C_60  and  C_61 
REMARK   32  A    between atoms: C_62  and  O_79 
REMARK   33  A    between atoms: C_63  and  O_75 
REMARK   34  A    between atoms: C_64  and  O_71 
REMARK   35  A    between atoms: C_65  and  O_67 
REMARK   36  A    between atoms: O_67  and  C_68 
REMARK   37  A    between atoms: O_71  and  C_72 
REMARK   38  A    between atoms: O_75  and  C_76 
REMARK   39  A    between atoms: O_79  and  C_80 
REMARK   40  A    between atoms: C_81  and  O_99 
REMARK   41  A    between atoms: C_82  and  O_95 
REMARK   42  A    between atoms: C_83  and  O_91 
REMARK   43  A    between atoms: C_84  and  C_86 
REMARK   44  A    between atoms: C_86  and  O_87 
REMARK   45  A    between atoms: O_87  and  C_88 
REMARK   46  A    between atoms: O_91  and  C_92 
REMARK   47  A    between atoms: O_95  and  C_96 
REMARK   48  A    between atoms: O_99  and  C_100 
REMARK   49  A    between atoms: C_103  and  C_104 
REMARK   50  A    between atoms: C_103  and  O_125 
REMARK   51  A    between atoms: C_105  and  O_124 
REMARK   52  A    between atoms: C_106  and  O_123 
REMARK   53  A    between atoms: C_107  and  O_122 
REMARK   54  A    between atoms: C_108  and  O_110 
REMARK   55  A    between atoms: O_110  and  C_111 
REMARK   56  A    between atoms: C_112  and  C_120 
REMARK   57  A    between atoms: C_114  and  O_119 
REMARK   58  A    between atoms: C_115  and  O_118 
REMARK   59  A    between atoms: C_116  and  O_117 
REMARK   60  A    between atoms: C_120  and  O_121 
ROOT
HETATM    1  O   UNL     3     -20.512  -8.705  -2.243  1.00  0.00    -0.348 OA
ENDROOT
BRANCH   1   2
HETATM    2  C   UNL     3     -21.013  -9.963  -1.755  1.00  0.00     0.292 C 
HETATM    3  C   UNL     3     -22.396  -9.704  -1.127  1.00  0.00     0.204 C 
HETATM    4  C   UNL     3     -23.030 -10.984  -0.557  1.00  0.00     0.183 C 
HETATM    5  C   UNL     3     -22.042 -11.676   0.396  1.00  0.00     0.180 C 
HETATM    6  C   UNL     3     -20.663 -11.846  -0.285  1.00  0.00     0.179 C 
HETATM    7  O   UNL     3     -20.175 -10.579  -0.772  1.00  0.00    -0.348 OA
BRANCH   3   8
HETATM    8  O   UNL     3     -22.260  -8.746  -0.062  1.00  0.00    -0.388 OA
HETATM    9  H   UNL     3     -22.230  -7.825  -0.390  1.00  0.00     0.210 HD
ENDBRANCH   3   8
BRANCH   4  10
HETATM   10  O   UNL     3     -24.271 -10.714   0.095  1.00  0.00    -0.390 OA
HETATM   11  H   UNL     3     -24.942 -11.390  -0.117  1.00  0.00     0.210 HD
ENDBRANCH   4  10
BRANCH   5  12
HETATM   12  O   UNL     3     -22.480 -12.968   0.807  1.00  0.00    -0.390 OA
HETATM   13  H   UNL     3     -22.812 -13.500   0.059  1.00  0.00     0.210 HD
ENDBRANCH   5  12
BRANCH   6  14
HETATM   14  C   UNL     3     -20.691 -12.961  -1.372  1.00  0.00     0.198 C 
BRANCH  14  15
HETATM   15  O   UNL     3     -20.496 -14.253  -0.815  1.00  0.00    -0.398 OA
HETATM   16  H   UNL     3     -20.586 -14.201   0.152  1.00  0.00     0.209 HD
ENDBRANCH  14  15
ENDBRANCH   6  14
ENDBRANCH   1   2
BRANCH   1  17
HETATM   17  C   UNL     3     -21.107  -8.173  -3.432  1.00  0.00     0.187 C 
HETATM   18  C   UNL     3     -22.068  -6.989  -3.238  1.00  0.00     0.180 C 
HETATM   19  O   UNL     3     -22.419  -6.357  -4.502  1.00  0.00    -0.349 OA
HETATM   20  C   UNL     3     -21.307  -5.868  -5.247  1.00  0.00     0.288 C 
HETATM   21  C   UNL     3     -20.404  -7.020  -5.597  1.00  0.00     0.204 C 
HETATM   22  C   UNL     3     -19.954  -7.785  -4.372  1.00  0.00     0.183 C 
BRANCH  18  23
HETATM   23  C   UNL     3     -21.665  -5.870  -2.279  1.00  0.00     0.198 C 
BRANCH  23  24
HETATM   24  O   UNL     3     -22.493  -6.036  -1.122  1.00  0.00    -0.398 OA
HETATM   25  H   UNL     3     -22.600  -5.113  -0.776  1.00  0.00     0.209 HD
ENDBRANCH  23  24
ENDBRANCH  18  23
BRANCH  20  26
HETATM   26  O   UNL     3     -21.808  -5.432  -6.505  1.00  0.00    -0.369 OA
HETATM   27  H   UNL     3     -21.952  -6.217  -7.069  1.00  0.00     0.212 HD
ENDBRANCH  20  26
BRANCH  21  28
HETATM   28  O   UNL     3     -21.264  -7.837  -6.400  1.00  0.00    -0.388 OA
HETATM   29  H   UNL     3     -21.958  -7.224  -6.729  1.00  0.00     0.210 HD
ENDBRANCH  21  28
BRANCH  22  30
HETATM   30  O   UNL     3     -19.295  -8.974  -4.809  1.00  0.00    -0.390 OA
HETATM   31  H   UNL     3     -19.985  -9.584  -5.137  1.00  0.00     0.210 HD
ENDBRANCH  22  30
ENDBRANCH   1  17
TORSDOF 60
ENDMDL
MODEL 5
REMARK VINA RESULT:      -4.8      1.489      2.847
REMARK WARNING: 32 MAX_TORS EXCEEDED!!!
REMARK  60 active torsions:
REMARK  status: ('A' for Active; 'I' for Inactive)
REMARK    1  A    between atoms: C_2  and  C_3 
REMARK    2  A    between atoms: C_3  and  O_5 
REMARK    3  A    between atoms: O_5  and  C_6 
REMARK    4  A    between atoms: C_6  and  C_7 
REMARK    5  A    between atoms: C_8  and  O_28 
REMARK    6  A    between atoms: C_9  and  O_23 
REMARK    7  A    between atoms: C_10  and  O_18 
REMARK    8  A    between atoms: C_11  and  O_13 
REMARK    9  A    between atoms: O_13  and  C_14 
REMARK   10  A    between atoms: C_14  and  C_16 
REMARK   11  A    between atoms: O_18  and  C_19 
REMARK   12  A    between atoms: C_19  and  C_21 
REMARK   13  A    between atoms: O_23  and  C_24 
REMARK   14  A    between atoms: C_24  and  C_26 
REMARK   15  A    between atoms: O_28  and  C_29 
REMARK   16  A    between atoms: C_30  and  O_51 
REMARK   17  A    between atoms: C_31  and  O_46 
REMARK   18  A    between atoms: C_32  and  O_41 
REMARK   19  A    between atoms: C_33  and  C_35 
REMARK   20  A    between atoms: C_35  and  O_36 
REMARK   21  A    between atoms: O_36  and  C_37 
REMARK   22  A    between atoms: C_37  and  C_39 
REMARK   23  A    between atoms: O_41  and  C_42 
REMARK   24  A    between atoms: C_42  and  C_44 
REMARK   25  A    between atoms: O_46  and  C_47 
REMARK   26  A    between atoms: C_47  and  C_49 
REMARK   27  A    between atoms: O_51  and  C_52 
REMARK   28  A    between atoms: C_52  and  C_54 
REMARK   29  A    between atoms: C_57  and  O_59 
REMARK   30  A    between atoms: O_59  and  C_60 
REMARK   31  A    between atoms: C_60  and  C_61 
REMARK   32  A    between atoms: C_62  and  O_79 
REMARK   33  A    between atoms: C_63  and  O_75 
REMARK   34  A    between atoms: C_64  and  O_71 
REMARK   35  A    between atoms: C_65  and  O_67 
REMARK   36  A    between atoms: O_67  and  C_68 
REMARK   37  A    between atoms: O_71  and  C_72 
REMARK   38  A    between atoms: O_75  and  C_76 
REMARK   39  A    between atoms: O_79  and  C_80 
REMARK   40  A    between atoms: C_81  and  O_99 
REMARK   41  A    between atoms: C_82  and  O_95 
REMARK   42  A    between atoms: C_83  and  O_91 
REMARK   43  A    between atoms: C_84  and  C_86 
REMARK   44  A    between atoms: C_86  and  O_87 
REMARK   45  A    between atoms: O_87  and  C_88 
REMARK   46  A    between atoms: O_91  and  C_92 
REMARK   47  A    between atoms: O_95  and  C_96 
REMARK   48  A    between atoms: O_99  and  C_100 
REMARK   49  A    between atoms: C_103  and  C_104 
REMARK   50  A    between atoms: C_103  and  O_125 
REMARK   51  A    between atoms: C_105  and  O_124 
REMARK   52  A    between atoms: C_106  and  O_123 
REMARK   53  A    between atoms: C_107  and  O_122 
REMARK   54  A    between atoms: C_108  and  O_110 
REMARK   55  A    between atoms: O_110  and  C_111 
REMARK   56  A    between atoms: C_112  and  C_120 
REMARK   57  A    between atoms: C_114  and  O_119 
REMARK   58  A    between atoms: C_115  and  O_118 
REMARK   59  A    between atoms: C_116  and  O_117 
REMARK   60  A    between atoms: C_120  and  O_121 
ROOT
HETATM    1  O   UNL     3     -19.252  -9.560  -3.773  1.00  0.00    -0.348 OA
ENDROOT
BRANCH   1   2
HETATM    2  C   UNL     3     -19.866  -8.359  -4.273  1.00  0.00     0.292 C 
HETATM    3  C   UNL     3     -20.792  -7.813  -3.171  1.00  0.00     0.204 C 
HETATM    4  C   UNL     3     -21.517  -6.524  -3.598  1.00  0.00     0.183 C 
HETATM    5  C   UNL     3     -22.227  -6.747  -4.943  1.00  0.00     0.180 C 
HETATM    6  C   UNL     3     -21.248  -7.352  -5.978  1.00  0.00     0.179 C 
HETATM    7  O   UNL     3     -20.638  -8.552  -5.462  1.00  0.00    -0.348 OA
BRANCH   3   8
HETATM    8  O   UNL     3     -21.779  -8.807  -2.846  1.00  0.00    -0.388 OA
HETATM    9  H   UNL     3     -22.684  -8.438  -2.807  1.00  0.00     0.210 HD
ENDBRANCH   3   8
BRANCH   4  10
HETATM   10  O   UNL     3     -22.434  -6.078  -2.599  1.00  0.00    -0.390 OA
HETATM   11  H   UNL     3     -21.969  -5.745  -1.809  1.00  0.00     0.210 HD
ENDBRANCH   4  10
BRANCH   5  12
HETATM   12  O   UNL     3     -22.751  -5.545  -5.499  1.00  0.00    -0.390 OA
HETATM   13  H   UNL     3     -22.423  -4.751  -5.037  1.00  0.00     0.210 HD
ENDBRANCH   5  12
BRANCH   6  14
HETATM   14  C   UNL     3     -20.217  -6.297  -6.480  1.00  0.00     0.198 C 
BRANCH  14  15
HETATM   15  O   UNL     3     -20.646  -5.659  -7.674  1.00  0.00    -0.398 OA
HETATM   16  H   UNL     3     -20.663  -4.697  -7.534  1.00  0.00     0.209 HD
ENDBRANCH  14  15
ENDBRANCH   6  14
ENDBRANCH   1   2
BRANCH   1  17
HETATM   17  C   UNL     3     -17.862  -9.761  -4.058  1.00  0.00     0.187 C 
HETATM   18  C   UNL     3     -16.989 -10.230  -2.884  1.00  0.00     0.180 C 
HETATM   19  O   UNL     3     -15.666 -10.650  -3.320  1.00  0.00    -0.349 OA
HETATM   20  C   UNL     3     -15.667 -11.704  -4.279  1.00  0.00     0.288 C 
HETATM   21  C   UNL     3     -16.383 -11.241  -5.518  1.00  0.00     0.204 C 
HETATM   22  C   UNL     3     -17.788 -10.764  -5.222  1.00  0.00     0.183 C 
BRANCH  18  23
HETATM   23  C   UNL     3     -17.526 -11.329  -1.968  1.00  0.00     0.198 C 
BRANCH  23  24
HETATM   24  O   UNL     3     -18.758 -10.825  -1.440  1.00  0.00    -0.398 OA
HETATM   25  H   UNL     3     -18.812 -11.234  -0.538  1.00  0.00     0.209 HD
ENDBRANCH  23  24
ENDBRANCH  18  23
BRANCH  20  26
HETATM   26  O   UNL     3     -14.321 -11.879  -4.707  1.00  0.00    -0.369 OA
HETATM   27  H   UNL     3     -14.035 -11.065  -5.168  1.00  0.00     0.212 HD
ENDBRANCH  20  26
BRANCH  21  28
HETATM   28  O   UNL     3     -15.567 -10.140  -5.939  1.00  0.00    -0.388 OA
HETATM   29  H   UNL     3     -15.508  -9.556  -5.151  1.00  0.00     0.210 HD
ENDBRANCH  21  28
BRANCH  22  30
HETATM   30  O   UNL     3     -18.304 -10.144  -6.399  1.00  0.00    -0.390 OA
HETATM   31  H   UNL     3     -18.429 -10.847  -7.067  1.00  0.00     0.210 HD
ENDBRANCH  22  30
ENDBRANCH   1  17
TORSDOF 60
ENDMDL
MODEL 6
REMARK VINA RESULT:      -4.7      2.401      6.319
REMARK WARNING: 32 MAX_TORS EXCEEDED!!!
REMARK  60 active torsions:
REMARK  status: ('A' for Active; 'I' for Inactive)
REMARK    1  A    between atoms: C_2  and  C_3 
REMARK    2  A    between atoms: C_3  and  O_5 
REMARK    3  A    between atoms: O_5  and  C_6 
REMARK    4  A    between atoms: C_6  and  C_7 
REMARK    5  A    between atoms: C_8  and  O_28 
REMARK    6  A    between atoms: C_9  and  O_23 
REMARK    7  A    between atoms: C_10  and  O_18 
REMARK    8  A    between atoms: C_11  and  O_13 
REMARK    9  A    between atoms: O_13  and  C_14 
REMARK   10  A    between atoms: C_14  and  C_16 
REMARK   11  A    between atoms: O_18  and  C_19 
REMARK   12  A    between atoms: C_19  and  C_21 
REMARK   13  A    between atoms: O_23  and  C_24 
REMARK   14  A    between atoms: C_24  and  C_26 
REMARK   15  A    between atoms: O_28  and  C_29 
REMARK   16  A    between atoms: C_30  and  O_51 
REMARK   17  A    between atoms: C_31  and  O_46 
REMARK   18  A    between atoms: C_32  and  O_41 
REMARK   19  A    between atoms: C_33  and  C_35 
REMARK   20  A    between atoms: C_35  and  O_36 
REMARK   21  A    between atoms: O_36  and  C_37 
REMARK   22  A    between atoms: C_37  and  C_39 
REMARK   23  A    between atoms: O_41  and  C_42 
REMARK   24  A    between atoms: C_42  and  C_44 
REMARK   25  A    between atoms: O_46  and  C_47 
REMARK   26  A    between atoms: C_47  and  C_49 
REMARK   27  A    between atoms: O_51  and  C_52 
REMARK   28  A    between atoms: C_52  and  C_54 
REMARK   29  A    between atoms: C_57  and  O_59 
REMARK   30  A    between atoms: O_59  and  C_60 
REMARK   31  A    between atoms: C_60  and  C_61 
REMARK   32  A    between atoms: C_62  and  O_79 
REMARK   33  A    between atoms: C_63  and  O_75 
REMARK   34  A    between atoms: C_64  and  O_71 
REMARK   35  A    between atoms: C_65  and  O_67 
REMARK   36  A    between atoms: O_67  and  C_68 
REMARK   37  A    between atoms: O_71  and  C_72 
REMARK   38  A    between atoms: O_75  and  C_76 
REMARK   39  A    between atoms: O_79  and  C_80 
REMARK   40  A    between atoms: C_81  and  O_99 
REMARK   41  A    between atoms: C_82  and  O_95 
REMARK   42  A    between atoms: C_83  and  O_91 
REMARK   43  A    between atoms: C_84  and  C_86 
REMARK   44  A    between atoms: C_86  and  O_87 
REMARK   45  A    between atoms: O_87  and  C_88 
REMARK   46  A    between atoms: O_91  and  C_92 
REMARK   47  A    between atoms: O_95  and  C_96 
REMARK   48  A    between atoms: O_99  and  C_100 
REMARK   49  A    between atoms: C_103  and  C_104 
REMARK   50  A    between atoms: C_103  and  O_125 
REMARK   51  A    between atoms: C_105  and  O_124 
REMARK   52  A    between atoms: C_106  and  O_123 
REMARK   53  A    between atoms: C_107  and  O_122 
REMARK   54  A    between atoms: C_108  and  O_110 
REMARK   55  A    between atoms: O_110  and  C_111 
REMARK   56  A    between atoms: C_112  and  C_120 
REMARK   57  A    between atoms: C_114  and  O_119 
REMARK   58  A    between atoms: C_115  and  O_118 
REMARK   59  A    between atoms: C_116  and  O_117 
REMARK   60  A    between atoms: C_120  and  O_121 
ROOT
HETATM    1  O   UNL     3     -19.998  -9.463  -5.389  1.00  0.00    -0.348 OA
ENDROOT
BRANCH   1   2
HETATM    2  C   UNL     3     -20.341 -10.848  -5.578  1.00  0.00     0.292 C 
HETATM    3  C   UNL     3     -19.041 -11.613  -5.894  1.00  0.00     0.204 C 
HETATM    4  C   UNL     3     -19.286 -13.114  -6.127  1.00  0.00     0.183 C 
HETATM    5  C   UNL     3     -20.384 -13.305  -7.187  1.00  0.00     0.180 C 
HETATM    6  C   UNL     3     -21.631 -12.460  -6.830  1.00  0.00     0.179 C 
HETATM    7  O   UNL     3     -21.272 -11.076  -6.640  1.00  0.00    -0.348 OA
BRANCH   3   8
HETATM    8  O   UNL     3     -18.440 -11.057  -7.077  1.00  0.00    -0.388 OA
HETATM    9  H   UNL     3     -18.211 -11.741  -7.737  1.00  0.00     0.210 HD
ENDBRANCH   3   8
BRANCH   4  10
HETATM   10  O   UNL     3     -18.087 -13.793  -6.501  1.00  0.00    -0.390 OA
HETATM   11  H   UNL     3     -17.558 -14.041  -5.720  1.00  0.00     0.210 HD
ENDBRANCH   4  10
BRANCH   5  12
HETATM   12  O   UNL     3     -20.805 -14.660  -7.310  1.00  0.00    -0.390 OA
HETATM   13  H   UNL     3     -20.060 -15.262  -7.499  1.00  0.00     0.210 HD
ENDBRANCH   5  12
BRANCH   6  14
HETATM   14  C   UNL     3     -22.415 -13.070  -5.630  1.00  0.00     0.198 C 
BRANCH  14  15
HETATM   15  O   UNL     3     -23.353 -14.050  -6.050  1.00  0.00    -0.398 OA
HETATM   16  H   UNL     3     -22.995 -14.527  -6.818  1.00  0.00     0.209 HD
ENDBRANCH  14  15
ENDBRANCH   6  14
ENDBRANCH   1   2
BRANCH   1  17
HETATM   17  C   UNL     3     -20.936  -8.640  -4.685  1.00  0.00     0.187 C 
HETATM   18  C   UNL     3     -20.985  -8.820  -3.160  1.00  0.00     0.180 C 
HETATM   19  O   UNL     3     -21.768  -7.778  -2.512  1.00  0.00    -0.349 OA
HETATM   20  C   UNL     3     -21.304  -6.453  -2.756  1.00  0.00     0.288 C 
HETATM   21  C   UNL     3     -21.379  -6.169  -4.232  1.00  0.00     0.204 C 
HETATM   22  C   UNL     3     -20.608  -7.183  -5.048  1.00  0.00     0.183 C 
BRANCH  18  23
HETATM   23  C   UNL     3     -19.668  -8.928  -2.394  1.00  0.00     0.198 C 
BRANCH  23  24
HETATM   24  O   UNL     3     -19.311 -10.315  -2.432  1.00  0.00    -0.398 OA
HETATM   25  H   UNL     3     -20.160 -10.781  -2.222  1.00  0.00     0.209 HD
ENDBRANCH  23  24
ENDBRANCH  18  23
BRANCH  20  26
HETATM   26  O   UNL     3     -22.260  -5.565  -2.189  1.00  0.00    -0.369 OA
HETATM   27  H   UNL     3     -21.945  -5.296  -1.303  1.00  0.00     0.212 HD
ENDBRANCH  20  26
BRANCH  21  28
HETATM   28  O   UNL     3     -22.783  -6.296  -4.487  1.00  0.00    -0.388 OA
HETATM   29  H   UNL     3     -23.173  -5.450  -4.175  1.00  0.00     0.210 HD
ENDBRANCH  21  28
BRANCH  22  30
HETATM   30  O   UNL     3     -20.915  -6.970  -6.426  1.00  0.00    -0.390 OA
HETATM   31  H   UNL     3     -21.345  -6.095  -6.495  1.00  0.00     0.210 HD
ENDBRANCH  22  30
ENDBRANCH   1  17
TORSDOF 60
ENDMDL
MODEL 7
REMARK VINA RESULT:      -4.7      1.780      3.863
REMARK WARNING: 32 MAX_TORS EXCEEDED!!!
REMARK  60 active torsions:
REMARK  status: ('A' for Active; 'I' for Inactive)
REMARK    1  A    between atoms: C_2  and  C_3 
REMARK    2  A    between atoms: C_3  and  O_5 
REMARK    3  A    between atoms: O_5  and  C_6 
REMARK    4  A    between atoms: C_6  and  C_7 
REMARK    5  A    between atoms: C_8  and  O_28 
REMARK    6  A    between atoms: C_9  and  O_23 
REMARK    7  A    between atoms: C_10  and  O_18 
REMARK    8  A    between atoms: C_11  and  O_13 
REMARK    9  A    between atoms: O_13  and  C_14 
REMARK   10  A    between atoms: C_14  and  C_16 
REMARK   11  A    between atoms: O_18  and  C_19 
REMARK   12  A    between atoms: C_19  and  C_21 
REMARK   13  A    between atoms: O_23  and  C_24 
REMARK   14  A    between atoms: C_24  and  C_26 
REMARK   15  A    between atoms: O_28  and  C_29 
REMARK   16  A    between atoms: C_30  and  O_51 
REMARK   17  A    between atoms: C_31  and  O_46 
REMARK   18  A    between atoms: C_32  and  O_41 
REMARK   19  A    between atoms: C_33  and  C_35 
REMARK   20  A    between atoms: C_35  and  O_36 
REMARK   21  A    between atoms: O_36  and  C_37 
REMARK   22  A    between atoms: C_37  and  C_39 
REMARK   23  A    between atoms: O_41  and  C_42 
REMARK   24  A    between atoms: C_42  and  C_44 
REMARK   25  A    between atoms: O_46  and  C_47 
REMARK   26  A    between atoms: C_47  and  C_49 
REMARK   27  A    between atoms: O_51  and  C_52 
REMARK   28  A    between atoms: C_52  and  C_54 
REMARK   29  A    between atoms: C_57  and  O_59 
REMARK   30  A    between atoms: O_59  and  C_60 
REMARK   31  A    between atoms: C_60  and  C_61 
REMARK   32  A    between atoms: C_62  and  O_79 
REMARK   33  A    between atoms: C_63  and  O_75 
REMARK   34  A    between atoms: C_64  and  O_71 
REMARK   35  A    between atoms: C_65  and  O_67 
REMARK   36  A    between atoms: O_67  and  C_68 
REMARK   37  A    between atoms: O_71  and  C_72 
REMARK   38  A    between atoms: O_75  and  C_76 
REMARK   39  A    between atoms: O_79  and  C_80 
REMARK   40  A    between atoms: C_81  and  O_99 
REMARK   41  A    between atoms: C_82  and  O_95 
REMARK   42  A    between atoms: C_83  and  O_91 
REMARK   43  A    between atoms: C_84  and  C_86 
REMARK   44  A    between atoms: C_86  and  O_87 
REMARK   45  A    between atoms: O_87  and  C_88 
REMARK   46  A    between atoms: O_91  and  C_92 
REMARK   47  A    between atoms: O_95  and  C_96 
REMARK   48  A    between atoms: O_99  and  C_100 
REMARK   49  A    between atoms: C_103  and  C_104 
REMARK   50  A    between atoms: C_103  and  O_125 
REMARK   51  A    between atoms: C_105  and  O_124 
REMARK   52  A    between atoms: C_106  and  O_123 
REMARK   53  A    between atoms: C_107  and  O_122 
REMARK   54  A    between atoms: C_108  and  O_110 
REMARK   55  A    between atoms: O_110  and  C_111 
REMARK   56  A    between atoms: C_112  and  C_120 
REMARK   57  A    between atoms: C_114  and  O_119 
REMARK   58  A    between atoms: C_115  and  O_118 
REMARK   59  A    between atoms: C_116  and  O_117 
REMARK   60  A    between atoms: C_120  and  O_121 
ROOT
HETATM    1  O   UNL     3     -18.977 -10.063  -3.073  1.00  0.00    -0.348 OA
ENDROOT
BRANCH   1   2
HETATM    2  C   UNL     3     -19.819  -9.133  -2.367  1.00  0.00     0.292 C 
HETATM    3  C   UNL     3     -20.090  -9.717  -0.967  1.00  0.00     0.204 C 
HETATM    4  C   UNL     3     -20.995  -8.808  -0.118  1.00  0.00     0.183 C 
HETATM    5  C   UNL     3     -22.274  -8.467  -0.901  1.00  0.00     0.180 C 
HETATM    6  C   UNL     3     -21.920  -7.945  -2.314  1.00  0.00     0.179 C 
HETATM    7  O   UNL     3     -21.073  -8.884  -3.007  1.00  0.00    -0.348 OA
BRANCH   3   8
HETATM    8  O   UNL     3     -20.727 -10.999  -1.105  1.00  0.00    -0.388 OA
HETATM    9  H   UNL     3     -20.625 -11.555  -0.307  1.00  0.00     0.210 HD
ENDBRANCH   3   8
BRANCH   4  10
HETATM   10  O   UNL     3     -21.306  -9.401   1.143  1.00  0.00    -0.390 OA
HETATM   11  H   UNL     3     -20.799 -10.222   1.287  1.00  0.00     0.210 HD
ENDBRANCH   4  10
BRANCH   5  12
HETATM   12  O   UNL     3     -23.067  -7.471  -0.261  1.00  0.00    -0.390 OA
HETATM   13  H   UNL     3     -23.862  -7.847   0.161  1.00  0.00     0.210 HD
ENDBRANCH   5  12
BRANCH   6  14
HETATM   14  C   UNL     3     -21.337  -6.502  -2.264  1.00  0.00     0.198 C 
BRANCH  14  15
HETATM   15  O   UNL     3     -22.342  -5.529  -2.019  1.00  0.00    -0.398 OA
HETATM   16  H   UNL     3     -23.032  -5.919  -1.453  1.00  0.00     0.209 HD
ENDBRANCH  14  15
ENDBRANCH   6  14
ENDBRANCH   1   2
BRANCH   1  17
HETATM   17  C   UNL     3     -19.220 -10.244  -4.473  1.00  0.00     0.187 C 
HETATM   18  C   UNL     3     -18.047  -9.923  -5.413  1.00  0.00     0.180 C 
HETATM   19  O   UNL     3     -18.297 -10.375  -6.773  1.00  0.00    -0.349 OA
HETATM   20  C   UNL     3     -18.550 -11.772  -6.893  1.00  0.00     0.288 C 
HETATM   21  C   UNL     3     -19.787 -12.118  -6.109  1.00  0.00     0.204 C 
HETATM   22  C   UNL     3     -19.679 -11.699  -4.659  1.00  0.00     0.183 C 
BRANCH  18  23
HETATM   23  C   UNL     3     -16.650 -10.410  -5.031  1.00  0.00     0.198 C 
BRANCH  23  24
HETATM   24  O   UNL     3     -16.248  -9.601  -3.919  1.00  0.00    -0.398 OA
HETATM   25  H   UNL     3     -16.254 -10.233  -3.155  1.00  0.00     0.209 HD
ENDBRANCH  23  24
ENDBRANCH  18  23
BRANCH  20  26
HETATM   26  O   UNL     3     -18.925 -12.012  -8.245  1.00  0.00    -0.369 OA
HETATM   27  H   UNL     3     -18.117 -11.999  -8.796  1.00  0.00     0.212 HD
ENDBRANCH  20  26
BRANCH  21  28
HETATM   28  O   UNL     3     -20.788 -11.336  -6.774  1.00  0.00    -0.388 OA
HETATM   29  H   UNL     3     -20.724 -11.598  -7.719  1.00  0.00     0.210 HD
ENDBRANCH  21  28
BRANCH  22  30
HETATM   30  O   UNL     3     -20.962 -11.859  -4.054  1.00  0.00    -0.390 OA
HETATM   31  H   UNL     3     -21.069 -12.809  -3.847  1.00  0.00     0.210 HD
ENDBRANCH  22  30
ENDBRANCH   1  17
TORSDOF 60
ENDMDL
MODEL 8
REMARK VINA RESULT:      -4.7      2.197      3.666
REMARK WARNING: 32 MAX_TORS EXCEEDED!!!
REMARK  60 active torsions:
REMARK  status: ('A' for Active; 'I' for Inactive)
REMARK    1  A    between atoms: C_2  and  C_3 
REMARK    2  A    between atoms: C_3  and  O_5 
REMARK    3  A    between atoms: O_5  and  C_6 
REMARK    4  A    between atoms: C_6  and  C_7 
REMARK    5  A    between atoms: C_8  and  O_28 
REMARK    6  A    between atoms: C_9  and  O_23 
REMARK    7  A    between atoms: C_10  and  O_18 
REMARK    8  A    between atoms: C_11  and  O_13 
REMARK    9  A    between atoms: O_13  and  C_14 
REMARK   10  A    between atoms: C_14  and  C_16 
REMARK   11  A    between atoms: O_18  and  C_19 
REMARK   12  A    between atoms: C_19  and  C_21 
REMARK   13  A    between atoms: O_23  and  C_24 
REMARK   14  A    between atoms: C_24  and  C_26 
REMARK   15  A    between atoms: O_28  and  C_29 
REMARK   16  A    between atoms: C_30  and  O_51 
REMARK   17  A    between atoms: C_31  and  O_46 
REMARK   18  A    between atoms: C_32  and  O_41 
REMARK   19  A    between atoms: C_33  and  C_35 
REMARK   20  A    between atoms: C_35  and  O_36 
REMARK   21  A    between atoms: O_36  and  C_37 
REMARK   22  A    between atoms: C_37  and  C_39 
REMARK   23  A    between atoms: O_41  and  C_42 
REMARK   24  A    between atoms: C_42  and  C_44 
REMARK   25  A    between atoms: O_46  and  C_47 
REMARK   26  A    between atoms: C_47  and  C_49 
REMARK   27  A    between atoms: O_51  and  C_52 
REMARK   28  A    between atoms: C_52  and  C_54 
REMARK   29  A    between atoms: C_57  and  O_59 
REMARK   30  A    between atoms: O_59  and  C_60 
REMARK   31  A    between atoms: C_60  and  C_61 
REMARK   32  A    between atoms: C_62  and  O_79 
REMARK   33  A    between atoms: C_63  and  O_75 
REMARK   34  A    between atoms: C_64  and  O_71 
REMARK   35  A    between atoms: C_65  and  O_67 
REMARK   36  A    between atoms: O_67  and  C_68 
REMARK   37  A    between atoms: O_71  and  C_72 
REMARK   38  A    between atoms: O_75  and  C_76 
REMARK   39  A    between atoms: O_79  and  C_80 
REMARK   40  A    between atoms: C_81  and  O_99 
REMARK   41  A    between atoms: C_82  and  O_95 
REMARK   42  A    between atoms: C_83  and  O_91 
REMARK   43  A    between atoms: C_84  and  C_86 
REMARK   44  A    between atoms: C_86  and  O_87 
REMARK   45  A    between atoms: O_87  and  C_88 
REMARK   46  A    between atoms: O_91  and  C_92 
REMARK   47  A    between atoms: O_95  and  C_96 
REMARK   48  A    between atoms: O_99  and  C_100 
REMARK   49  A    between atoms: C_103  and  C_104 
REMARK   50  A    between atoms: C_103  and  O_125 
REMARK   51  A    between atoms: C_105  and  O_124 
REMARK   52  A    between atoms: C_106  and  O_123 
REMARK   53  A    between atoms: C_107  and  O_122 
REMARK   54  A    between atoms: C_108  and  O_110 
REMARK   55  A    between atoms: O_110  and  C_111 
REMARK   56  A    between atoms: C_112  and  C_120 
REMARK   57  A    between atoms: C_114  and  O_119 
REMARK   58  A    between atoms: C_115  and  O_118 
REMARK   59  A    between atoms: C_116  and  O_117 
REMARK   60  A    between atoms: C_120  and  O_121 
ROOT
HETATM    1  O   UNL     3     -19.974 -10.437  -2.554  1.00  0.00    -0.348 OA
ENDROOT
BRANCH   1   2
HETATM    2  C   UNL     3     -21.137  -9.902  -1.896  1.00  0.00     0.292 C 
HETATM    3  C   UNL     3     -21.131  -8.376  -2.102  1.00  0.00     0.204 C 
HETATM    4  C   UNL     3     -22.332  -7.689  -1.429  1.00  0.00     0.183 C 
HETATM    5  C   UNL     3     -22.413  -8.109   0.048  1.00  0.00     0.180 C 
HETATM    6  C   UNL     3     -22.352  -9.650   0.175  1.00  0.00     0.179 C 
HETATM    7  O   UNL     3     -21.185 -10.171  -0.491  1.00  0.00    -0.348 OA
BRANCH   3   8
HETATM    8  O   UNL     3     -19.921  -7.828  -1.551  1.00  0.00    -0.388 OA
HETATM    9  H   UNL     3     -20.058  -6.946  -1.151  1.00  0.00     0.210 HD
ENDBRANCH   3   8
BRANCH   4  10
HETATM   10  O   UNL     3     -22.268  -6.268  -1.557  1.00  0.00    -0.390 OA
HETATM   11  H   UNL     3     -21.844  -5.857  -0.780  1.00  0.00     0.210 HD
ENDBRANCH   4  10
BRANCH   5  12
HETATM   12  O   UNL     3     -23.611  -7.672   0.684  1.00  0.00    -0.390 OA
HETATM   13  H   UNL     3     -24.314  -7.462   0.041  1.00  0.00     0.210 HD
ENDBRANCH   5  12
BRANCH   6  14
HETATM   14  C   UNL     3     -23.682 -10.318  -0.286  1.00  0.00     0.198 C 
BRANCH  14  15
HETATM   15  O   UNL     3     -23.810 -11.644   0.205  1.00  0.00    -0.398 OA
HETATM   16  H   UNL     3     -23.731 -11.634   1.175  1.00  0.00     0.209 HD
ENDBRANCH  14  15
ENDBRANCH   6  14
ENDBRANCH   1   2
BRANCH   1  17
HETATM   17  C   UNL     3     -19.968 -10.442  -3.986  1.00  0.00     0.187 C 
HETATM   18  C   UNL     3     -18.825  -9.668  -4.663  1.00  0.00     0.180 C 
HETATM   19  O   UNL     3     -18.753  -9.939  -6.091  1.00  0.00    -0.349 OA
HETATM   20  C   UNL     3     -18.574 -11.313  -6.423  1.00  0.00     0.288 C 
HETATM   21  C   UNL     3     -19.749 -12.101  -5.912  1.00  0.00     0.204 C 
HETATM   22  C   UNL     3     -19.958 -11.915  -4.425  1.00  0.00     0.183 C 
BRANCH  18  23
HETATM   23  C   UNL     3     -17.410  -9.822  -4.108  1.00  0.00     0.198 C 
BRANCH  23  24
HETATM   24  O   UNL     3     -17.447  -9.256  -2.792  1.00  0.00    -0.398 OA
HETATM   25  H   UNL     3     -16.937  -8.411  -2.886  1.00  0.00     0.209 HD
ENDBRANCH  23  24
ENDBRANCH  18  23
BRANCH  20  26
HETATM   26  O   UNL     3     -18.681 -11.418  -7.837  1.00  0.00    -0.369 OA
HETATM   27  H   UNL     3     -18.488 -12.341  -8.095  1.00  0.00     0.212 HD
ENDBRANCH  20  26
BRANCH  21  28
HETATM   28  O   UNL     3     -20.837 -11.516  -6.639  1.00  0.00    -0.388 OA
HETATM   29  H   UNL     3     -20.766 -11.894  -7.543  1.00  0.00     0.210 HD
ENDBRANCH  21  28
BRANCH  22  30
HETATM   30  O   UNL     3     -21.208 -12.509  -4.075  1.00  0.00    -0.390 OA
HETATM   31  H   UNL     3     -21.811 -11.785  -3.815  1.00  0.00     0.210 HD
ENDBRANCH  22  30
ENDBRANCH   1  17
TORSDOF 60
ENDMDL
MODEL 9
REMARK VINA RESULT:      -4.6      2.924      5.630
REMARK WARNING: 32 MAX_TORS EXCEEDED!!!
REMARK  60 active torsions:
REMARK  status: ('A' for Active; 'I' for Inactive)
REMARK    1  A    between atoms: C_2  and  C_3 
REMARK    2  A    between atoms: C_3  and  O_5 
REMARK    3  A    between atoms: O_5  and  C_6 
REMARK    4  A    between atoms: C_6  and  C_7 
REMARK    5  A    between atoms: C_8  and  O_28 
REMARK    6  A    between atoms: C_9  and  O_23 
REMARK    7  A    between atoms: C_10  and  O_18 
REMARK    8  A    between atoms: C_11  and  O_13 
REMARK    9  A    between atoms: O_13  and  C_14 
REMARK   10  A    between atoms: C_14  and  C_16 
REMARK   11  A    between atoms: O_18  and  C_19 
REMARK   12  A    between atoms: C_19  and  C_21 
REMARK   13  A    between atoms: O_23  and  C_24 
REMARK   14  A    between atoms: C_24  and  C_26 
REMARK   15  A    between atoms: O_28  and  C_29 
REMARK   16  A    between atoms: C_30  and  O_51 
REMARK   17  A    between atoms: C_31  and  O_46 
REMARK   18  A    between atoms: C_32  and  O_41 
REMARK   19  A    between atoms: C_33  and  C_35 
REMARK   20  A    between atoms: C_35  and  O_36 
REMARK   21  A    between atoms: O_36  and  C_37 
REMARK   22  A    between atoms: C_37  and  C_39 
REMARK   23  A    between atoms: O_41  and  C_42 
REMARK   24  A    between atoms: C_42  and  C_44 
REMARK   25  A    between atoms: O_46  and  C_47 
REMARK   26  A    between atoms: C_47  and  C_49 
REMARK   27  A    between atoms: O_51  and  C_52 
REMARK   28  A    between atoms: C_52  and  C_54 
REMARK   29  A    between atoms: C_57  and  O_59 
REMARK   30  A    between atoms: O_59  and  C_60 
REMARK   31  A    between atoms: C_60  and  C_61 
REMARK   32  A    between atoms: C_62  and  O_79 
REMARK   33  A    between atoms: C_63  and  O_75 
REMARK   34  A    between atoms: C_64  and  O_71 
REMARK   35  A    between atoms: C_65  and  O_67 
REMARK   36  A    between atoms: O_67  and  C_68 
REMARK   37  A    between atoms: O_71  and  C_72 
REMARK   38  A    between atoms: O_75  and  C_76 
REMARK   39  A    between atoms: O_79  and  C_80 
REMARK   40  A    between atoms: C_81  and  O_99 
REMARK   41  A    between atoms: C_82  and  O_95 
REMARK   42  A    between atoms: C_83  and  O_91 
REMARK   43  A    between atoms: C_84  and  C_86 
REMARK   44  A    between atoms: C_86  and  O_87 
REMARK   45  A    between atoms: O_87  and  C_88 
REMARK   46  A    between atoms: O_91  and  C_92 
REMARK   47  A    between atoms: O_95  and  C_96 
REMARK   48  A    between atoms: O_99  and  C_100 
REMARK   49  A    between atoms: C_103  and  C_104 
REMARK   50  A    between atoms: C_103  and  O_125 
REMARK   51  A    between atoms: C_105  and  O_124 
REMARK   52  A    between atoms: C_106  and  O_123 
REMARK   53  A    between atoms: C_107  and  O_122 
REMARK   54  A    between atoms: C_108  and  O_110 
REMARK   55  A    between atoms: O_110  and  C_111 
REMARK   56  A    between atoms: C_112  and  C_120 
REMARK   57  A    between atoms: C_114  and  O_119 
REMARK   58  A    between atoms: C_115  and  O_118 
REMARK   59  A    between atoms: C_116  and  O_117 
REMARK   60  A    between atoms: C_120  and  O_121 
ROOT
HETATM    1  O   UNL     3     -20.858  -9.858  -0.781  1.00  0.00    -0.348 OA
ENDROOT
BRANCH   1   2
HETATM    2  C   UNL     3     -20.824  -8.888  -1.844  1.00  0.00     0.292 C 
HETATM    3  C   UNL     3     -21.409  -7.573  -1.297  1.00  0.00     0.204 C 
HETATM    4  C   UNL     3     -21.433  -6.456  -2.356  1.00  0.00     0.183 C 
HETATM    5  C   UNL     3     -22.135  -6.959  -3.628  1.00  0.00     0.180 C 
HETATM    6  C   UNL     3     -21.532  -8.311  -4.080  1.00  0.00     0.179 C 
HETATM    7  O   UNL     3     -21.570  -9.271  -3.004  1.00  0.00    -0.348 OA
BRANCH   3   8
HETATM    8  O   UNL     3     -22.755  -7.805  -0.846  1.00  0.00    -0.388 OA
HETATM    9  H   UNL     3     -23.349  -7.052  -1.036  1.00  0.00     0.210 HD
ENDBRANCH   3   8
BRANCH   4  10
HETATM   10  O   UNL     3     -22.055  -5.271  -1.860  1.00  0.00    -0.390 OA
HETATM   11  H   UNL     3     -22.141  -5.292  -0.888  1.00  0.00     0.210 HD
ENDBRANCH   4  10
BRANCH   5  12
HETATM   12  O   UNL     3     -22.019  -6.052  -4.720  1.00  0.00    -0.390 OA
HETATM   13  H   UNL     3     -22.741  -5.395  -4.732  1.00  0.00     0.210 HD
ENDBRANCH   5  12
BRANCH   6  14
HETATM   14  C   UNL     3     -20.115  -8.130  -4.702  1.00  0.00     0.198 C 
BRANCH  14  15
HETATM   15  O   UNL     3     -20.178  -7.679  -6.047  1.00  0.00    -0.398 OA
HETATM   16  H   UNL     3     -19.633  -6.879  -6.141  1.00  0.00     0.209 HD
ENDBRANCH  14  15
ENDBRANCH   6  14
ENDBRANCH   1   2
BRANCH   1  17
HETATM   17  C   UNL     3     -21.542 -11.091  -1.033  1.00  0.00     0.187 C 
HETATM   18  C   UNL     3     -20.661 -12.346  -1.138  1.00  0.00     0.180 C 
HETATM   19  O   UNL     3     -21.449 -13.569  -1.137  1.00  0.00    -0.349 OA
HETATM   20  C   UNL     3     -22.273 -13.739   0.013  1.00  0.00     0.288 C 
HETATM   21  C   UNL     3     -23.264 -12.609   0.081  1.00  0.00     0.204 C 
HETATM   22  C   UNL     3     -22.587 -11.256   0.083  1.00  0.00     0.183 C 
BRANCH  18  23
HETATM   23  C   UNL     3     -19.539 -12.539  -0.118  1.00  0.00     0.198 C 
BRANCH  23  24
HETATM   24  O   UNL     3     -18.515 -11.607  -0.489  1.00  0.00    -0.398 OA
HETATM   25  H   UNL     3     -17.968 -12.110  -1.145  1.00  0.00     0.209 HD
ENDBRANCH  23  24
ENDBRANCH  18  23
BRANCH  20  26
HETATM   26  O   UNL     3     -23.081 -14.887  -0.219  1.00  0.00    -0.369 OA
HETATM   27  H   UNL     3     -23.271 -14.943  -1.176  1.00  0.00     0.212 HD
ENDBRANCH  20  26
BRANCH  21  28
HETATM   28  O   UNL     3     -24.003 -12.789  -1.134  1.00  0.00    -0.388 OA
HETATM   29  H   UNL     3     -23.437 -13.370  -1.688  1.00  0.00     0.210 HD
ENDBRANCH  21  28
BRANCH  22  30
HETATM   30  O   UNL     3     -23.593 -10.256  -0.076  1.00  0.00    -0.390 OA
HETATM   31  H   UNL     3     -23.833 -10.234  -1.024  1.00  0.00     0.210 HD
ENDBRANCH  22  30
ENDBRANCH   1  17
TORSDOF 60
ENDMDL
