MODEL 1
REMARK VINA RESULT:      -1.3      0.000      0.000
REMARK  7 active torsions:
REMARK  status: ('A' for Active; 'I' for Inactive)
REMARK    1  A    between atoms: C_1  and  C_2 
REMARK    2  A    between atoms: C_1  and  O_16 
REMARK    3  A    between atoms: C_2  and  C_3 
REMARK    4  A    between atoms: C_2  and  O_15 
REMARK    5  A    between atoms: C_5  and  O_9 
REMARK    6  A    between atoms: O_9  and  P_10 
REMARK    7  A    between atoms: P_10  and  O_11 
ROOT
HETATM    1 NA   UNL     3     -32.324  -8.576   4.529  1.00  0.00     0.000 Na
ENDROOT
TORSDOF 7
ENDMDL
MODEL 2
REMARK VINA RESULT:      -1.3     23.494     23.494
REMARK  7 active torsions:
REMARK  status: ('A' for Active; 'I' for Inactive)
REMARK    1  A    between atoms: C_1  and  C_2 
REMARK    2  A    between atoms: C_1  and  O_16 
REMARK    3  A    between atoms: C_2  and  C_3 
REMARK    4  A    between atoms: C_2  and  O_15 
REMARK    5  A    between atoms: C_5  and  O_9 
REMARK    6  A    between atoms: O_9  and  P_10 
REMARK    7  A    between atoms: P_10  and  O_11 
ROOT
HETATM    1 NA   UNL     3     -11.257   1.619   2.468  1.00  0.00     0.000 Na
ENDROOT
TORSDOF 7
ENDMDL
MODEL 3
REMARK VINA RESULT:      -1.2     19.033     19.033
REMARK  7 active torsions:
REMARK  status: ('A' for Active; 'I' for Inactive)
REMARK    1  A    between atoms: C_1  and  C_2 
REMARK    2  A    between atoms: C_1  and  O_16 
REMARK    3  A    between atoms: C_2  and  C_3 
REMARK    4  A    between atoms: C_2  and  O_15 
REMARK    5  A    between atoms: C_5  and  O_9 
REMARK    6  A    between atoms: O_9  and  P_10 
REMARK    7  A    between atoms: P_10  and  O_11 
ROOT
HETATM    1 NA   UNL     3     -27.015 -13.665 -13.026  1.00  0.00     0.000 Na
ENDROOT
TORSDOF 7
ENDMDL
MODEL 4
REMARK VINA RESULT:      -1.2     22.209     22.209
REMARK  7 active torsions:
REMARK  status: ('A' for Active; 'I' for Inactive)
REMARK    1  A    between atoms: C_1  and  C_2 
REMARK    2  A    between atoms: C_1  and  O_16 
REMARK    3  A    between atoms: C_2  and  C_3 
REMARK    4  A    between atoms: C_2  and  O_15 
REMARK    5  A    between atoms: C_5  and  O_9 
REMARK    6  A    between atoms: O_9  and  P_10 
REMARK    7  A    between atoms: P_10  and  O_11 
ROOT
HETATM    1 NA   UNL     3     -25.113   0.407 -14.459  1.00  0.00     0.000 Na
ENDROOT
TORSDOF 7
ENDMDL
MODEL 5
REMARK VINA RESULT:      -1.2     14.870     14.870
REMARK  7 active torsions:
REMARK  status: ('A' for Active; 'I' for Inactive)
REMARK    1  A    between atoms: C_1  and  C_2 
REMARK    2  A    between atoms: C_1  and  O_16 
REMARK    3  A    between atoms: C_2  and  C_3 
REMARK    4  A    between atoms: C_2  and  O_15 
REMARK    5  A    between atoms: C_5  and  O_9 
REMARK    6  A    between atoms: O_9  and  P_10 
REMARK    7  A    between atoms: P_10  and  O_11 
ROOT
HETATM    1 NA   UNL     3     -27.297  -5.623  -9.150  1.00  0.00     0.000 Na
ENDROOT
TORSDOF 7
ENDMDL
MODEL 6
REMARK VINA RESULT:      -1.2     34.909     34.909
REMARK  7 active torsions:
REMARK  status: ('A' for Active; 'I' for Inactive)
REMARK    1  A    between atoms: C_1  and  C_2 
REMARK    2  A    between atoms: C_1  and  O_16 
REMARK    3  A    between atoms: C_2  and  C_3 
REMARK    4  A    between atoms: C_2  and  O_15 
REMARK    5  A    between atoms: C_5  and  O_9 
REMARK    6  A    between atoms: O_9  and  P_10 
REMARK    7  A    between atoms: P_10  and  O_11 
ROOT
HETATM    1 NA   UNL     3      -9.118   5.886 -17.175  1.00  0.00     0.000 Na
ENDROOT
TORSDOF 7
ENDMDL
MODEL 7
REMARK VINA RESULT:      -1.1     10.385     10.385
REMARK  7 active torsions:
REMARK  status: ('A' for Active; 'I' for Inactive)
REMARK    1  A    between atoms: C_1  and  C_2 
REMARK    2  A    between atoms: C_1  and  O_16 
REMARK    3  A    between atoms: C_2  and  C_3 
REMARK    4  A    between atoms: C_2  and  O_15 
REMARK    5  A    between atoms: C_5  and  O_9 
REMARK    6  A    between atoms: O_9  and  P_10 
REMARK    7  A    between atoms: P_10  and  O_11 
ROOT
HETATM    1 NA   UNL     3     -36.645   0.748   6.029  1.00  0.00     0.000 Na
ENDROOT
TORSDOF 7
ENDMDL
MODEL 8
REMARK VINA RESULT:      -1.1     12.328     12.328
REMARK  7 active torsions:
REMARK  status: ('A' for Active; 'I' for Inactive)
REMARK    1  A    between atoms: C_1  and  C_2 
REMARK    2  A    between atoms: C_1  and  O_16 
REMARK    3  A    between atoms: C_2  and  C_3 
REMARK    4  A    between atoms: C_2  and  O_15 
REMARK    5  A    between atoms: C_5  and  O_9 
REMARK    6  A    between atoms: O_9  and  P_10 
REMARK    7  A    between atoms: P_10  and  O_11 
ROOT
HETATM    1 NA   UNL     3     -25.223  -5.220  -4.974  1.00  0.00     0.000 Na
ENDROOT
TORSDOF 7
ENDMDL
MODEL 9
REMARK VINA RESULT:      -1.0      9.902      9.902
REMARK  7 active torsions:
REMARK  status: ('A' for Active; 'I' for Inactive)
REMARK    1  A    between atoms: C_1  and  C_2 
REMARK    2  A    between atoms: C_1  and  O_16 
REMARK    3  A    between atoms: C_2  and  C_3 
REMARK    4  A    between atoms: C_2  and  O_15 
REMARK    5  A    between atoms: C_5  and  O_9 
REMARK    6  A    between atoms: O_9  and  P_10 
REMARK    7  A    between atoms: P_10  and  O_11 
ROOT
HETATM    1 NA   UNL     3     -32.732  -6.045  -5.036  1.00  0.00     0.000 Na
ENDROOT
TORSDOF 7
ENDMDL
