MODEL 1
REMARK VINA RESULT:      -6.3      0.000      0.000
REMARK  20 active torsions:
REMARK  status: ('A' for Active; 'I' for Inactive)
REMARK    1  A    between atoms: C_2  and  C_3 
REMARK    2  A    between atoms: C_3  and  C_4 
REMARK    3  A    between atoms: C_4  and  C_5 
REMARK    4  A    between atoms: C_5  and  C_6 
REMARK    5  A    between atoms: C_6  and  C_7 
REMARK    6  A    between atoms: C_7  and  C_8 
REMARK    7  A    between atoms: C_8  and  C_9 
REMARK    8  A    between atoms: C_9  and  C_10 
REMARK    9  A    between atoms: C_10  and  C_11 
REMARK   10  A    between atoms: C_11  and  C_12 
REMARK   11  A    between atoms: C_12  and  O_13 
REMARK   12  A    between atoms: O_13  and  C_14 
REMARK   13  A    between atoms: C_14  and  C_15 
REMARK   14  A    between atoms: C_15  and  O_16 
REMARK   15  A    between atoms: O_16  and  C_17 
REMARK   16  A    between atoms: C_17  and  C_18 
REMARK   17  A    between atoms: C_18  and  O_19 
REMARK   18  A    between atoms: O_19  and  C_20 
REMARK   19  A    between atoms: C_20  and  C_21 
REMARK   20  A    between atoms: C_21  and  O_22 
ROOT
HETATM    1  C   UNL     1     -35.834  -0.404 -15.560  1.00  0.00     0.167 C 
ENDROOT
BRANCH   1   2
HETATM    2  C   UNL     1     -35.148   0.768 -14.874  1.00  0.00     0.026 C 
BRANCH   2   3
HETATM    3  C   UNL     1     -34.904   0.469 -13.395  1.00  0.00     0.002 C 
BRANCH   3   4
HETATM    4  C   UNL     1     -36.130  -0.165 -12.750  1.00  0.00     0.000 C 
BRANCH   4   5
HETATM    5  C   UNL     1     -35.715  -1.338 -11.871  1.00  0.00     0.000 C 
BRANCH   5   6
HETATM    6  C   UNL     1     -34.207  -1.541 -11.918  1.00  0.00     0.000 C 
BRANCH   6   7
HETATM    7  C   UNL     1     -33.728  -2.286 -10.678  1.00  0.00     0.000 C 
BRANCH   7   8
HETATM    8  C   UNL     1     -33.282  -3.695 -11.041  1.00  0.00     0.000 C 
BRANCH   8   9
HETATM    9  C   UNL     1     -34.238  -4.735 -10.467  1.00  0.00     0.000 C 
BRANCH   9  10
HETATM   10  C   UNL     1     -33.819  -6.141 -10.883  1.00  0.00    -0.000 C 
BRANCH  10  11
HETATM   11  C   UNL     1     -34.760  -7.191 -10.301  1.00  0.00    -0.005 C 
HETATM   12  C   UNL     1     -33.999  -8.440  -9.896  1.00  0.00     0.005 C 
ENDBRANCH  10  11
ENDBRANCH   9  10
ENDBRANCH   8   9
ENDBRANCH   7   8
ENDBRANCH   6   7
ENDBRANCH   5   6
ENDBRANCH   4   5
ENDBRANCH   3   4
ENDBRANCH   2   3
ENDBRANCH   1   2
BRANCH   1  13
HETATM   13  O   UNL     1     -35.012  -1.558 -15.405  1.00  0.00    -0.389 OA
BRANCH  13  14
HETATM   14  C   UNL     1     -35.008  -2.362 -16.579  1.00  0.00     0.193 C 
BRANCH  14  15
HETATM   15  C   UNL     1     -33.766  -3.239 -16.574  1.00  0.00     0.193 C 
BRANCH  15  16
HETATM   16  O   UNL     1     -32.991  -2.925 -17.728  1.00  0.00    -0.387 OA
BRANCH  16  17
HETATM   17  C   UNL     1     -31.676  -3.455 -17.627  1.00  0.00     0.193 C 
BRANCH  17  18
HETATM   18  C   UNL     1     -31.736  -4.742 -16.818  1.00  0.00     0.193 C 
BRANCH  18  19
HETATM   19  O   UNL     1     -30.589  -5.544 -17.107  1.00  0.00    -0.387 OA
BRANCH  19  20
HETATM   20  C   UNL     1     -30.964  -6.908 -17.334  1.00  0.00     0.193 C 
BRANCH  20  21
HETATM   21  C   UNL     1     -29.781  -7.645 -17.949  1.00  0.00     0.190 C 
BRANCH  21  22
HETATM   22  O   UNL     1     -30.208  -8.453 -19.045  1.00  0.00    -0.399 OA
HETATM   23  H   UNL     1     -30.840  -9.092 -18.664  1.00  0.00     0.209 HD
ENDBRANCH  21  22
ENDBRANCH  20  21
ENDBRANCH  19  20
ENDBRANCH  18  19
ENDBRANCH  17  18
ENDBRANCH  16  17
ENDBRANCH  15  16
ENDBRANCH  14  15
ENDBRANCH  13  14
ENDBRANCH   1  13
TORSDOF 20
ENDMDL
MODEL 2
REMARK VINA RESULT:      -6.2     12.718     14.624
REMARK  20 active torsions:
REMARK  status: ('A' for Active; 'I' for Inactive)
REMARK    1  A    between atoms: C_2  and  C_3 
REMARK    2  A    between atoms: C_3  and  C_4 
REMARK    3  A    between atoms: C_4  and  C_5 
REMARK    4  A    between atoms: C_5  and  C_6 
REMARK    5  A    between atoms: C_6  and  C_7 
REMARK    6  A    between atoms: C_7  and  C_8 
REMARK    7  A    between atoms: C_8  and  C_9 
REMARK    8  A    between atoms: C_9  and  C_10 
REMARK    9  A    between atoms: C_10  and  C_11 
REMARK   10  A    between atoms: C_11  and  C_12 
REMARK   11  A    between atoms: C_12  and  O_13 
REMARK   12  A    between atoms: O_13  and  C_14 
REMARK   13  A    between atoms: C_14  and  C_15 
REMARK   14  A    between atoms: C_15  and  O_16 
REMARK   15  A    between atoms: O_16  and  C_17 
REMARK   16  A    between atoms: C_17  and  C_18 
REMARK   17  A    between atoms: C_18  and  O_19 
REMARK   18  A    between atoms: O_19  and  C_20 
REMARK   19  A    between atoms: C_20  and  C_21 
REMARK   20  A    between atoms: C_21  and  O_22 
ROOT
HETATM    1  C   UNL     1     -22.097  -4.517  -7.083  1.00  0.00     0.167 C 
ENDROOT
BRANCH   1   2
HETATM    2  C   UNL     1     -21.038  -5.601  -6.955  1.00  0.00     0.026 C 
BRANCH   2   3
HETATM    3  C   UNL     1     -20.566  -5.737  -5.508  1.00  0.00     0.002 C 
BRANCH   3   4
HETATM    4  C   UNL     1     -20.535  -7.196  -5.071  1.00  0.00     0.000 C 
BRANCH   4   5
HETATM    5  C   UNL     1     -21.578  -7.443  -3.989  1.00  0.00     0.000 C 
BRANCH   5   6
HETATM    6  C   UNL     1     -21.799  -6.189  -3.155  1.00  0.00     0.000 C 
BRANCH   6   7
HETATM    7  C   UNL     1     -22.091  -6.555  -1.705  1.00  0.00     0.000 C 
BRANCH   7   8
HETATM    8  C   UNL     1     -21.695  -7.998  -1.429  1.00  0.00     0.000 C 
BRANCH   8   9
HETATM    9  C   UNL     1     -22.573  -8.606  -0.340  1.00  0.00     0.000 C 
BRANCH   9  10
HETATM   10  C   UNL     1     -22.181  -8.068   1.032  1.00  0.00    -0.000 C 
BRANCH  10  11
HETATM   11  C   UNL     1     -20.847  -8.649   1.490  1.00  0.00    -0.005 C 
HETATM   12  C   UNL     1     -20.761 -10.131   1.176  1.00  0.00     0.005 C 
ENDBRANCH  10  11
ENDBRANCH   9  10
ENDBRANCH   8   9
ENDBRANCH   7   8
ENDBRANCH   6   7
ENDBRANCH   5   6
ENDBRANCH   4   5
ENDBRANCH   3   4
ENDBRANCH   2   3
ENDBRANCH   1   2
BRANCH   1  13
HETATM   13  O   UNL     1     -22.546  -4.486  -8.435  1.00  0.00    -0.389 OA
BRANCH  13  14
HETATM   14  C   UNL     1     -21.605  -3.846  -9.289  1.00  0.00     0.193 C 
BRANCH  14  15
HETATM   15  C   UNL     1     -22.185  -3.761 -10.691  1.00  0.00     0.193 C 
BRANCH  15  16
HETATM   16  O   UNL     1     -23.605  -3.698 -10.585  1.00  0.00    -0.387 OA
BRANCH  16  17
HETATM   17  C   UNL     1     -24.181  -3.095 -11.737  1.00  0.00     0.193 C 
BRANCH  17  18
HETATM   18  C   UNL     1     -24.069  -4.069 -12.899  1.00  0.00     0.193 C 
BRANCH  18  19
HETATM   19  O   UNL     1     -24.141  -3.354 -14.134  1.00  0.00    -0.387 OA
BRANCH  19  20
HETATM   20  C   UNL     1     -23.093  -2.381 -14.222  1.00  0.00     0.193 C 
BRANCH  20  21
HETATM   21  C   UNL     1     -23.601  -1.186 -15.018  1.00  0.00     0.190 C 
BRANCH  21  22
HETATM   22  O   UNL     1     -24.857  -0.739 -14.506  1.00  0.00    -0.399 OA
HETATM   23  H   UNL     1     -25.368  -1.551 -14.330  1.00  0.00     0.209 HD
ENDBRANCH  21  22
ENDBRANCH  20  21
ENDBRANCH  19  20
ENDBRANCH  18  19
ENDBRANCH  17  18
ENDBRANCH  16  17
ENDBRANCH  15  16
ENDBRANCH  14  15
ENDBRANCH  13  14
ENDBRANCH   1  13
TORSDOF 20
ENDMDL
MODEL 3
REMARK VINA RESULT:      -6.1     12.916     15.074
REMARK  20 active torsions:
REMARK  status: ('A' for Active; 'I' for Inactive)
REMARK    1  A    between atoms: C_2  and  C_3 
REMARK    2  A    between atoms: C_3  and  C_4 
REMARK    3  A    between atoms: C_4  and  C_5 
REMARK    4  A    between atoms: C_5  and  C_6 
REMARK    5  A    between atoms: C_6  and  C_7 
REMARK    6  A    between atoms: C_7  and  C_8 
REMARK    7  A    between atoms: C_8  and  C_9 
REMARK    8  A    between atoms: C_9  and  C_10 
REMARK    9  A    between atoms: C_10  and  C_11 
REMARK   10  A    between atoms: C_11  and  C_12 
REMARK   11  A    between atoms: C_12  and  O_13 
REMARK   12  A    between atoms: O_13  and  C_14 
REMARK   13  A    between atoms: C_14  and  C_15 
REMARK   14  A    between atoms: C_15  and  O_16 
REMARK   15  A    between atoms: O_16  and  C_17 
REMARK   16  A    between atoms: C_17  and  C_18 
REMARK   17  A    between atoms: C_18  and  O_19 
REMARK   18  A    between atoms: O_19  and  C_20 
REMARK   19  A    between atoms: C_20  and  C_21 
REMARK   20  A    between atoms: C_21  and  O_22 
ROOT
HETATM    1  C   UNL     1     -20.445  -5.004  -5.549  1.00  0.00     0.167 C 
ENDROOT
BRANCH   1   2
HETATM    2  C   UNL     1     -21.203  -6.318  -5.668  1.00  0.00     0.026 C 
BRANCH   2   3
HETATM    3  C   UNL     1     -22.098  -6.544  -4.450  1.00  0.00     0.002 C 
BRANCH   3   4
HETATM    4  C   UNL     1     -21.339  -6.297  -3.153  1.00  0.00     0.000 C 
BRANCH   4   5
HETATM    5  C   UNL     1     -22.311  -6.207  -1.983  1.00  0.00     0.000 C 
BRANCH   5   6
HETATM    6  C   UNL     1     -21.931  -7.193  -0.888  1.00  0.00     0.000 C 
BRANCH   6   7
HETATM    7  C   UNL     1     -21.126  -8.350  -1.466  1.00  0.00     0.000 C 
BRANCH   7   8
HETATM    8  C   UNL     1     -21.848  -9.670  -1.237  1.00  0.00     0.000 C 
BRANCH   8   9
HETATM    9  C   UNL     1     -23.037  -9.486  -0.300  1.00  0.00     0.000 C 
BRANCH   9  10
HETATM   10  C   UNL     1     -23.722 -10.822  -0.030  1.00  0.00    -0.000 C 
BRANCH  10  11
HETATM   11  C   UNL     1     -22.703 -11.900   0.329  1.00  0.00    -0.005 C 
HETATM   12  C   UNL     1     -23.364 -13.051   1.065  1.00  0.00     0.005 C 
ENDBRANCH  10  11
ENDBRANCH   9  10
ENDBRANCH   8   9
ENDBRANCH   7   8
ENDBRANCH   6   7
ENDBRANCH   5   6
ENDBRANCH   4   5
ENDBRANCH   3   4
ENDBRANCH   2   3
ENDBRANCH   1   2
BRANCH   1  13
HETATM   13  O   UNL     1     -20.954  -4.103  -6.529  1.00  0.00    -0.389 OA
BRANCH  13  14
HETATM   14  C   UNL     1     -21.169  -4.748  -7.778  1.00  0.00     0.193 C 
BRANCH  14  15
HETATM   15  C   UNL     1     -22.481  -4.259  -8.369  1.00  0.00     0.193 C 
BRANCH  15  16
HETATM   16  O   UNL     1     -22.553  -4.697  -9.723  1.00  0.00    -0.387 OA
BRANCH  16  17
HETATM   17  C   UNL     1     -22.781  -3.606 -10.607  1.00  0.00     0.193 C 
BRANCH  17  18
HETATM   18  C   UNL     1     -24.275  -3.322 -10.648  1.00  0.00     0.193 C 
BRANCH  18  19
HETATM   19  O   UNL     1     -24.648  -2.907 -11.964  1.00  0.00    -0.387 OA
BRANCH  19  20
HETATM   20  C   UNL     1     -23.787  -3.492 -12.947  1.00  0.00     0.193 C 
BRANCH  20  21
HETATM   21  C   UNL     1     -23.483  -2.448 -14.014  1.00  0.00     0.190 C 
BRANCH  21  22
HETATM   22  O   UNL     1     -24.511  -1.459 -14.056  1.00  0.00    -0.399 OA
HETATM   23  H   UNL     1     -24.239  -0.833 -14.753  1.00  0.00     0.209 HD
ENDBRANCH  21  22
ENDBRANCH  20  21
ENDBRANCH  19  20
ENDBRANCH  18  19
ENDBRANCH  17  18
ENDBRANCH  16  17
ENDBRANCH  15  16
ENDBRANCH  14  15
ENDBRANCH  13  14
ENDBRANCH   1  13
TORSDOF 20
ENDMDL
MODEL 4
REMARK VINA RESULT:      -6.0      1.244      1.764
REMARK  20 active torsions:
REMARK  status: ('A' for Active; 'I' for Inactive)
REMARK    1  A    between atoms: C_2  and  C_3 
REMARK    2  A    between atoms: C_3  and  C_4 
REMARK    3  A    between atoms: C_4  and  C_5 
REMARK    4  A    between atoms: C_5  and  C_6 
REMARK    5  A    between atoms: C_6  and  C_7 
REMARK    6  A    between atoms: C_7  and  C_8 
REMARK    7  A    between atoms: C_8  and  C_9 
REMARK    8  A    between atoms: C_9  and  C_10 
REMARK    9  A    between atoms: C_10  and  C_11 
REMARK   10  A    between atoms: C_11  and  C_12 
REMARK   11  A    between atoms: C_12  and  O_13 
REMARK   12  A    between atoms: O_13  and  C_14 
REMARK   13  A    between atoms: C_14  and  C_15 
REMARK   14  A    between atoms: C_15  and  O_16 
REMARK   15  A    between atoms: O_16  and  C_17 
REMARK   16  A    between atoms: C_17  and  C_18 
REMARK   17  A    between atoms: C_18  and  O_19 
REMARK   18  A    between atoms: O_19  and  C_20 
REMARK   19  A    between atoms: C_20  and  C_21 
REMARK   20  A    between atoms: C_21  and  O_22 
ROOT
HETATM    1  C   UNL     1     -35.596   0.682 -14.692  1.00  0.00     0.167 C 
ENDROOT
BRANCH   1   2
HETATM    2  C   UNL     1     -36.343   0.096 -13.503  1.00  0.00     0.026 C 
BRANCH   2   3
HETATM    3  C   UNL     1     -35.431  -0.812 -12.679  1.00  0.00     0.002 C 
BRANCH   3   4
HETATM    4  C   UNL     1     -35.835  -0.814 -11.211  1.00  0.00     0.000 C 
BRANCH   4   5
HETATM    5  C   UNL     1     -35.054  -1.880 -10.451  1.00  0.00     0.000 C 
BRANCH   5   6
HETATM    6  C   UNL     1     -33.630  -1.984 -10.979  1.00  0.00     0.000 C 
BRANCH   6   7
HETATM    7  C   UNL     1     -33.255  -3.440 -11.222  1.00  0.00     0.000 C 
BRANCH   7   8
HETATM    8  C   UNL     1     -34.004  -3.989 -12.428  1.00  0.00     0.000 C 
BRANCH   8   9
HETATM    9  C   UNL     1     -34.521  -5.398 -12.154  1.00  0.00     0.000 C 
BRANCH   9  10
HETATM   10  C   UNL     1     -33.780  -6.023 -10.977  1.00  0.00    -0.000 C 
BRANCH  10  11
HETATM   11  C   UNL     1     -34.755  -6.646  -9.981  1.00  0.00    -0.005 C 
HETATM   12  C   UNL     1     -34.535  -8.143  -9.867  1.00  0.00     0.005 C 
ENDBRANCH  10  11
ENDBRANCH   9  10
ENDBRANCH   8   9
ENDBRANCH   7   8
ENDBRANCH   6   7
ENDBRANCH   5   6
ENDBRANCH   4   5
ENDBRANCH   3   4
ENDBRANCH   2   3
ENDBRANCH   1   2
BRANCH   1  13
HETATM   13  O   UNL     1     -34.871  -0.367 -15.328  1.00  0.00    -0.389 OA
BRANCH  13  14
HETATM   14  C   UNL     1     -35.654  -1.025 -16.316  1.00  0.00     0.193 C 
BRANCH  14  15
HETATM   15  C   UNL     1     -34.847  -2.169 -16.908  1.00  0.00     0.193 C 
BRANCH  15  16
HETATM   16  O   UNL     1     -34.808  -3.229 -15.956  1.00  0.00    -0.387 OA
BRANCH  16  17
HETATM   17  C   UNL     1     -33.628  -4.009 -16.100  1.00  0.00     0.193 C 
BRANCH  17  18
HETATM   18  C   UNL     1     -32.908  -3.566 -17.365  1.00  0.00     0.193 C 
BRANCH  18  19
HETATM   19  O   UNL     1     -31.495  -3.652 -17.168  1.00  0.00    -0.387 OA
BRANCH  19  20
HETATM   20  C   UNL     1     -31.163  -4.767 -16.334  1.00  0.00     0.193 C 
BRANCH  20  21
HETATM   21  C   UNL     1     -30.766  -5.940 -17.222  1.00  0.00     0.190 C 
BRANCH  21  22
HETATM   22  O   UNL     1     -31.781  -6.943 -17.213  1.00  0.00    -0.399 OA
HETATM   23  H   UNL     1     -32.405  -6.674 -16.513  1.00  0.00     0.209 HD
ENDBRANCH  21  22
ENDBRANCH  20  21
ENDBRANCH  19  20
ENDBRANCH  18  19
ENDBRANCH  17  18
ENDBRANCH  16  17
ENDBRANCH  15  16
ENDBRANCH  14  15
ENDBRANCH  13  14
ENDBRANCH   1  13
TORSDOF 20
ENDMDL
MODEL 5
REMARK VINA RESULT:      -6.0     13.205     15.502
REMARK  20 active torsions:
REMARK  status: ('A' for Active; 'I' for Inactive)
REMARK    1  A    between atoms: C_2  and  C_3 
REMARK    2  A    between atoms: C_3  and  C_4 
REMARK    3  A    between atoms: C_4  and  C_5 
REMARK    4  A    between atoms: C_5  and  C_6 
REMARK    5  A    between atoms: C_6  and  C_7 
REMARK    6  A    between atoms: C_7  and  C_8 
REMARK    7  A    between atoms: C_8  and  C_9 
REMARK    8  A    between atoms: C_9  and  C_10 
REMARK    9  A    between atoms: C_10  and  C_11 
REMARK   10  A    between atoms: C_11  and  C_12 
REMARK   11  A    between atoms: C_12  and  O_13 
REMARK   12  A    between atoms: O_13  and  C_14 
REMARK   13  A    between atoms: C_14  and  C_15 
REMARK   14  A    between atoms: C_15  and  O_16 
REMARK   15  A    between atoms: O_16  and  C_17 
REMARK   16  A    between atoms: C_17  and  C_18 
REMARK   17  A    between atoms: C_18  and  O_19 
REMARK   18  A    between atoms: O_19  and  C_20 
REMARK   19  A    between atoms: C_20  and  C_21 
REMARK   20  A    between atoms: C_21  and  O_22 
ROOT
HETATM    1  C   UNL     1     -20.093  -6.210  -6.068  1.00  0.00     0.167 C 
ENDROOT
BRANCH   1   2
HETATM    2  C   UNL     1     -21.058  -7.251  -5.523  1.00  0.00     0.026 C 
BRANCH   2   3
HETATM    3  C   UNL     1     -22.082  -6.611  -4.586  1.00  0.00     0.002 C 
BRANCH   3   4
HETATM    4  C   UNL     1     -21.522  -6.459  -3.178  1.00  0.00     0.000 C 
BRANCH   4   5
HETATM    5  C   UNL     1     -20.927  -7.779  -2.703  1.00  0.00     0.000 C 
BRANCH   5   6
HETATM    6  C   UNL     1     -20.918  -7.852  -1.182  1.00  0.00     0.000 C 
BRANCH   6   7
HETATM    7  C   UNL     1     -22.325  -7.664  -0.630  1.00  0.00     0.000 C 
BRANCH   7   8
HETATM    8  C   UNL     1     -22.754  -8.888   0.166  1.00  0.00     0.000 C 
BRANCH   8   9
HETATM    9  C   UNL     1     -23.031 -10.070  -0.757  1.00  0.00     0.000 C 
BRANCH   9  10
HETATM   10  C   UNL     1     -24.072 -11.000  -0.144  1.00  0.00    -0.000 C 
BRANCH  10  11
HETATM   11  C   UNL     1     -23.427 -12.285   0.371  1.00  0.00    -0.005 C 
HETATM   12  C   UNL     1     -23.852 -13.479  -0.462  1.00  0.00     0.005 C 
ENDBRANCH  10  11
ENDBRANCH   9  10
ENDBRANCH   8   9
ENDBRANCH   7   8
ENDBRANCH   6   7
ENDBRANCH   5   6
ENDBRANCH   4   5
ENDBRANCH   3   4
ENDBRANCH   2   3
ENDBRANCH   1   2
BRANCH   1  13
HETATM   13  O   UNL     1     -20.147  -6.249  -7.491  1.00  0.00    -0.389 OA
BRANCH  13  14
HETATM   14  C   UNL     1     -21.057  -5.286  -8.011  1.00  0.00     0.193 C 
BRANCH  14  15
HETATM   15  C   UNL     1     -20.299  -4.323  -8.909  1.00  0.00     0.193 C 
BRANCH  15  16
HETATM   16  O   UNL     1     -20.554  -4.679 -10.265  1.00  0.00    -0.387 OA
BRANCH  16  17
HETATM   17  C   UNL     1     -20.604  -3.530 -11.101  1.00  0.00     0.193 C 
BRANCH  17  18
HETATM   18  C   UNL     1     -21.834  -3.633 -11.990  1.00  0.00     0.193 C 
BRANCH  18  19
HETATM   19  O   UNL     1     -22.870  -4.332 -11.296  1.00  0.00    -0.387 OA
BRANCH  19  20
HETATM   20  C   UNL     1     -24.033  -3.508 -11.153  1.00  0.00     0.193 C 
BRANCH  20  21
HETATM   21  C   UNL     1     -24.574  -3.668  -9.738  1.00  0.00     0.190 C 
BRANCH  21  22
HETATM   22  O   UNL     1     -25.931  -3.231  -9.668  1.00  0.00    -0.399 OA
HETATM   23  H   UNL     1     -26.465  -4.001  -9.941  1.00  0.00     0.209 HD
ENDBRANCH  21  22
ENDBRANCH  20  21
ENDBRANCH  19  20
ENDBRANCH  18  19
ENDBRANCH  17  18
ENDBRANCH  16  17
ENDBRANCH  15  16
ENDBRANCH  14  15
ENDBRANCH  13  14
ENDBRANCH   1  13
TORSDOF 20
ENDMDL
MODEL 6
REMARK VINA RESULT:      -5.7     12.901     15.119
REMARK  20 active torsions:
REMARK  status: ('A' for Active; 'I' for Inactive)
REMARK    1  A    between atoms: C_2  and  C_3 
REMARK    2  A    between atoms: C_3  and  C_4 
REMARK    3  A    between atoms: C_4  and  C_5 
REMARK    4  A    between atoms: C_5  and  C_6 
REMARK    5  A    between atoms: C_6  and  C_7 
REMARK    6  A    between atoms: C_7  and  C_8 
REMARK    7  A    between atoms: C_8  and  C_9 
REMARK    8  A    between atoms: C_9  and  C_10 
REMARK    9  A    between atoms: C_10  and  C_11 
REMARK   10  A    between atoms: C_11  and  C_12 
REMARK   11  A    between atoms: C_12  and  O_13 
REMARK   12  A    between atoms: O_13  and  C_14 
REMARK   13  A    between atoms: C_14  and  C_15 
REMARK   14  A    between atoms: C_15  and  O_16 
REMARK   15  A    between atoms: O_16  and  C_17 
REMARK   16  A    between atoms: C_17  and  C_18 
REMARK   17  A    between atoms: C_18  and  O_19 
REMARK   18  A    between atoms: O_19  and  C_20 
REMARK   19  A    between atoms: C_20  and  C_21 
REMARK   20  A    between atoms: C_21  and  O_22 
ROOT
HETATM    1  C   UNL     1     -20.436  -6.347  -6.104  1.00  0.00     0.167 C 
ENDROOT
BRANCH   1   2
HETATM    2  C   UNL     1     -21.743  -6.554  -5.354  1.00  0.00     0.026 C 
BRANCH   2   3
HETATM    3  C   UNL     1     -21.702  -7.839  -4.528  1.00  0.00     0.002 C 
BRANCH   3   4
HETATM    4  C   UNL     1     -20.947  -7.632  -3.222  1.00  0.00     0.000 C 
BRANCH   4   5
HETATM    5  C   UNL     1     -21.430  -6.363  -2.530  1.00  0.00     0.000 C 
BRANCH   5   6
HETATM    6  C   UNL     1     -22.326  -6.702  -1.346  1.00  0.00     0.000 C 
BRANCH   6   7
HETATM    7  C   UNL     1     -21.687  -7.783  -0.484  1.00  0.00     0.000 C 
BRANCH   7   8
HETATM    8  C   UNL     1     -22.753  -8.704   0.092  1.00  0.00     0.000 C 
BRANCH   8   9
HETATM    9  C   UNL     1     -22.474 -10.158  -0.274  1.00  0.00     0.000 C 
BRANCH   9  10
HETATM   10  C   UNL     1     -22.992 -10.470  -1.674  1.00  0.00    -0.000 C 
BRANCH  10  11
HETATM   11  C   UNL     1     -21.898 -11.085  -2.542  1.00  0.00    -0.005 C 
HETATM   12  C   UNL     1     -22.490 -11.787  -3.750  1.00  0.00     0.005 C 
ENDBRANCH  10  11
ENDBRANCH   9  10
ENDBRANCH   8   9
ENDBRANCH   7   8
ENDBRANCH   6   7
ENDBRANCH   5   6
ENDBRANCH   4   5
ENDBRANCH   3   4
ENDBRANCH   2   3
ENDBRANCH   1   2
BRANCH   1  13
HETATM   13  O   UNL     1     -20.738  -6.105  -7.475  1.00  0.00    -0.389 OA
BRANCH  13  14
HETATM   14  C   UNL     1     -20.453  -4.762  -7.849  1.00  0.00     0.193 C 
BRANCH  14  15
HETATM   15  C   UNL     1     -20.388  -4.673  -9.365  1.00  0.00     0.193 C 
BRANCH  15  16
HETATM   16  O   UNL     1     -21.409  -3.782  -9.805  1.00  0.00    -0.387 OA
BRANCH  16  17
HETATM   17  C   UNL     1     -22.551  -4.493 -10.265  1.00  0.00     0.193 C 
BRANCH  17  18
HETATM   18  C   UNL     1     -22.622  -4.366 -11.779  1.00  0.00     0.193 C 
BRANCH  18  19
HETATM   19  O   UNL     1     -23.969  -4.099 -12.176  1.00  0.00    -0.387 OA
BRANCH  19  20
HETATM   20  C   UNL     1     -24.079  -2.795 -12.757  1.00  0.00     0.193 C 
BRANCH  20  21
HETATM   21  C   UNL     1     -23.064  -2.676 -13.888  1.00  0.00     0.190 C 
BRANCH  21  22
HETATM   22  O   UNL     1     -23.723  -2.428 -15.130  1.00  0.00    -0.399 OA
HETATM   23  H   UNL     1     -24.611  -2.819 -15.034  1.00  0.00     0.209 HD
ENDBRANCH  21  22
ENDBRANCH  20  21
ENDBRANCH  19  20
ENDBRANCH  18  19
ENDBRANCH  17  18
ENDBRANCH  16  17
ENDBRANCH  15  16
ENDBRANCH  14  15
ENDBRANCH  13  14
ENDBRANCH   1  13
TORSDOF 20
ENDMDL
MODEL 7
REMARK VINA RESULT:      -5.6     13.603     15.830
REMARK  20 active torsions:
REMARK  status: ('A' for Active; 'I' for Inactive)
REMARK    1  A    between atoms: C_2  and  C_3 
REMARK    2  A    between atoms: C_3  and  C_4 
REMARK    3  A    between atoms: C_4  and  C_5 
REMARK    4  A    between atoms: C_5  and  C_6 
REMARK    5  A    between atoms: C_6  and  C_7 
REMARK    6  A    between atoms: C_7  and  C_8 
REMARK    7  A    between atoms: C_8  and  C_9 
REMARK    8  A    between atoms: C_9  and  C_10 
REMARK    9  A    between atoms: C_10  and  C_11 
REMARK   10  A    between atoms: C_11  and  C_12 
REMARK   11  A    between atoms: C_12  and  O_13 
REMARK   12  A    between atoms: O_13  and  C_14 
REMARK   13  A    between atoms: C_14  and  C_15 
REMARK   14  A    between atoms: C_15  and  O_16 
REMARK   15  A    between atoms: O_16  and  C_17 
REMARK   16  A    between atoms: C_17  and  C_18 
REMARK   17  A    between atoms: C_18  and  O_19 
REMARK   18  A    between atoms: O_19  and  C_20 
REMARK   19  A    between atoms: C_20  and  C_21 
REMARK   20  A    between atoms: C_21  and  O_22 
ROOT
HETATM    1  C   UNL     1     -21.411  -7.033  -6.034  1.00  0.00     0.167 C 
ENDROOT
BRANCH   1   2
HETATM    2  C   UNL     1     -22.219  -6.743  -4.779  1.00  0.00     0.026 C 
BRANCH   2   3
HETATM    3  C   UNL     1     -21.346  -6.100  -3.703  1.00  0.00     0.002 C 
BRANCH   3   4
HETATM    4  C   UNL     1     -21.198  -7.013  -2.493  1.00  0.00     0.000 C 
BRANCH   4   5
HETATM    5  C   UNL     1     -22.220  -6.640  -1.425  1.00  0.00     0.000 C 
BRANCH   5   6
HETATM    6  C   UNL     1     -21.993  -7.450  -0.156  1.00  0.00     0.000 C 
BRANCH   6   7
HETATM    7  C   UNL     1     -23.253  -8.221   0.219  1.00  0.00     0.000 C 
BRANCH   7   8
HETATM    8  C   UNL     1     -23.081  -9.703  -0.086  1.00  0.00     0.000 C 
BRANCH   8   9
HETATM    9  C   UNL     1     -21.616 -10.041  -0.342  1.00  0.00     0.000 C 
BRANCH   9  10
HETATM   10  C   UNL     1     -21.071 -10.941   0.762  1.00  0.00    -0.000 C 
BRANCH  10  11
HETATM   11  C   UNL     1     -19.712 -11.521   0.379  1.00  0.00    -0.005 C 
HETATM   12  C   UNL     1     -19.794 -12.279  -0.933  1.00  0.00     0.005 C 
ENDBRANCH  10  11
ENDBRANCH   9  10
ENDBRANCH   8   9
ENDBRANCH   7   8
ENDBRANCH   6   7
ENDBRANCH   5   6
ENDBRANCH   4   5
ENDBRANCH   3   4
ENDBRANCH   2   3
ENDBRANCH   1   2
BRANCH   1  13
HETATM   13  O   UNL     1     -20.621  -5.885  -6.335  1.00  0.00    -0.389 OA
BRANCH  13  14
HETATM   14  C   UNL     1     -20.998  -5.296  -7.573  1.00  0.00     0.193 C 
BRANCH  14  15
HETATM   15  C   UNL     1     -21.235  -3.809  -7.363  1.00  0.00     0.193 C 
BRANCH  15  16
HETATM   16  O   UNL     1     -22.405  -3.436  -8.086  1.00  0.00    -0.387 OA
BRANCH  16  17
HETATM   17  C   UNL     1     -22.721  -4.393  -9.089  1.00  0.00     0.193 C 
BRANCH  17  18
HETATM   18  C   UNL     1     -24.170  -4.195  -9.506  1.00  0.00     0.193 C 
BRANCH  18  19
HETATM   19  O   UNL     1     -24.248  -3.159 -10.488  1.00  0.00    -0.387 OA
BRANCH  19  20
HETATM   20  C   UNL     1     -23.839  -3.642 -11.773  1.00  0.00     0.193 C 
BRANCH  20  21
HETATM   21  C   UNL     1     -22.790  -2.694 -12.341  1.00  0.00     0.190 C 
BRANCH  21  22
HETATM   22  O   UNL     1     -22.165  -3.267 -13.489  1.00  0.00    -0.399 OA
HETATM   23  H   UNL     1     -21.215  -3.065 -13.393  1.00  0.00     0.209 HD
ENDBRANCH  21  22
ENDBRANCH  20  21
ENDBRANCH  19  20
ENDBRANCH  18  19
ENDBRANCH  17  18
ENDBRANCH  16  17
ENDBRANCH  15  16
ENDBRANCH  14  15
ENDBRANCH  13  14
ENDBRANCH   1  13
TORSDOF 20
ENDMDL
MODEL 8
REMARK VINA RESULT:      -5.6      1.676      2.608
REMARK  20 active torsions:
REMARK  status: ('A' for Active; 'I' for Inactive)
REMARK    1  A    between atoms: C_2  and  C_3 
REMARK    2  A    between atoms: C_3  and  C_4 
REMARK    3  A    between atoms: C_4  and  C_5 
REMARK    4  A    between atoms: C_5  and  C_6 
REMARK    5  A    between atoms: C_6  and  C_7 
REMARK    6  A    between atoms: C_7  and  C_8 
REMARK    7  A    between atoms: C_8  and  C_9 
REMARK    8  A    between atoms: C_9  and  C_10 
REMARK    9  A    between atoms: C_10  and  C_11 
REMARK   10  A    between atoms: C_11  and  C_12 
REMARK   11  A    between atoms: C_12  and  O_13 
REMARK   12  A    between atoms: O_13  and  C_14 
REMARK   13  A    between atoms: C_14  and  C_15 
REMARK   14  A    between atoms: C_15  and  O_16 
REMARK   15  A    between atoms: O_16  and  C_17 
REMARK   16  A    between atoms: C_17  and  C_18 
REMARK   17  A    between atoms: C_18  and  O_19 
REMARK   18  A    between atoms: O_19  and  C_20 
REMARK   19  A    between atoms: C_20  and  C_21 
REMARK   20  A    between atoms: C_21  and  O_22 
ROOT
HETATM    1  C   UNL     1     -35.124  -2.899 -16.440  1.00  0.00     0.167 C 
ENDROOT
BRANCH   1   2
HETATM    2  C   UNL     1     -35.051  -1.390 -16.614  1.00  0.00     0.026 C 
BRANCH   2   3
HETATM    3  C   UNL     1     -35.817  -0.674 -15.502  1.00  0.00     0.002 C 
BRANCH   3   4
HETATM    4  C   UNL     1     -35.075   0.571 -15.034  1.00  0.00     0.000 C 
BRANCH   4   5
HETATM    5  C   UNL     1     -34.806   0.491 -13.536  1.00  0.00     0.000 C 
BRANCH   5   6
HETATM    6  C   UNL     1     -35.454  -0.749 -12.937  1.00  0.00     0.000 C 
BRANCH   6   7
HETATM    7  C   UNL     1     -34.627  -1.273 -11.769  1.00  0.00     0.000 C 
BRANCH   7   8
HETATM    8  C   UNL     1     -34.834  -2.772 -11.599  1.00  0.00     0.000 C 
BRANCH   8   9
HETATM    9  C   UNL     1     -33.770  -3.559 -12.357  1.00  0.00     0.000 C 
BRANCH   9  10
HETATM   10  C   UNL     1     -33.147  -4.623 -11.460  1.00  0.00    -0.000 C 
BRANCH  10  11
HETATM   11  C   UNL     1     -34.169  -5.177 -10.471  1.00  0.00    -0.005 C 
HETATM   12  C   UNL     1     -34.281  -6.685 -10.589  1.00  0.00     0.005 C 
ENDBRANCH  10  11
ENDBRANCH   9  10
ENDBRANCH   8   9
ENDBRANCH   7   8
ENDBRANCH   6   7
ENDBRANCH   5   6
ENDBRANCH   4   5
ENDBRANCH   3   4
ENDBRANCH   2   3
ENDBRANCH   1   2
BRANCH   1  13
HETATM   13  O   UNL     1     -33.932  -3.335 -15.792  1.00  0.00    -0.389 OA
BRANCH  13  14
HETATM   14  C   UNL     1     -33.269  -4.351 -16.535  1.00  0.00     0.193 C 
BRANCH  14  15
HETATM   15  C   UNL     1     -32.209  -3.709 -17.415  1.00  0.00     0.193 C 
BRANCH  15  16
HETATM   16  O   UNL     1     -30.999  -4.448 -17.269  1.00  0.00    -0.387 OA
BRANCH  16  17
HETATM   17  C   UNL     1     -31.260  -5.817 -16.990  1.00  0.00     0.193 C 
BRANCH  17  18
HETATM   18  C   UNL     1     -30.039  -6.632 -17.389  1.00  0.00     0.193 C 
BRANCH  18  19
HETATM   19  O   UNL     1     -28.853  -5.968 -16.948  1.00  0.00    -0.387 OA
BRANCH  19  20
HETATM   20  C   UNL     1     -28.338  -6.580 -15.760  1.00  0.00     0.193 C 
BRANCH  20  21
HETATM   21  C   UNL     1     -26.830  -6.739 -15.907  1.00  0.00     0.190 C 
BRANCH  21  22
HETATM   22  O   UNL     1     -26.312  -5.782 -16.830  1.00  0.00    -0.399 OA
HETATM   23  H   UNL     1     -26.889  -5.000 -16.743  1.00  0.00     0.209 HD
ENDBRANCH  21  22
ENDBRANCH  20  21
ENDBRANCH  19  20
ENDBRANCH  18  19
ENDBRANCH  17  18
ENDBRANCH  16  17
ENDBRANCH  15  16
ENDBRANCH  14  15
ENDBRANCH  13  14
ENDBRANCH   1  13
TORSDOF 20
ENDMDL
MODEL 9
REMARK VINA RESULT:      -5.4     13.901     16.430
REMARK  20 active torsions:
REMARK  status: ('A' for Active; 'I' for Inactive)
REMARK    1  A    between atoms: C_2  and  C_3 
REMARK    2  A    between atoms: C_3  and  C_4 
REMARK    3  A    between atoms: C_4  and  C_5 
REMARK    4  A    between atoms: C_5  and  C_6 
REMARK    5  A    between atoms: C_6  and  C_7 
REMARK    6  A    between atoms: C_7  and  C_8 
REMARK    7  A    between atoms: C_8  and  C_9 
REMARK    8  A    between atoms: C_9  and  C_10 
REMARK    9  A    between atoms: C_10  and  C_11 
REMARK   10  A    between atoms: C_11  and  C_12 
REMARK   11  A    between atoms: C_12  and  O_13 
REMARK   12  A    between atoms: O_13  and  C_14 
REMARK   13  A    between atoms: C_14  and  C_15 
REMARK   14  A    between atoms: C_15  and  O_16 
REMARK   15  A    between atoms: O_16  and  C_17 
REMARK   16  A    between atoms: C_17  and  C_18 
REMARK   17  A    between atoms: C_18  and  O_19 
REMARK   18  A    between atoms: O_19  and  C_20 
REMARK   19  A    between atoms: C_20  and  C_21 
REMARK   20  A    between atoms: C_21  and  O_22 
ROOT
HETATM    1  C   UNL     1     -21.431  -6.045  -3.466  1.00  0.00     0.167 C 
ENDROOT
BRANCH   1   2
HETATM    2  C   UNL     1     -21.468  -7.440  -2.860  1.00  0.00     0.026 C 
BRANCH   2   3
HETATM    3  C   UNL     1     -21.224  -7.387  -1.353  1.00  0.00     0.002 C 
BRANCH   3   4
HETATM    4  C   UNL     1     -22.502  -7.049  -0.598  1.00  0.00     0.000 C 
BRANCH   4   5
HETATM    5  C   UNL     1     -22.786  -8.111   0.458  1.00  0.00     0.000 C 
BRANCH   5   6
HETATM    6  C   UNL     1     -21.623  -9.087   0.568  1.00  0.00     0.000 C 
BRANCH   6   7
HETATM    7  C   UNL     1     -22.026 -10.461   0.050  1.00  0.00     0.000 C 
BRANCH   7   8
HETATM    8  C   UNL     1     -23.535 -10.539  -0.136  1.00  0.00     0.000 C 
BRANCH   8   9
HETATM    9  C   UNL     1     -23.981 -11.976  -0.387  1.00  0.00     0.000 C 
BRANCH   9  10
HETATM   10  C   UNL     1     -22.775 -12.906  -0.476  1.00  0.00    -0.000 C 
BRANCH  10  11
HETATM   11  C   UNL     1     -22.933 -14.103   0.457  1.00  0.00    -0.005 C 
HETATM   12  C   UNL     1     -23.381 -13.662   1.838  1.00  0.00     0.005 C 
ENDBRANCH  10  11
ENDBRANCH   9  10
ENDBRANCH   8   9
ENDBRANCH   7   8
ENDBRANCH   6   7
ENDBRANCH   5   6
ENDBRANCH   4   5
ENDBRANCH   3   4
ENDBRANCH   2   3
ENDBRANCH   1   2
BRANCH   1  13
HETATM   13  O   UNL     1     -20.750  -6.117  -4.716  1.00  0.00    -0.389 OA
BRANCH  13  14
HETATM   14  C   UNL     1     -21.631  -6.464  -5.777  1.00  0.00     0.193 C 
BRANCH  14  15
HETATM   15  C   UNL     1     -21.039  -5.982  -7.091  1.00  0.00     0.193 C 
BRANCH  15  16
HETATM   16  O   UNL     1     -21.171  -4.564  -7.149  1.00  0.00    -0.387 OA
BRANCH  16  17
HETATM   17  C   UNL     1     -22.344  -4.183  -7.856  1.00  0.00     0.193 C 
BRANCH  17  18
HETATM   18  C   UNL     1     -22.080  -4.333  -9.346  1.00  0.00     0.193 C 
BRANCH  18  19
HETATM   19  O   UNL     1     -23.184  -4.996  -9.966  1.00  0.00    -0.387 OA
BRANCH  19  20
HETATM   20  C   UNL     1     -23.377  -4.523 -11.304  1.00  0.00     0.193 C 
BRANCH  20  21
HETATM   21  C   UNL     1     -22.311  -3.479 -11.612  1.00  0.00     0.190 C 
BRANCH  21  22
HETATM   22  O   UNL     1     -21.758  -3.694 -12.910  1.00  0.00    -0.399 OA
HETATM   23  H   UNL     1     -21.183  -2.924 -13.077  1.00  0.00     0.209 HD
ENDBRANCH  21  22
ENDBRANCH  20  21
ENDBRANCH  19  20
ENDBRANCH  18  19
ENDBRANCH  17  18
ENDBRANCH  16  17
ENDBRANCH  15  16
ENDBRANCH  14  15
ENDBRANCH  13  14
ENDBRANCH   1  13
TORSDOF 20
ENDMDL
