MODEL 1
REMARK VINA RESULT:      -6.3      0.000      0.000
REMARK  16 active torsions:
REMARK  status: ('A' for Active; 'I' for Inactive)
REMARK    1  A    between atoms: C_2  and  C_3 
REMARK    2  A    between atoms: C_3  and  C_4 
REMARK    3  A    between atoms: C_4  and  C_5 
REMARK    4  A    between atoms: C_5  and  C_6 
REMARK    5  A    between atoms: C_6  and  C_7 
REMARK    6  A    between atoms: C_7  and  C_8 
REMARK    7  A    between atoms: C_8  and  C_9 
REMARK    8  A    between atoms: C_9  and  C_10 
REMARK    9  A    between atoms: C_10  and  C_11 
REMARK   10  A    between atoms: C_11  and  C_12 
REMARK       I    between atoms: C_12  and  N_14 
REMARK   11  A    between atoms: N_14  and  C_15 
REMARK   12  A    between atoms: N_14  and  C_19 
REMARK   13  A    between atoms: C_15  and  C_16 
REMARK   14  A    between atoms: C_16  and  O_18 
REMARK   15  A    between atoms: C_19  and  C_20 
REMARK   16  A    between atoms: C_20  and  O_22 
ROOT
HETATM    1  C   UNL     1     -22.291  -5.466  -5.856  1.00  0.00     0.219 C 
HETATM    2  O   UNL     1     -23.307  -6.060  -5.485  1.00  0.00    -0.273 OA
HETATM    3  N   UNL     1     -22.302  -4.632  -6.970  1.00  0.00    -0.347 N 
ENDROOT
BRANCH   1   4
HETATM    4  C   UNL     1     -21.020  -5.614  -5.051  1.00  0.00     0.103 C 
BRANCH   4   5
HETATM    5  C   UNL     1     -21.069  -6.823  -4.121  1.00  0.00     0.009 C 
BRANCH   5   6
HETATM    6  C   UNL     1     -21.484  -6.385  -2.714  1.00  0.00     0.000 C 
BRANCH   6   7
HETATM    7  C   UNL     1     -21.767  -7.547  -1.765  1.00  0.00     0.000 C 
BRANCH   7   8
HETATM    8  C   UNL     1     -22.382  -7.100  -0.440  1.00  0.00     0.000 C 
BRANCH   8   9
HETATM    9  C   UNL     1     -22.994  -8.289   0.292  1.00  0.00     0.000 C 
BRANCH   9  10
HETATM   10  C   UNL     1     -22.780  -9.581  -0.488  1.00  0.00     0.000 C 
BRANCH  10  11
HETATM   11  C   UNL     1     -23.819 -10.622  -0.085  1.00  0.00     0.000 C 
BRANCH  11  12
HETATM   12  C   UNL     1     -23.283 -12.035  -0.283  1.00  0.00    -0.000 C 
BRANCH  12  13
HETATM   13  C   UNL     1     -23.411 -12.853   0.998  1.00  0.00    -0.005 C 
HETATM   14  C   UNL     1     -22.065 -13.407   1.428  1.00  0.00     0.005 C 
ENDBRANCH  12  13
ENDBRANCH  11  12
ENDBRANCH  10  11
ENDBRANCH   9  10
ENDBRANCH   8   9
ENDBRANCH   7   8
ENDBRANCH   6   7
ENDBRANCH   5   6
ENDBRANCH   4   5
ENDBRANCH   1   4
BRANCH   3  15
HETATM   15  C   UNL     1     -21.140  -3.911  -7.516  1.00  0.00     0.157 C 
BRANCH  15  16
HETATM   16  C   UNL     1     -20.078  -4.763  -8.246  1.00  0.00     0.132 C 
HETATM   17  C   UNL     1     -19.979  -4.537  -9.750  1.00  0.00     0.041 C 
BRANCH  16  18
HETATM   18  O   UNL     1     -18.793  -4.475  -7.674  1.00  0.00    -0.394 OA
HETATM   19  H   UNL     1     -18.106  -4.817  -8.273  1.00  0.00     0.210 HD
ENDBRANCH  16  18
ENDBRANCH  15  16
ENDBRANCH   3  15
BRANCH   3  20
HETATM   20  C   UNL     1     -23.588  -4.441  -7.636  1.00  0.00     0.157 C 
BRANCH  20  21
HETATM   21  C   UNL     1     -23.506  -3.820  -9.053  1.00  0.00     0.132 C 
HETATM   22  C   UNL     1     -23.571  -4.850 -10.177  1.00  0.00     0.041 C 
BRANCH  21  23
HETATM   23  O   UNL     1     -24.583  -2.896  -9.226  1.00  0.00    -0.394 OA
HETATM   24  H   UNL     1     -24.308  -2.218  -9.867  1.00  0.00     0.210 HD
ENDBRANCH  21  23
ENDBRANCH  20  21
ENDBRANCH   3  20
TORSDOF 16
ENDMDL
MODEL 2
REMARK VINA RESULT:      -6.3      3.285      9.672
REMARK  16 active torsions:
REMARK  status: ('A' for Active; 'I' for Inactive)
REMARK    1  A    between atoms: C_2  and  C_3 
REMARK    2  A    between atoms: C_3  and  C_4 
REMARK    3  A    between atoms: C_4  and  C_5 
REMARK    4  A    between atoms: C_5  and  C_6 
REMARK    5  A    between atoms: C_6  and  C_7 
REMARK    6  A    between atoms: C_7  and  C_8 
REMARK    7  A    between atoms: C_8  and  C_9 
REMARK    8  A    between atoms: C_9  and  C_10 
REMARK    9  A    between atoms: C_10  and  C_11 
REMARK   10  A    between atoms: C_11  and  C_12 
REMARK       I    between atoms: C_12  and  N_14 
REMARK   11  A    between atoms: N_14  and  C_15 
REMARK   12  A    between atoms: N_14  and  C_19 
REMARK   13  A    between atoms: C_15  and  C_16 
REMARK   14  A    between atoms: C_16  and  O_18 
REMARK   15  A    between atoms: C_19  and  C_20 
REMARK   16  A    between atoms: C_20  and  O_22 
ROOT
HETATM    1  C   UNL     1     -21.137  -7.371  -3.613  1.00  0.00     0.219 C 
HETATM    2  O   UNL     1     -21.099  -6.195  -3.240  1.00  0.00    -0.273 OA
HETATM    3  N   UNL     1     -20.956  -8.423  -2.720  1.00  0.00    -0.347 N 
ENDROOT
BRANCH   1   4
HETATM    4  C   UNL     1     -21.432  -7.670  -5.065  1.00  0.00     0.103 C 
BRANCH   4   5
HETATM    5  C   UNL     1     -21.489  -6.402  -5.911  1.00  0.00     0.009 C 
BRANCH   5   6
HETATM    6  C   UNL     1     -20.154  -6.193  -6.632  1.00  0.00     0.000 C 
BRANCH   6   7
HETATM    7  C   UNL     1     -19.653  -4.752  -6.596  1.00  0.00     0.000 C 
BRANCH   7   8
HETATM    8  C   UNL     1     -20.246  -3.886  -7.707  1.00  0.00     0.000 C 
BRANCH   8   9
HETATM    9  C   UNL     1     -20.278  -4.656  -9.023  1.00  0.00     0.000 C 
BRANCH   9  10
HETATM   10  C   UNL     1     -21.577  -4.397  -9.777  1.00  0.00     0.000 C 
BRANCH  10  11
HETATM   11  C   UNL     1     -21.295  -4.179 -11.259  1.00  0.00     0.000 C 
BRANCH  11  12
HETATM   12  C   UNL     1     -21.840  -2.834 -11.728  1.00  0.00    -0.000 C 
BRANCH  12  13
HETATM   13  C   UNL     1     -22.915  -3.022 -12.794  1.00  0.00    -0.005 C 
HETATM   14  C   UNL     1     -24.296  -3.092 -12.169  1.00  0.00     0.005 C 
ENDBRANCH  12  13
ENDBRANCH  11  12
ENDBRANCH  10  11
ENDBRANCH   9  10
ENDBRANCH   8   9
ENDBRANCH   7   8
ENDBRANCH   6   7
ENDBRANCH   5   6
ENDBRANCH   4   5
ENDBRANCH   1   4
BRANCH   3  15
HETATM   15  C   UNL     1     -20.945  -9.853  -3.068  1.00  0.00     0.157 C 
BRANCH  15  16
HETATM   16  C   UNL     1     -22.320 -10.548  -3.187  1.00  0.00     0.132 C 
HETATM   17  C   UNL     1     -22.403 -11.663  -4.222  1.00  0.00     0.041 C 
BRANCH  16  18
HETATM   18  O   UNL     1     -22.659 -11.107  -1.910  1.00  0.00    -0.394 OA
HETATM   19  H   UNL     1     -23.130 -11.947  -2.056  1.00  0.00     0.210 HD
ENDBRANCH  16  18
ENDBRANCH  15  16
ENDBRANCH   3  15
BRANCH   3  20
HETATM   20  C   UNL     1     -20.790  -8.070  -1.313  1.00  0.00     0.157 C 
BRANCH  20  21
HETATM   21  C   UNL     1     -22.106  -7.990  -0.498  1.00  0.00     0.132 C 
HETATM   22  C   UNL     1     -21.896  -8.070   1.011  1.00  0.00     0.041 C 
BRANCH  21  23
HETATM   23  O   UNL     1     -22.771  -6.760  -0.796  1.00  0.00    -0.394 OA
HETATM   24  H   UNL     1     -22.368  -6.377  -1.594  1.00  0.00     0.210 HD
ENDBRANCH  21  23
ENDBRANCH  20  21
ENDBRANCH   3  20
TORSDOF 16
ENDMDL
MODEL 3
REMARK VINA RESULT:      -6.2      3.302      9.074
REMARK  16 active torsions:
REMARK  status: ('A' for Active; 'I' for Inactive)
REMARK    1  A    between atoms: C_2  and  C_3 
REMARK    2  A    between atoms: C_3  and  C_4 
REMARK    3  A    between atoms: C_4  and  C_5 
REMARK    4  A    between atoms: C_5  and  C_6 
REMARK    5  A    between atoms: C_6  and  C_7 
REMARK    6  A    between atoms: C_7  and  C_8 
REMARK    7  A    between atoms: C_8  and  C_9 
REMARK    8  A    between atoms: C_9  and  C_10 
REMARK    9  A    between atoms: C_10  and  C_11 
REMARK   10  A    between atoms: C_11  and  C_12 
REMARK       I    between atoms: C_12  and  N_14 
REMARK   11  A    between atoms: N_14  and  C_15 
REMARK   12  A    between atoms: N_14  and  C_19 
REMARK   13  A    between atoms: C_15  and  C_16 
REMARK   14  A    between atoms: C_16  and  O_18 
REMARK   15  A    between atoms: C_19  and  C_20 
REMARK   16  A    between atoms: C_20  and  O_22 
ROOT
HETATM    1  C   UNL     1     -21.633  -6.744  -2.031  1.00  0.00     0.219 C 
HETATM    2  O   UNL     1     -22.544  -6.217  -1.386  1.00  0.00    -0.273 OA
HETATM    3  N   UNL     1     -20.953  -7.858  -1.549  1.00  0.00    -0.347 N 
ENDROOT
BRANCH   1   4
HETATM    4  C   UNL     1     -21.286  -6.193  -3.394  1.00  0.00     0.103 C 
BRANCH   4   5
HETATM    5  C   UNL     1     -22.219  -6.720  -4.481  1.00  0.00     0.009 C 
BRANCH   5   6
HETATM    6  C   UNL     1     -21.421  -7.522  -5.513  1.00  0.00     0.000 C 
BRANCH   6   7
HETATM    7  C   UNL     1     -20.352  -6.706  -6.235  1.00  0.00     0.000 C 
BRANCH   7   8
HETATM    8  C   UNL     1     -20.931  -5.546  -7.044  1.00  0.00     0.000 C 
BRANCH   8   9
HETATM    9  C   UNL     1     -19.815  -4.763  -7.727  1.00  0.00     0.000 C 
BRANCH   9  10
HETATM   10  C   UNL     1     -20.360  -3.918  -8.872  1.00  0.00     0.000 C 
BRANCH  10  11
HETATM   11  C   UNL     1     -20.112  -4.612 -10.208  1.00  0.00     0.000 C 
BRANCH  11  12
HETATM   12  C   UNL     1     -21.293  -4.419 -11.152  1.00  0.00    -0.000 C 
BRANCH  12  13
HETATM   13  C   UNL     1     -22.518  -3.908 -10.399  1.00  0.00    -0.005 C 
HETATM   14  C   UNL     1     -23.653  -4.913 -10.458  1.00  0.00     0.005 C 
ENDBRANCH  12  13
ENDBRANCH  11  12
ENDBRANCH  10  11
ENDBRANCH   9  10
ENDBRANCH   8   9
ENDBRANCH   7   8
ENDBRANCH   6   7
ENDBRANCH   5   6
ENDBRANCH   4   5
ENDBRANCH   1   4
BRANCH   3  15
HETATM   15  C   UNL     1     -19.832  -8.537  -2.220  1.00  0.00     0.157 C 
BRANCH  15  16
HETATM   16  C   UNL     1     -20.037 -10.026  -2.576  1.00  0.00     0.132 C 
HETATM   17  C   UNL     1     -19.746 -10.400  -4.024  1.00  0.00     0.041 C 
BRANCH  16  18
HETATM   18  O   UNL     1     -19.180 -10.816  -1.738  1.00  0.00    -0.394 OA
HETATM   19  H   UNL     1     -18.255 -10.599  -1.952  1.00  0.00     0.210 HD
ENDBRANCH  16  18
ENDBRANCH  15  16
ENDBRANCH   3  15
BRANCH   3  20
HETATM   20  C   UNL     1     -21.414  -8.412  -0.279  1.00  0.00     0.157 C 
BRANCH  20  21
HETATM   21  C   UNL     1     -22.826  -9.050  -0.317  1.00  0.00     0.132 C 
HETATM   22  C   UNL     1     -22.834 -10.540   0.013  1.00  0.00     0.041 C 
BRANCH  21  23
HETATM   23  O   UNL     1     -23.672  -8.377   0.619  1.00  0.00    -0.394 OA
HETATM   24  H   UNL     1     -23.121  -7.800   1.174  1.00  0.00     0.210 HD
ENDBRANCH  21  23
ENDBRANCH  20  21
ENDBRANCH   3  20
TORSDOF 16
ENDMDL
MODEL 4
REMARK VINA RESULT:      -6.1      3.384      9.515
REMARK  16 active torsions:
REMARK  status: ('A' for Active; 'I' for Inactive)
REMARK    1  A    between atoms: C_2  and  C_3 
REMARK    2  A    between atoms: C_3  and  C_4 
REMARK    3  A    between atoms: C_4  and  C_5 
REMARK    4  A    between atoms: C_5  and  C_6 
REMARK    5  A    between atoms: C_6  and  C_7 
REMARK    6  A    between atoms: C_7  and  C_8 
REMARK    7  A    between atoms: C_8  and  C_9 
REMARK    8  A    between atoms: C_9  and  C_10 
REMARK    9  A    between atoms: C_10  and  C_11 
REMARK   10  A    between atoms: C_11  and  C_12 
REMARK       I    between atoms: C_12  and  N_14 
REMARK   11  A    between atoms: N_14  and  C_15 
REMARK   12  A    between atoms: N_14  and  C_19 
REMARK   13  A    between atoms: C_15  and  C_16 
REMARK   14  A    between atoms: C_16  and  O_18 
REMARK   15  A    between atoms: C_19  and  C_20 
REMARK   16  A    between atoms: C_20  and  O_22 
ROOT
HETATM    1  C   UNL     1     -21.098  -8.311  -4.665  1.00  0.00     0.219 C 
HETATM    2  O   UNL     1     -20.892  -9.158  -5.539  1.00  0.00    -0.273 OA
HETATM    3  N   UNL     1     -20.534  -8.422  -3.398  1.00  0.00    -0.347 N 
ENDROOT
BRANCH   1   4
HETATM    4  C   UNL     1     -21.945  -7.104  -4.999  1.00  0.00     0.103 C 
BRANCH   4   5
HETATM    5  C   UNL     1     -21.136  -5.810  -4.964  1.00  0.00     0.009 C 
BRANCH   5   6
HETATM    6  C   UNL     1     -20.392  -5.622  -6.290  1.00  0.00     0.000 C 
BRANCH   6   7
HETATM    7  C   UNL     1     -20.449  -4.195  -6.829  1.00  0.00     0.000 C 
BRANCH   7   8
HETATM    8  C   UNL     1     -21.697  -3.922  -7.668  1.00  0.00     0.000 C 
BRANCH   8   9
HETATM    9  C   UNL     1     -21.742  -4.855  -8.874  1.00  0.00     0.000 C 
BRANCH   9  10
HETATM   10  C   UNL     1     -20.869  -4.329 -10.006  1.00  0.00     0.000 C 
BRANCH  10  11
HETATM   11  C   UNL     1     -21.637  -4.351 -11.323  1.00  0.00     0.000 C 
BRANCH  11  12
HETATM   12  C   UNL     1     -21.911  -2.937 -11.821  1.00  0.00    -0.000 C 
BRANCH  12  13
HETATM   13  C   UNL     1     -23.380  -2.765 -12.196  1.00  0.00    -0.005 C 
HETATM   14  C   UNL     1     -24.288  -3.322 -11.115  1.00  0.00     0.005 C 
ENDBRANCH  12  13
ENDBRANCH  11  12
ENDBRANCH  10  11
ENDBRANCH   9  10
ENDBRANCH   8   9
ENDBRANCH   7   8
ENDBRANCH   6   7
ENDBRANCH   5   6
ENDBRANCH   4   5
ENDBRANCH   1   4
BRANCH   3  15
HETATM   15  C   UNL     1     -20.746  -7.491  -2.278  1.00  0.00     0.157 C 
BRANCH  15  16
HETATM   16  C   UNL     1     -21.833  -7.880  -1.251  1.00  0.00     0.132 C 
HETATM   17  C   UNL     1     -21.318  -8.465   0.058  1.00  0.00     0.041 C 
BRANCH  16  18
HETATM   18  O   UNL     1     -22.600  -6.708  -0.935  1.00  0.00    -0.394 OA
HETATM   19  H   UNL     1     -23.356  -6.661  -1.548  1.00  0.00     0.210 HD
ENDBRANCH  16  18
ENDBRANCH  15  16
ENDBRANCH   3  15
BRANCH   3  20
HETATM   20  C   UNL     1     -19.634  -9.551  -3.176  1.00  0.00     0.157 C 
BRANCH  20  21
HETATM   21  C   UNL     1     -18.141  -9.266  -3.476  1.00  0.00     0.132 C 
HETATM   22  C   UNL     1     -17.178 -10.022  -2.565  1.00  0.00     0.041 C 
BRANCH  21  23
HETATM   23  O   UNL     1     -17.855  -9.626  -4.830  1.00  0.00    -0.394 OA
HETATM   24  H   UNL     1     -17.812  -8.813  -5.362  1.00  0.00     0.210 HD
ENDBRANCH  21  23
ENDBRANCH  20  21
ENDBRANCH   3  20
TORSDOF 16
ENDMDL
MODEL 5
REMARK VINA RESULT:      -6.1      3.138      9.034
REMARK  16 active torsions:
REMARK  status: ('A' for Active; 'I' for Inactive)
REMARK    1  A    between atoms: C_2  and  C_3 
REMARK    2  A    between atoms: C_3  and  C_4 
REMARK    3  A    between atoms: C_4  and  C_5 
REMARK    4  A    between atoms: C_5  and  C_6 
REMARK    5  A    between atoms: C_6  and  C_7 
REMARK    6  A    between atoms: C_7  and  C_8 
REMARK    7  A    between atoms: C_8  and  C_9 
REMARK    8  A    between atoms: C_9  and  C_10 
REMARK    9  A    between atoms: C_10  and  C_11 
REMARK   10  A    between atoms: C_11  and  C_12 
REMARK       I    between atoms: C_12  and  N_14 
REMARK   11  A    between atoms: N_14  and  C_15 
REMARK   12  A    between atoms: N_14  and  C_19 
REMARK   13  A    between atoms: C_15  and  C_16 
REMARK   14  A    between atoms: C_16  and  O_18 
REMARK   15  A    between atoms: C_19  and  C_20 
REMARK   16  A    between atoms: C_20  and  O_22 
ROOT
HETATM    1  C   UNL     1     -21.469  -6.528  -3.720  1.00  0.00     0.219 C 
HETATM    2  O   UNL     1     -22.473  -6.081  -3.156  1.00  0.00    -0.273 OA
HETATM    3  N   UNL     1     -20.945  -7.774  -3.391  1.00  0.00    -0.347 N 
ENDROOT
BRANCH   1   4
HETATM    4  C   UNL     1     -20.828  -5.719  -4.824  1.00  0.00     0.103 C 
BRANCH   4   5
HETATM    5  C   UNL     1     -21.769  -5.521  -6.009  1.00  0.00     0.009 C 
BRANCH   5   6
HETATM    6  C   UNL     1     -21.093  -5.996  -7.299  1.00  0.00     0.000 C 
BRANCH   6   7
HETATM    7  C   UNL     1     -19.810  -5.241  -7.637  1.00  0.00     0.000 C 
BRANCH   7   8
HETATM    8  C   UNL     1     -20.047  -4.042  -8.554  1.00  0.00     0.000 C 
BRANCH   8   9
HETATM    9  C   UNL     1     -20.042  -4.479 -10.015  1.00  0.00     0.000 C 
BRANCH   9  10
HETATM   10  C   UNL     1     -20.828  -3.503 -10.881  1.00  0.00     0.000 C 
BRANCH  10  11
HETATM   11  C   UNL     1     -21.732  -4.262 -11.848  1.00  0.00     0.000 C 
BRANCH  11  12
HETATM   12  C   UNL     1     -23.061  -4.617 -11.191  1.00  0.00    -0.000 C 
BRANCH  12  13
HETATM   13  C   UNL     1     -23.555  -3.476 -10.307  1.00  0.00    -0.005 C 
HETATM   14  C   UNL     1     -23.819  -3.958  -8.892  1.00  0.00     0.005 C 
ENDBRANCH  12  13
ENDBRANCH  11  12
ENDBRANCH  10  11
ENDBRANCH   9  10
ENDBRANCH   8   9
ENDBRANCH   7   8
ENDBRANCH   6   7
ENDBRANCH   5   6
ENDBRANCH   4   5
ENDBRANCH   1   4
BRANCH   3  15
HETATM   15  C   UNL     1     -19.737  -8.380  -3.975  1.00  0.00     0.157 C 
BRANCH  15  16
HETATM   16  C   UNL     1     -19.958  -9.468  -5.049  1.00  0.00     0.132 C 
HETATM   17  C   UNL     1     -20.088 -10.891  -4.522  1.00  0.00     0.041 C 
BRANCH  16  18
HETATM   18  O   UNL     1     -21.158  -9.155  -5.772  1.00  0.00    -0.394 OA
HETATM   19  H   UNL     1     -20.947  -8.481  -6.442  1.00  0.00     0.210 HD
ENDBRANCH  16  18
ENDBRANCH  15  16
ENDBRANCH   3  15
BRANCH   3  20
HETATM   20  C   UNL     1     -21.678  -8.555  -2.398  1.00  0.00     0.157 C 
BRANCH  20  21
HETATM   21  C   UNL     1     -21.194  -8.377  -0.937  1.00  0.00     0.132 C 
HETATM   22  C   UNL     1     -22.248  -7.777  -0.012  1.00  0.00     0.041 C 
BRANCH  21  23
HETATM   23  O   UNL     1     -20.804  -9.648  -0.412  1.00  0.00    -0.394 OA
HETATM   24  H   UNL     1     -21.089 -10.340  -1.034  1.00  0.00     0.210 HD
ENDBRANCH  21  23
ENDBRANCH  20  21
ENDBRANCH   3  20
TORSDOF 16
ENDMDL
MODEL 6
REMARK VINA RESULT:      -6.1      3.126      9.495
REMARK  16 active torsions:
REMARK  status: ('A' for Active; 'I' for Inactive)
REMARK    1  A    between atoms: C_2  and  C_3 
REMARK    2  A    between atoms: C_3  and  C_4 
REMARK    3  A    between atoms: C_4  and  C_5 
REMARK    4  A    between atoms: C_5  and  C_6 
REMARK    5  A    between atoms: C_6  and  C_7 
REMARK    6  A    between atoms: C_7  and  C_8 
REMARK    7  A    between atoms: C_8  and  C_9 
REMARK    8  A    between atoms: C_9  and  C_10 
REMARK    9  A    between atoms: C_10  and  C_11 
REMARK   10  A    between atoms: C_11  and  C_12 
REMARK       I    between atoms: C_12  and  N_14 
REMARK   11  A    between atoms: N_14  and  C_15 
REMARK   12  A    between atoms: N_14  and  C_19 
REMARK   13  A    between atoms: C_15  and  C_16 
REMARK   14  A    between atoms: C_16  and  O_18 
REMARK   15  A    between atoms: C_19  and  C_20 
REMARK   16  A    between atoms: C_20  and  O_22 
ROOT
HETATM    1  C   UNL     1     -20.641  -8.409  -3.812  1.00  0.00     0.219 C 
HETATM    2  O   UNL     1     -20.452  -9.236  -4.709  1.00  0.00    -0.273 OA
HETATM    3  N   UNL     1     -20.550  -8.760  -2.468  1.00  0.00    -0.347 N 
ENDROOT
BRANCH   1   4
HETATM    4  C   UNL     1     -20.929  -6.974  -4.187  1.00  0.00     0.103 C 
BRANCH   4   5
HETATM    5  C   UNL     1     -21.370  -6.839  -5.642  1.00  0.00     0.009 C 
BRANCH   5   6
HETATM    6  C   UNL     1     -21.137  -5.406  -6.130  1.00  0.00     0.000 C 
BRANCH   6   7
HETATM    7  C   UNL     1     -21.468  -5.196  -7.605  1.00  0.00     0.000 C 
BRANCH   7   8
HETATM    8  C   UNL     1     -20.225  -5.107  -8.489  1.00  0.00     0.000 C 
BRANCH   8   9
HETATM    9  C   UNL     1     -20.319  -3.903  -9.420  1.00  0.00     0.000 C 
BRANCH   9  10
HETATM   10  C   UNL     1     -20.660  -4.335 -10.841  1.00  0.00     0.000 C 
BRANCH  10  11
HETATM   11  C   UNL     1     -21.901  -3.600 -11.336  1.00  0.00     0.000 C 
BRANCH  11  12
HETATM   12  C   UNL     1     -23.040  -4.575 -11.614  1.00  0.00    -0.000 C 
BRANCH  12  13
HETATM   13  C   UNL     1     -23.881  -4.804 -10.362  1.00  0.00    -0.005 C 
HETATM   14  C   UNL     1     -24.336  -3.487  -9.762  1.00  0.00     0.005 C 
ENDBRANCH  12  13
ENDBRANCH  11  12
ENDBRANCH  10  11
ENDBRANCH   9  10
ENDBRANCH   8   9
ENDBRANCH   7   8
ENDBRANCH   6   7
ENDBRANCH   5   6
ENDBRANCH   4   5
ENDBRANCH   1   4
BRANCH   3  15
HETATM   15  C   UNL     1     -20.792  -7.863  -1.327  1.00  0.00     0.157 C 
BRANCH  15  16
HETATM   16  C   UNL     1     -22.269  -7.594  -0.959  1.00  0.00     0.132 C 
HETATM   17  C   UNL     1     -22.656  -7.924   0.477  1.00  0.00     0.041 C 
BRANCH  16  18
HETATM   18  O   UNL     1     -22.546  -6.203  -1.180  1.00  0.00    -0.394 OA
HETATM   19  H   UNL     1     -21.973  -5.678  -0.593  1.00  0.00     0.210 HD
ENDBRANCH  16  18
ENDBRANCH  15  16
ENDBRANCH   3  15
BRANCH   3  20
HETATM   20  C   UNL     1     -20.155 -10.135  -2.174  1.00  0.00     0.157 C 
BRANCH  20  21
HETATM   21  C   UNL     1     -21.329 -11.126  -1.974  1.00  0.00     0.132 C 
HETATM   22  C   UNL     1     -21.706 -11.342  -0.511  1.00  0.00     0.041 C 
BRANCH  21  23
HETATM   23  O   UNL     1     -22.481 -10.638  -2.668  1.00  0.00    -0.394 OA
HETATM   24  H   UNL     1     -22.895  -9.945  -2.128  1.00  0.00     0.210 HD
ENDBRANCH  21  23
ENDBRANCH  20  21
ENDBRANCH   3  20
TORSDOF 16
ENDMDL
MODEL 7
REMARK VINA RESULT:      -6.0      1.253      2.427
REMARK  16 active torsions:
REMARK  status: ('A' for Active; 'I' for Inactive)
REMARK    1  A    between atoms: C_2  and  C_3 
REMARK    2  A    between atoms: C_3  and  C_4 
REMARK    3  A    between atoms: C_4  and  C_5 
REMARK    4  A    between atoms: C_5  and  C_6 
REMARK    5  A    between atoms: C_6  and  C_7 
REMARK    6  A    between atoms: C_7  and  C_8 
REMARK    7  A    between atoms: C_8  and  C_9 
REMARK    8  A    between atoms: C_9  and  C_10 
REMARK    9  A    between atoms: C_10  and  C_11 
REMARK   10  A    between atoms: C_11  and  C_12 
REMARK       I    between atoms: C_12  and  N_14 
REMARK   11  A    between atoms: N_14  and  C_15 
REMARK   12  A    between atoms: N_14  and  C_19 
REMARK   13  A    between atoms: C_15  and  C_16 
REMARK   14  A    between atoms: C_16  and  O_18 
REMARK   15  A    between atoms: C_19  and  C_20 
REMARK   16  A    between atoms: C_20  and  O_22 
ROOT
HETATM    1  C   UNL     1     -22.269  -5.369  -6.062  1.00  0.00     0.219 C 
HETATM    2  O   UNL     1     -23.286  -5.928  -5.641  1.00  0.00    -0.273 OA
HETATM    3  N   UNL     1     -22.306  -4.527  -7.169  1.00  0.00    -0.347 N 
ENDROOT
BRANCH   1   4
HETATM    4  C   UNL     1     -20.964  -5.572  -5.325  1.00  0.00     0.103 C 
BRANCH   4   5
HETATM    5  C   UNL     1     -21.078  -6.639  -4.241  1.00  0.00     0.009 C 
BRANCH   5   6
HETATM    6  C   UNL     1     -20.202  -7.844  -4.597  1.00  0.00     0.000 C 
BRANCH   6   7
HETATM    7  C   UNL     1     -20.308  -8.998  -3.605  1.00  0.00     0.000 C 
BRANCH   7   8
HETATM    8  C   UNL     1     -21.705  -9.615  -3.555  1.00  0.00     0.000 C 
BRANCH   8   9
HETATM    9  C   UNL     1     -21.782 -10.672  -2.458  1.00  0.00     0.000 C 
BRANCH   9  10
HETATM   10  C   UNL     1     -20.945 -10.269  -1.250  1.00  0.00     0.000 C 
BRANCH  10  11
HETATM   11  C   UNL     1     -21.794 -10.295   0.016  1.00  0.00     0.000 C 
BRANCH  11  12
HETATM   12  C   UNL     1     -23.068  -9.477  -0.163  1.00  0.00    -0.000 C 
BRANCH  12  13
HETATM   13  C   UNL     1     -22.903  -8.074   0.413  1.00  0.00    -0.005 C 
HETATM   14  C   UNL     1     -22.395  -7.108  -0.642  1.00  0.00     0.005 C 
ENDBRANCH  12  13
ENDBRANCH  11  12
ENDBRANCH  10  11
ENDBRANCH   9  10
ENDBRANCH   8   9
ENDBRANCH   7   8
ENDBRANCH   6   7
ENDBRANCH   5   6
ENDBRANCH   4   5
ENDBRANCH   1   4
BRANCH   3  15
HETATM   15  C   UNL     1     -21.148  -3.846  -7.770  1.00  0.00     0.157 C 
BRANCH  15  16
HETATM   16  C   UNL     1     -20.112  -4.742  -8.484  1.00  0.00     0.132 C 
HETATM   17  C   UNL     1     -20.016  -4.559  -9.993  1.00  0.00     0.041 C 
BRANCH  16  18
HETATM   18  O   UNL     1     -18.817  -4.473  -7.925  1.00  0.00    -0.394 OA
HETATM   19  H   UNL     1     -18.629  -5.145  -7.246  1.00  0.00     0.210 HD
ENDBRANCH  16  18
ENDBRANCH  15  16
ENDBRANCH   3  15
BRANCH   3  20
HETATM   20  C   UNL     1     -23.617  -4.282  -7.764  1.00  0.00     0.157 C 
BRANCH  20  21
HETATM   21  C   UNL     1     -23.587  -3.763  -9.224  1.00  0.00     0.132 C 
HETATM   22  C   UNL     1     -23.775  -4.860 -10.268  1.00  0.00     0.041 C 
BRANCH  21  23
HETATM   23  O   UNL     1     -24.621  -2.791  -9.400  1.00  0.00    -0.394 OA
HETATM   24  H   UNL     1     -25.195  -2.807  -8.616  1.00  0.00     0.210 HD
ENDBRANCH  21  23
ENDBRANCH  20  21
ENDBRANCH   3  20
TORSDOF 16
ENDMDL
MODEL 8
REMARK VINA RESULT:      -6.0      1.781      2.607
REMARK  16 active torsions:
REMARK  status: ('A' for Active; 'I' for Inactive)
REMARK    1  A    between atoms: C_2  and  C_3 
REMARK    2  A    between atoms: C_3  and  C_4 
REMARK    3  A    between atoms: C_4  and  C_5 
REMARK    4  A    between atoms: C_5  and  C_6 
REMARK    5  A    between atoms: C_6  and  C_7 
REMARK    6  A    between atoms: C_7  and  C_8 
REMARK    7  A    between atoms: C_8  and  C_9 
REMARK    8  A    between atoms: C_9  and  C_10 
REMARK    9  A    between atoms: C_10  and  C_11 
REMARK   10  A    between atoms: C_11  and  C_12 
REMARK       I    between atoms: C_12  and  N_14 
REMARK   11  A    between atoms: N_14  and  C_15 
REMARK   12  A    between atoms: N_14  and  C_19 
REMARK   13  A    between atoms: C_15  and  C_16 
REMARK   14  A    between atoms: C_16  and  O_18 
REMARK   15  A    between atoms: C_19  and  C_20 
REMARK   16  A    between atoms: C_20  and  O_22 
ROOT
HETATM    1  C   UNL     1     -22.160  -4.783  -7.313  1.00  0.00     0.219 C 
HETATM    2  O   UNL     1     -23.063  -4.577  -6.497  1.00  0.00    -0.273 OA
HETATM    3  N   UNL     1     -22.209  -4.254  -8.599  1.00  0.00    -0.347 N 
ENDROOT
BRANCH   1   4
HETATM    4  C   UNL     1     -20.955  -5.589  -6.886  1.00  0.00     0.103 C 
BRANCH   4   5
HETATM    5  C   UNL     1     -20.992  -5.929  -5.399  1.00  0.00     0.009 C 
BRANCH   5   6
HETATM    6  C   UNL     1     -21.395  -7.394  -5.207  1.00  0.00     0.000 C 
BRANCH   6   7
HETATM    7  C   UNL     1     -21.727  -7.757  -3.762  1.00  0.00     0.000 C 
BRANCH   7   8
HETATM    8  C   UNL     1     -21.115  -6.791  -2.748  1.00  0.00     0.000 C 
BRANCH   8   9
HETATM    9  C   UNL     1     -22.167  -6.340  -1.740  1.00  0.00     0.000 C 
BRANCH   9  10
HETATM   10  C   UNL     1     -22.486  -7.451  -0.747  1.00  0.00     0.000 C 
BRANCH  10  11
HETATM   11  C   UNL     1     -21.201  -8.119  -0.268  1.00  0.00     0.000 C 
BRANCH  11  12
HETATM   12  C   UNL     1     -21.393  -9.623  -0.107  1.00  0.00    -0.000 C 
BRANCH  12  13
HETATM   13  C   UNL     1     -22.511 -10.132  -1.012  1.00  0.00    -0.005 C 
HETATM   14  C   UNL     1     -23.741 -10.502  -0.203  1.00  0.00     0.005 C 
ENDBRANCH  12  13
ENDBRANCH  11  12
ENDBRANCH  10  11
ENDBRANCH   9  10
ENDBRANCH   8   9
ENDBRANCH   7   8
ENDBRANCH   6   7
ENDBRANCH   5   6
ENDBRANCH   4   5
ENDBRANCH   1   4
BRANCH   3  15
HETATM   15  C   UNL     1     -21.207  -4.470  -9.656  1.00  0.00     0.157 C 
BRANCH  15  16
HETATM   16  C   UNL     1     -21.379  -3.644 -10.951  1.00  0.00     0.132 C 
HETATM   17  C   UNL     1     -20.232  -2.696 -11.280  1.00  0.00     0.041 C 
BRANCH  16  18
HETATM   18  O   UNL     1     -21.526  -4.553 -12.053  1.00  0.00    -0.394 OA
HETATM   19  H   UNL     1     -22.367  -4.355 -12.504  1.00  0.00     0.210 HD
ENDBRANCH  16  18
ENDBRANCH  15  16
ENDBRANCH   3  15
BRANCH   3  20
HETATM   20  C   UNL     1     -23.343  -3.388  -8.912  1.00  0.00     0.157 C 
BRANCH  20  21
HETATM   21  C   UNL     1     -24.308  -3.938  -9.992  1.00  0.00     0.132 C 
HETATM   22  C   UNL     1     -24.459  -5.456  -9.961  1.00  0.00     0.041 C 
BRANCH  21  23
HETATM   23  O   UNL     1     -25.600  -3.353  -9.812  1.00  0.00    -0.394 OA
HETATM   24  H   UNL     1     -25.565  -2.759  -9.043  1.00  0.00     0.210 HD
ENDBRANCH  21  23
ENDBRANCH  20  21
ENDBRANCH   3  20
TORSDOF 16
ENDMDL
MODEL 9
REMARK VINA RESULT:      -5.9      3.912      9.511
REMARK  16 active torsions:
REMARK  status: ('A' for Active; 'I' for Inactive)
REMARK    1  A    between atoms: C_2  and  C_3 
REMARK    2  A    between atoms: C_3  and  C_4 
REMARK    3  A    between atoms: C_4  and  C_5 
REMARK    4  A    between atoms: C_5  and  C_6 
REMARK    5  A    between atoms: C_6  and  C_7 
REMARK    6  A    between atoms: C_7  and  C_8 
REMARK    7  A    between atoms: C_8  and  C_9 
REMARK    8  A    between atoms: C_9  and  C_10 
REMARK    9  A    between atoms: C_10  and  C_11 
REMARK   10  A    between atoms: C_11  and  C_12 
REMARK       I    between atoms: C_12  and  N_14 
REMARK   11  A    between atoms: N_14  and  C_15 
REMARK   12  A    between atoms: N_14  and  C_19 
REMARK   13  A    between atoms: C_15  and  C_16 
REMARK   14  A    between atoms: C_16  and  O_18 
REMARK   15  A    between atoms: C_19  and  C_20 
REMARK   16  A    between atoms: C_20  and  O_22 
ROOT
HETATM    1  C   UNL     1     -20.167 -10.047  -1.606  1.00  0.00     0.219 C 
HETATM    2  O   UNL     1     -19.228 -10.819  -1.394  1.00  0.00    -0.273 OA
HETATM    3  N   UNL     1     -21.293 -10.029  -0.788  1.00  0.00    -0.347 N 
ENDROOT
BRANCH   1   4
HETATM    4  C   UNL     1     -20.066  -9.067  -2.753  1.00  0.00     0.103 C 
BRANCH   4   5
HETATM    5  C   UNL     1     -20.719  -9.602  -4.023  1.00  0.00     0.009 C 
BRANCH   5   6
HETATM    6  C   UNL     1     -21.370  -8.455  -4.801  1.00  0.00     0.000 C 
BRANCH   6   7
HETATM    7  C   UNL     1     -20.431  -7.281  -5.068  1.00  0.00     0.000 C 
BRANCH   7   8
HETATM    8  C   UNL     1     -21.104  -5.923  -4.880  1.00  0.00     0.000 C 
BRANCH   8   9
HETATM    9  C   UNL     1     -20.228  -4.811  -5.447  1.00  0.00     0.000 C 
BRANCH   9  10
HETATM   10  C   UNL     1     -19.843  -5.100  -6.892  1.00  0.00     0.000 C 
BRANCH  10  11
HETATM   11  C   UNL     1     -20.251  -3.939  -7.793  1.00  0.00     0.000 C 
BRANCH  11  12
HETATM   12  C   UNL     1     -21.768  -3.812  -7.868  1.00  0.00    -0.000 C 
BRANCH  12  13
HETATM   13  C   UNL     1     -22.323  -4.581  -9.063  1.00  0.00    -0.005 C 
HETATM   14  C   UNL     1     -21.776  -4.032 -10.367  1.00  0.00     0.005 C 
ENDBRANCH  12  13
ENDBRANCH  11  12
ENDBRANCH  10  11
ENDBRANCH   9  10
ENDBRANCH   8   9
ENDBRANCH   7   8
ENDBRANCH   6   7
ENDBRANCH   5   6
ENDBRANCH   4   5
ENDBRANCH   1   4
BRANCH   3  15
HETATM   15  C   UNL     1     -22.478  -9.177  -0.976  1.00  0.00     0.157 C 
BRANCH  15  16
HETATM   16  C   UNL     1     -22.439  -7.782  -0.313  1.00  0.00     0.132 C 
HETATM   17  C   UNL     1     -22.299  -6.606  -1.271  1.00  0.00     0.041 C 
BRANCH  16  18
HETATM   18  O   UNL     1     -23.652  -7.598   0.433  1.00  0.00    -0.394 OA
HETATM   19  H   UNL     1     -24.096  -6.797   0.105  1.00  0.00     0.210 HD
ENDBRANCH  16  18
ENDBRANCH  15  16
ENDBRANCH   3  15
BRANCH   3  20
HETATM   20  C   UNL     1     -21.278 -10.920   0.370  1.00  0.00     0.157 C 
BRANCH  20  21
HETATM   21  C   UNL     1     -21.987 -12.281   0.158  1.00  0.00     0.132 C 
HETATM   22  C   UNL     1     -21.270 -13.454   0.820  1.00  0.00     0.041 C 
BRANCH  21  23
HETATM   23  O   UNL     1     -23.314 -12.209   0.686  1.00  0.00    -0.394 OA
HETATM   24  H   UNL     1     -23.667 -11.320   0.511  1.00  0.00     0.210 HD
ENDBRANCH  21  23
ENDBRANCH  20  21
ENDBRANCH   3  20
TORSDOF 16
ENDMDL
