MODEL 1
REMARK VINA RESULT:      -7.4      0.000      0.000
REMARK WARNING: 32 MAX_TORS EXCEEDED!!!
REMARK  38 active torsions:
REMARK  status: ('A' for Active; 'I' for Inactive)
REMARK    1  A    between atoms: C_2  and  C_4 
REMARK    2  A    between atoms: C_4  and  C_5 
REMARK    3  A    between atoms: C_5  and  C_6 
REMARK    4  A    between atoms: C_6  and  C_7 
REMARK    5  A    between atoms: C_7  and  C_8 
REMARK    6  A    between atoms: C_8  and  C_9 
REMARK    7  A    between atoms: C_9  and  C_10 
REMARK    8  A    between atoms: C_10  and  C_11 
REMARK    9  A    between atoms: C_11  and  C_12 
REMARK   10  A    between atoms: C_12  and  C_13 
REMARK   11  A    between atoms: C_13  and  C_14 
REMARK   12  A    between atoms: C_14  and  C_15 
REMARK   13  A    between atoms: C_15  and  C_16 
REMARK   14  A    between atoms: C_16  and  C_17 
REMARK   15  A    between atoms: C_17  and  C_18 
REMARK   16  A    between atoms: C_18  and  O_19 
REMARK   17  A    between atoms: O_19  and  C_20 
REMARK   18  A    between atoms: C_20  and  C_22 
REMARK   19  A    between atoms: C_22  and  C_23 
REMARK   20  A    between atoms: C_23  and  C_24 
REMARK   21  A    between atoms: C_23  and  O_45 
REMARK   22  A    between atoms: C_24  and  O_26 
REMARK   23  A    between atoms: O_26  and  C_27 
REMARK   24  A    between atoms: C_27  and  C_28 
REMARK   25  A    between atoms: C_28  and  C_29 
REMARK   26  A    between atoms: C_29  and  C_30 
REMARK   27  A    between atoms: C_30  and  C_31 
REMARK   28  A    between atoms: C_31  and  C_32 
REMARK   29  A    between atoms: C_32  and  C_33 
REMARK   30  A    between atoms: C_33  and  C_34 
REMARK   31  A    between atoms: C_34  and  C_35 
REMARK   32  A    between atoms: C_35  and  C_36 
REMARK   33  A    between atoms: C_36  and  C_37 
REMARK   34  A    between atoms: C_37  and  C_38 
REMARK   35  A    between atoms: C_38  and  C_39 
REMARK   36  A    between atoms: C_39  and  C_40 
REMARK   37  A    between atoms: C_40  and  C_41 
REMARK   38  A    between atoms: C_41  and  C_42 
ROOT
HETATM    1  C   UNL     1     -26.448  -6.168 -16.839  1.00  0.00     0.226 C 
ENDROOT
BRANCH   1   2
HETATM    2  C   UNL     1     -27.818  -6.729 -16.481  1.00  0.00     0.153 C 
BRANCH   2   3
HETATM    3  C   UNL     1     -28.880  -6.481 -17.532  1.00  0.00     0.261 C 
HETATM    4  O   UNL     1     -28.694  -6.015 -18.643  1.00  0.00    -0.265 OA
BRANCH   3   5
HETATM    5  O   UNL     1     -30.101  -6.669 -16.959  1.00  0.00    -0.321 OA
BRANCH   5   6
HETATM    6  C   UNL     1     -30.589  -5.512 -16.280  1.00  0.00     0.178 C 
BRANCH   6   7
HETATM    7  C   UNL     1     -31.446  -4.630 -17.171  1.00  0.00     0.027 C 
BRANCH   7   8
HETATM    8  C   UNL     1     -32.756  -4.323 -16.450  1.00  0.00     0.002 C 
BRANCH   8   9
HETATM    9  C   UNL     1     -33.572  -3.281 -17.199  1.00  0.00     0.000 C 
BRANCH   9  10
HETATM   10  C   UNL     1     -34.707  -2.764 -16.325  1.00  0.00     0.000 C 
BRANCH  10  11
HETATM   11  C   UNL     1     -35.084  -1.350 -16.738  1.00  0.00     0.000 C 
BRANCH  11  12
HETATM   12  C   UNL     1     -36.341  -0.901 -16.010  1.00  0.00     0.000 C 
BRANCH  12  13
HETATM   13  C   UNL     1     -36.122   0.467 -15.386  1.00  0.00     0.000 C 
BRANCH  13  14
HETATM   14  C   UNL     1     -35.179   0.352 -14.201  1.00  0.00     0.000 C 
BRANCH  14  15
HETATM   15  C   UNL     1     -35.858  -0.393 -13.066  1.00  0.00     0.000 C 
BRANCH  15  16
HETATM   16  C   UNL     1     -34.967  -1.528 -12.593  1.00  0.00     0.000 C 
BRANCH  16  17
HETATM   17  C   UNL     1     -34.914  -1.550 -11.077  1.00  0.00     0.000 C 
BRANCH  17  18
HETATM   18  C   UNL     1     -33.722  -2.368 -10.605  1.00  0.00     0.000 C 
BRANCH  18  19
HETATM   19  C   UNL     1     -33.225  -3.237 -11.749  1.00  0.00     0.000 C 
BRANCH  19  20
HETATM   20  C   UNL     1     -33.012  -4.677 -11.296  1.00  0.00     0.004 C 
BRANCH  20  21
HETATM   21  C   UNL     1     -34.338  -5.428 -11.107  1.00  0.00    -0.023 C 
HETATM   22  C   UNL     1     -35.004  -5.640 -12.466  1.00  0.00     0.009 C 
HETATM   23  C   UNL     1     -34.147  -6.774 -10.404  1.00  0.00     0.009 C 
ENDBRANCH  20  21
ENDBRANCH  19  20
ENDBRANCH  18  19
ENDBRANCH  17  18
ENDBRANCH  16  17
ENDBRANCH  15  16
ENDBRANCH  14  15
ENDBRANCH  13  14
ENDBRANCH  12  13
ENDBRANCH  11  12
ENDBRANCH  10  11
ENDBRANCH   9  10
ENDBRANCH   8   9
ENDBRANCH   7   8
ENDBRANCH   6   7
ENDBRANCH   5   6
ENDBRANCH   3   5
ENDBRANCH   2   3
ENDBRANCH   1   2
BRANCH   1  24
HETATM   24  C   UNL     1     -25.439  -6.391 -15.733  1.00  0.00     0.288 C 
HETATM   25  O   UNL     1     -25.132  -7.490 -15.286  1.00  0.00    -0.262 OA
BRANCH  24  26
HETATM   26  O   UNL     1     -24.950  -5.188 -15.309  1.00  0.00    -0.319 OA
BRANCH  26  27
HETATM   27  C   UNL     1     -24.621  -5.074 -13.919  1.00  0.00     0.178 C 
BRANCH  27  28
HETATM   28  C   UNL     1     -23.758  -3.850 -13.657  1.00  0.00     0.027 C 
BRANCH  28  29
HETATM   29  C   UNL     1     -24.390  -3.015 -12.549  1.00  0.00     0.002 C 
BRANCH  29  30
HETATM   30  C   UNL     1     -23.654  -3.173 -11.228  1.00  0.00     0.000 C 
BRANCH  30  31
HETATM   31  C   UNL     1     -22.414  -4.040 -11.418  1.00  0.00     0.000 C 
BRANCH  31  32
HETATM   32  C   UNL     1     -21.428  -3.818 -10.285  1.00  0.00     0.000 C 
BRANCH  32  33
HETATM   33  C   UNL     1     -22.066  -4.165  -8.951  1.00  0.00     0.000 C 
BRANCH  33  34
HETATM   34  C   UNL     1     -21.068  -4.897  -8.068  1.00  0.00     0.000 C 
BRANCH  34  35
HETATM   35  C   UNL     1     -20.595  -3.993  -6.946  1.00  0.00     0.000 C 
BRANCH  35  36
HETATM   36  C   UNL     1     -20.480  -4.778  -5.650  1.00  0.00     0.000 C 
BRANCH  36  37
HETATM   37  C   UNL     1     -21.508  -5.897  -5.635  1.00  0.00     0.000 C 
BRANCH  37  38
HETATM   38  C   UNL     1     -21.131  -6.935  -4.594  1.00  0.00     0.000 C 
BRANCH  38  39
HETATM   39  C   UNL     1     -21.752  -6.583  -3.252  1.00  0.00     0.000 C 
BRANCH  39  40
HETATM   40  C   UNL     1     -21.140  -7.455  -2.170  1.00  0.00     0.000 C 
BRANCH  40  41
HETATM   41  C   UNL     1     -21.983  -7.432  -0.901  1.00  0.00     0.004 C 
BRANCH  41  42
HETATM   42  C   UNL     1     -21.800  -8.704  -0.058  1.00  0.00    -0.023 C 
HETATM   43  C   UNL     1     -21.392  -8.389   1.383  1.00  0.00     0.009 C 
HETATM   44  C   UNL     1     -23.094  -9.514  -0.070  1.00  0.00     0.009 C 
ENDBRANCH  41  42
ENDBRANCH  40  41
ENDBRANCH  39  40
ENDBRANCH  38  39
ENDBRANCH  37  38
ENDBRANCH  36  37
ENDBRANCH  35  36
ENDBRANCH  34  35
ENDBRANCH  33  34
ENDBRANCH  32  33
ENDBRANCH  31  32
ENDBRANCH  30  31
ENDBRANCH  29  30
ENDBRANCH  28  29
ENDBRANCH  27  28
ENDBRANCH  26  27
ENDBRANCH  24  26
ENDBRANCH   1  24
BRANCH   1  45
HETATM   45  O   UNL     1     -25.982  -6.726 -18.058  1.00  0.00    -0.385 OA
HETATM   46  H   UNL     1     -25.318  -6.130 -18.442  1.00  0.00     0.210 HD
ENDBRANCH   1  45
TORSDOF 38
ENDMDL
MODEL 2
REMARK VINA RESULT:      -7.3     10.182     16.671
REMARK WARNING: 32 MAX_TORS EXCEEDED!!!
REMARK  38 active torsions:
REMARK  status: ('A' for Active; 'I' for Inactive)
REMARK    1  A    between atoms: C_2  and  C_4 
REMARK    2  A    between atoms: C_4  and  C_5 
REMARK    3  A    between atoms: C_5  and  C_6 
REMARK    4  A    between atoms: C_6  and  C_7 
REMARK    5  A    between atoms: C_7  and  C_8 
REMARK    6  A    between atoms: C_8  and  C_9 
REMARK    7  A    between atoms: C_9  and  C_10 
REMARK    8  A    between atoms: C_10  and  C_11 
REMARK    9  A    between atoms: C_11  and  C_12 
REMARK   10  A    between atoms: C_12  and  C_13 
REMARK   11  A    between atoms: C_13  and  C_14 
REMARK   12  A    between atoms: C_14  and  C_15 
REMARK   13  A    between atoms: C_15  and  C_16 
REMARK   14  A    between atoms: C_16  and  C_17 
REMARK   15  A    between atoms: C_17  and  C_18 
REMARK   16  A    between atoms: C_18  and  O_19 
REMARK   17  A    between atoms: O_19  and  C_20 
REMARK   18  A    between atoms: C_20  and  C_22 
REMARK   19  A    between atoms: C_22  and  C_23 
REMARK   20  A    between atoms: C_23  and  C_24 
REMARK   21  A    between atoms: C_23  and  O_45 
REMARK   22  A    between atoms: C_24  and  O_26 
REMARK   23  A    between atoms: O_26  and  C_27 
REMARK   24  A    between atoms: C_27  and  C_28 
REMARK   25  A    between atoms: C_28  and  C_29 
REMARK   26  A    between atoms: C_29  and  C_30 
REMARK   27  A    between atoms: C_30  and  C_31 
REMARK   28  A    between atoms: C_31  and  C_32 
REMARK   29  A    between atoms: C_32  and  C_33 
REMARK   30  A    between atoms: C_33  and  C_34 
REMARK   31  A    between atoms: C_34  and  C_35 
REMARK   32  A    between atoms: C_35  and  C_36 
REMARK   33  A    between atoms: C_36  and  C_37 
REMARK   34  A    between atoms: C_37  and  C_38 
REMARK   35  A    between atoms: C_38  and  C_39 
REMARK   36  A    between atoms: C_39  and  C_40 
REMARK   37  A    between atoms: C_40  and  C_41 
REMARK   38  A    between atoms: C_41  and  C_42 
ROOT
HETATM    1  C   UNL     1     -21.786 -12.067  -6.804  1.00  0.00     0.226 C 
ENDROOT
BRANCH   1   2
HETATM    2  C   UNL     1     -20.849 -12.959  -7.610  1.00  0.00     0.153 C 
BRANCH   2   3
HETATM    3  C   UNL     1     -19.382 -12.625  -7.440  1.00  0.00     0.261 C 
HETATM    4  O   UNL     1     -18.754 -11.803  -8.085  1.00  0.00    -0.265 OA
BRANCH   3   5
HETATM    5  O   UNL     1     -18.831 -13.538  -6.591  1.00  0.00    -0.321 OA
BRANCH   5   6
HETATM    6  C   UNL     1     -18.325 -12.955  -5.390  1.00  0.00     0.178 C 
BRANCH   6   7
HETATM    7  C   UNL     1     -18.289 -13.940  -4.235  1.00  0.00     0.027 C 
BRANCH   7   8
HETATM    8  C   UNL     1     -17.081 -13.625  -3.355  1.00  0.00     0.002 C 
BRANCH   8   9
HETATM    9  C   UNL     1     -17.265 -14.162  -1.945  1.00  0.00     0.000 C 
BRANCH   9  10
HETATM   10  C   UNL     1     -17.368 -13.017  -0.947  1.00  0.00     0.000 C 
BRANCH  10  11
HETATM   11  C   UNL     1     -18.749 -13.000  -0.310  1.00  0.00     0.000 C 
BRANCH  11  12
HETATM   12  C   UNL     1     -19.654 -12.014  -1.031  1.00  0.00     0.000 C 
BRANCH  12  13
HETATM   13  C   UNL     1     -18.834 -10.859  -1.580  1.00  0.00     0.000 C 
BRANCH  13  14
HETATM   14  C   UNL     1     -19.319 -10.494  -2.973  1.00  0.00     0.000 C 
BRANCH  14  15
HETATM   15  C   UNL     1     -18.360  -9.509  -3.617  1.00  0.00     0.000 C 
BRANCH  15  16
HETATM   16  C   UNL     1     -17.081  -9.430  -2.804  1.00  0.00     0.000 C 
BRANCH  16  17
HETATM   17  C   UNL     1     -15.907  -9.916  -3.631  1.00  0.00     0.000 C 
BRANCH  17  18
HETATM   18  C   UNL     1     -16.274  -9.929  -5.107  1.00  0.00     0.000 C 
BRANCH  18  19
HETATM   19  C   UNL     1     -15.360 -10.894  -5.844  1.00  0.00     0.000 C 
BRANCH  19  20
HETATM   20  C   UNL     1     -14.512 -11.704  -4.871  1.00  0.00     0.004 C 
BRANCH  20  21
HETATM   21  C   UNL     1     -14.113 -13.071  -5.445  1.00  0.00    -0.023 C 
HETATM   22  C   UNL     1     -13.138 -12.873  -6.604  1.00  0.00     0.009 C 
HETATM   23  C   UNL     1     -13.489 -13.985  -4.388  1.00  0.00     0.009 C 
ENDBRANCH  20  21
ENDBRANCH  19  20
ENDBRANCH  18  19
ENDBRANCH  17  18
ENDBRANCH  16  17
ENDBRANCH  15  16
ENDBRANCH  14  15
ENDBRANCH  13  14
ENDBRANCH  12  13
ENDBRANCH  11  12
ENDBRANCH  10  11
ENDBRANCH   9  10
ENDBRANCH   8   9
ENDBRANCH   7   8
ENDBRANCH   6   7
ENDBRANCH   5   6
ENDBRANCH   3   5
ENDBRANCH   2   3
ENDBRANCH   1   2
BRANCH   1  24
HETATM   24  C   UNL     1     -22.347 -12.783  -5.594  1.00  0.00     0.288 C 
HETATM   25  O   UNL     1     -23.158 -13.701  -5.646  1.00  0.00    -0.262 OA
BRANCH  24  26
HETATM   26  O   UNL     1     -21.826 -12.237  -4.456  1.00  0.00    -0.319 OA
BRANCH  26  27
HETATM   27  C   UNL     1     -22.572 -12.422  -3.246  1.00  0.00     0.178 C 
BRANCH  27  28
HETATM   28  C   UNL     1     -22.953 -11.088  -2.625  1.00  0.00     0.027 C 
BRANCH  28  29
HETATM   29  C   UNL     1     -23.698 -11.334  -1.318  1.00  0.00     0.002 C 
BRANCH  29  30
HETATM   30  C   UNL     1     -23.013 -10.661  -0.139  1.00  0.00     0.000 C 
BRANCH  30  31
HETATM   31  C   UNL     1     -23.760  -9.390   0.248  1.00  0.00     0.000 C 
BRANCH  31  32
HETATM   32  C   UNL     1     -22.814  -8.203   0.281  1.00  0.00     0.000 C 
BRANCH  32  33
HETATM   33  C   UNL     1     -21.404  -8.639  -0.078  1.00  0.00     0.000 C 
BRANCH  33  34
HETATM   34  C   UNL     1     -20.861  -7.777  -1.207  1.00  0.00     0.000 C 
BRANCH  34  35
HETATM   35  C   UNL     1     -21.921  -6.803  -1.683  1.00  0.00     0.000 C 
BRANCH  35  36
HETATM   36  C   UNL     1     -21.719  -6.483  -3.154  1.00  0.00     0.000 C 
BRANCH  36  37
HETATM   37  C   UNL     1     -21.791  -7.761  -3.973  1.00  0.00     0.000 C 
BRANCH  37  38
HETATM   38  C   UNL     1     -21.547  -7.454  -5.439  1.00  0.00     0.000 C 
BRANCH  38  39
HETATM   39  C   UNL     1     -20.091  -7.076  -5.661  1.00  0.00     0.000 C 
BRANCH  39  40
HETATM   40  C   UNL     1     -20.014  -5.938  -6.663  1.00  0.00     0.000 C 
BRANCH  40  41
HETATM   41  C   UNL     1     -21.131  -4.927  -6.434  1.00  0.00     0.004 C 
BRANCH  41  42
HETATM   42  C   UNL     1     -21.152  -3.830  -7.512  1.00  0.00    -0.023 C 
HETATM   43  C   UNL     1     -19.870  -3.816  -8.348  1.00  0.00     0.009 C 
HETATM   44  C   UNL     1     -22.365  -4.028  -8.417  1.00  0.00     0.009 C 
ENDBRANCH  41  42
ENDBRANCH  40  41
ENDBRANCH  39  40
ENDBRANCH  38  39
ENDBRANCH  37  38
ENDBRANCH  36  37
ENDBRANCH  35  36
ENDBRANCH  34  35
ENDBRANCH  33  34
ENDBRANCH  32  33
ENDBRANCH  31  32
ENDBRANCH  30  31
ENDBRANCH  29  30
ENDBRANCH  28  29
ENDBRANCH  27  28
ENDBRANCH  26  27
ENDBRANCH  24  26
ENDBRANCH   1  24
BRANCH   1  45
HETATM   45  O   UNL     1     -21.126 -10.873  -6.414  1.00  0.00    -0.385 OA
HETATM   46  H   UNL     1     -21.791 -10.231  -6.115  1.00  0.00     0.210 HD
ENDBRANCH   1  45
TORSDOF 38
ENDMDL
MODEL 3
REMARK VINA RESULT:      -7.0     12.291     17.500
REMARK WARNING: 32 MAX_TORS EXCEEDED!!!
REMARK  38 active torsions:
REMARK  status: ('A' for Active; 'I' for Inactive)
REMARK    1  A    between atoms: C_2  and  C_4 
REMARK    2  A    between atoms: C_4  and  C_5 
REMARK    3  A    between atoms: C_5  and  C_6 
REMARK    4  A    between atoms: C_6  and  C_7 
REMARK    5  A    between atoms: C_7  and  C_8 
REMARK    6  A    between atoms: C_8  and  C_9 
REMARK    7  A    between atoms: C_9  and  C_10 
REMARK    8  A    between atoms: C_10  and  C_11 
REMARK    9  A    between atoms: C_11  and  C_12 
REMARK   10  A    between atoms: C_12  and  C_13 
REMARK   11  A    between atoms: C_13  and  C_14 
REMARK   12  A    between atoms: C_14  and  C_15 
REMARK   13  A    between atoms: C_15  and  C_16 
REMARK   14  A    between atoms: C_16  and  C_17 
REMARK   15  A    between atoms: C_17  and  C_18 
REMARK   16  A    between atoms: C_18  and  O_19 
REMARK   17  A    between atoms: O_19  and  C_20 
REMARK   18  A    between atoms: C_20  and  C_22 
REMARK   19  A    between atoms: C_22  and  C_23 
REMARK   20  A    between atoms: C_23  and  C_24 
REMARK   21  A    between atoms: C_23  and  O_45 
REMARK   22  A    between atoms: C_24  and  O_26 
REMARK   23  A    between atoms: O_26  and  C_27 
REMARK   24  A    between atoms: C_27  and  C_28 
REMARK   25  A    between atoms: C_28  and  C_29 
REMARK   26  A    between atoms: C_29  and  C_30 
REMARK   27  A    between atoms: C_30  and  C_31 
REMARK   28  A    between atoms: C_31  and  C_32 
REMARK   29  A    between atoms: C_32  and  C_33 
REMARK   30  A    between atoms: C_33  and  C_34 
REMARK   31  A    between atoms: C_34  and  C_35 
REMARK   32  A    between atoms: C_35  and  C_36 
REMARK   33  A    between atoms: C_36  and  C_37 
REMARK   34  A    between atoms: C_37  and  C_38 
REMARK   35  A    between atoms: C_38  and  C_39 
REMARK   36  A    between atoms: C_39  and  C_40 
REMARK   37  A    between atoms: C_40  and  C_41 
REMARK   38  A    between atoms: C_41  and  C_42 
ROOT
HETATM    1  C   UNL     1     -21.434  -8.057  -5.319  1.00  0.00     0.226 C 
ENDROOT
BRANCH   1   2
HETATM    2  C   UNL     1     -21.344  -9.305  -4.450  1.00  0.00     0.153 C 
BRANCH   2   3
HETATM    3  C   UNL     1     -21.265 -10.597  -5.233  1.00  0.00     0.261 C 
HETATM    4  O   UNL     1     -21.029 -10.701  -6.425  1.00  0.00    -0.265 OA
BRANCH   3   5
HETATM    5  O   UNL     1     -21.702 -11.611  -4.434  1.00  0.00    -0.321 OA
BRANCH   5   6
HETATM    6  C   UNL     1     -22.664 -11.190  -3.467  1.00  0.00     0.178 C 
BRANCH   6   7
HETATM    7  C   UNL     1     -22.467 -11.860  -2.119  1.00  0.00     0.027 C 
BRANCH   7   8
HETATM    8  C   UNL     1     -23.813 -11.931  -1.401  1.00  0.00     0.002 C 
BRANCH   8   9
HETATM    9  C   UNL     1     -24.166 -13.360  -1.018  1.00  0.00     0.000 C 
BRANCH   9  10
HETATM   10  C   UNL     1     -23.204 -13.880   0.041  1.00  0.00     0.000 C 
BRANCH  10  11
HETATM   11  C   UNL     1     -23.503 -13.232   1.384  1.00  0.00     0.000 C 
BRANCH  11  12
HETATM   12  C   UNL     1     -23.531 -14.281   2.485  1.00  0.00     0.000 C 
BRANCH  12  13
HETATM   13  C   UNL     1     -22.132 -14.492   3.039  1.00  0.00     0.000 C 
BRANCH  13  14
HETATM   14  C   UNL     1     -21.909 -15.964   3.340  1.00  0.00     0.000 C 
BRANCH  14  15
HETATM   15  C   UNL     1     -20.552 -16.402   2.818  1.00  0.00     0.000 C 
BRANCH  15  16
HETATM   16  C   UNL     1     -20.375 -15.930   1.387  1.00  0.00     0.000 C 
BRANCH  16  17
HETATM   17  C   UNL     1     -18.929 -15.543   1.142  1.00  0.00     0.000 C 
BRANCH  17  18
HETATM   18  C   UNL     1     -18.070 -15.942   2.332  1.00  0.00     0.000 C 
BRANCH  18  19
HETATM   19  C   UNL     1     -16.785 -15.131   2.318  1.00  0.00     0.000 C 
BRANCH  19  20
HETATM   20  C   UNL     1     -16.183 -15.073   0.919  1.00  0.00     0.004 C 
BRANCH  20  21
HETATM   21  C   UNL     1     -15.557 -13.706   0.611  1.00  0.00    -0.023 C 
HETATM   22  C   UNL     1     -15.766 -12.768   1.799  1.00  0.00     0.009 C 
HETATM   23  C   UNL     1     -14.065 -13.811   0.286  1.00  0.00     0.009 C 
ENDBRANCH  20  21
ENDBRANCH  19  20
ENDBRANCH  18  19
ENDBRANCH  17  18
ENDBRANCH  16  17
ENDBRANCH  15  16
ENDBRANCH  14  15
ENDBRANCH  13  14
ENDBRANCH  12  13
ENDBRANCH  11  12
ENDBRANCH  10  11
ENDBRANCH   9  10
ENDBRANCH   8   9
ENDBRANCH   7   8
ENDBRANCH   6   7
ENDBRANCH   5   6
ENDBRANCH   3   5
ENDBRANCH   2   3
ENDBRANCH   1   2
BRANCH   1  24
HETATM   24  C   UNL     1     -21.836  -6.837  -4.517  1.00  0.00     0.288 C 
HETATM   25  O   UNL     1     -22.597  -5.963  -4.919  1.00  0.00    -0.262 OA
BRANCH  24  26
HETATM   26  O   UNL     1     -21.208  -6.858  -3.305  1.00  0.00    -0.319 OA
BRANCH  26  27
HETATM   27  C   UNL     1     -21.704  -5.964  -2.301  1.00  0.00     0.178 C 
BRANCH  27  28
HETATM   28  C   UNL     1     -22.403  -6.722  -1.184  1.00  0.00     0.027 C 
BRANCH  28  29
HETATM   29  C   UNL     1     -21.761  -8.097  -1.029  1.00  0.00     0.002 C 
BRANCH  29  30
HETATM   30  C   UNL     1     -22.242  -8.809   0.225  1.00  0.00     0.000 C 
BRANCH  30  31
HETATM   31  C   UNL     1     -21.263  -8.575   1.371  1.00  0.00     0.000 C 
BRANCH  31  32
HETATM   32  C   UNL     1     -20.419  -9.813   1.615  1.00  0.00     0.000 C 
BRANCH  32  33
HETATM   33  C   UNL     1     -20.934 -10.977   0.785  1.00  0.00     0.000 C 
BRANCH  33  34
HETATM   34  C   UNL     1     -19.938 -12.125   0.819  1.00  0.00     0.000 C 
BRANCH  34  35
HETATM   35  C   UNL     1     -18.743 -11.813  -0.060  1.00  0.00     0.000 C 
BRANCH  35  36
HETATM   36  C   UNL     1     -18.778 -12.665  -1.317  1.00  0.00     0.000 C 
BRANCH  36  37
HETATM   37  C   UNL     1     -18.750 -11.771  -2.545  1.00  0.00     0.000 C 
BRANCH  37  38
HETATM   38  C   UNL     1     -18.724 -10.313  -2.126  1.00  0.00     0.000 C 
BRANCH  38  39
HETATM   39  C   UNL     1     -17.989  -9.481  -3.164  1.00  0.00     0.000 C 
BRANCH  39  40
HETATM   40  C   UNL     1     -16.493  -9.576  -2.919  1.00  0.00     0.000 C 
BRANCH  40  41
HETATM   41  C   UNL     1     -15.745  -9.916  -4.201  1.00  0.00     0.004 C 
BRANCH  41  42
HETATM   42  C   UNL     1     -15.562 -11.431  -4.385  1.00  0.00    -0.023 C 
HETATM   43  C   UNL     1     -14.787 -11.771  -5.660  1.00  0.00     0.009 C 
HETATM   44  C   UNL     1     -14.845 -12.010  -3.168  1.00  0.00     0.009 C 
ENDBRANCH  41  42
ENDBRANCH  40  41
ENDBRANCH  39  40
ENDBRANCH  38  39
ENDBRANCH  37  38
ENDBRANCH  36  37
ENDBRANCH  35  36
ENDBRANCH  34  35
ENDBRANCH  33  34
ENDBRANCH  32  33
ENDBRANCH  31  32
ENDBRANCH  30  31
ENDBRANCH  29  30
ENDBRANCH  28  29
ENDBRANCH  27  28
ENDBRANCH  26  27
ENDBRANCH  24  26
ENDBRANCH   1  24
BRANCH   1  45
HETATM   45  O   UNL     1     -20.206  -7.828  -5.992  1.00  0.00    -0.385 OA
HETATM   46  H   UNL     1     -19.476  -8.115  -5.418  1.00  0.00     0.210 HD
ENDBRANCH   1  45
TORSDOF 38
ENDMDL
MODEL 4
REMARK VINA RESULT:      -6.9     12.527     19.204
REMARK WARNING: 32 MAX_TORS EXCEEDED!!!
REMARK  38 active torsions:
REMARK  status: ('A' for Active; 'I' for Inactive)
REMARK    1  A    between atoms: C_2  and  C_4 
REMARK    2  A    between atoms: C_4  and  C_5 
REMARK    3  A    between atoms: C_5  and  C_6 
REMARK    4  A    between atoms: C_6  and  C_7 
REMARK    5  A    between atoms: C_7  and  C_8 
REMARK    6  A    between atoms: C_8  and  C_9 
REMARK    7  A    between atoms: C_9  and  C_10 
REMARK    8  A    between atoms: C_10  and  C_11 
REMARK    9  A    between atoms: C_11  and  C_12 
REMARK   10  A    between atoms: C_12  and  C_13 
REMARK   11  A    between atoms: C_13  and  C_14 
REMARK   12  A    between atoms: C_14  and  C_15 
REMARK   13  A    between atoms: C_15  and  C_16 
REMARK   14  A    between atoms: C_16  and  C_17 
REMARK   15  A    between atoms: C_17  and  C_18 
REMARK   16  A    between atoms: C_18  and  O_19 
REMARK   17  A    between atoms: O_19  and  C_20 
REMARK   18  A    between atoms: C_20  and  C_22 
REMARK   19  A    between atoms: C_22  and  C_23 
REMARK   20  A    between atoms: C_23  and  C_24 
REMARK   21  A    between atoms: C_23  and  O_45 
REMARK   22  A    between atoms: C_24  and  O_26 
REMARK   23  A    between atoms: O_26  and  C_27 
REMARK   24  A    between atoms: C_27  and  C_28 
REMARK   25  A    between atoms: C_28  and  C_29 
REMARK   26  A    between atoms: C_29  and  C_30 
REMARK   27  A    between atoms: C_30  and  C_31 
REMARK   28  A    between atoms: C_31  and  C_32 
REMARK   29  A    between atoms: C_32  and  C_33 
REMARK   30  A    between atoms: C_33  and  C_34 
REMARK   31  A    between atoms: C_34  and  C_35 
REMARK   32  A    between atoms: C_35  and  C_36 
REMARK   33  A    between atoms: C_36  and  C_37 
REMARK   34  A    between atoms: C_37  and  C_38 
REMARK   35  A    between atoms: C_38  and  C_39 
REMARK   36  A    between atoms: C_39  and  C_40 
REMARK   37  A    between atoms: C_40  and  C_41 
REMARK   38  A    between atoms: C_41  and  C_42 
ROOT
HETATM    1  C   UNL     1     -20.608  -9.112  -4.838  1.00  0.00     0.226 C 
ENDROOT
BRANCH   1   2
HETATM    2  C   UNL     1     -19.279  -9.462  -4.183  1.00  0.00     0.153 C 
BRANCH   2   3
HETATM    3  C   UNL     1     -18.102  -9.459  -5.136  1.00  0.00     0.261 C 
HETATM    4  O   UNL     1     -18.165  -9.495  -6.353  1.00  0.00    -0.265 OA
BRANCH   3   5
HETATM    5  O   UNL     1     -16.961  -9.617  -4.408  1.00  0.00    -0.321 OA
BRANCH   5   6
HETATM    6  C   UNL     1     -17.201  -9.757  -3.008  1.00  0.00     0.178 C 
BRANCH   6   7
HETATM    7  C   UNL     1     -16.146 -10.604  -2.318  1.00  0.00     0.027 C 
BRANCH   7   8
HETATM    8  C   UNL     1     -16.647 -12.044  -2.233  1.00  0.00     0.002 C 
BRANCH   8   9
HETATM    9  C   UNL     1     -16.678 -12.539  -0.796  1.00  0.00     0.000 C 
BRANCH   9  10
HETATM   10  C   UNL     1     -15.602 -11.846   0.030  1.00  0.00     0.000 C 
BRANCH  10  11
HETATM   11  C   UNL     1     -15.629 -12.359   1.462  1.00  0.00     0.000 C 
BRANCH  11  12
HETATM   12  C   UNL     1     -16.604 -13.519   1.592  1.00  0.00     0.000 C 
BRANCH  12  13
HETATM   13  C   UNL     1     -16.144 -14.465   2.688  1.00  0.00     0.000 C 
BRANCH  13  14
HETATM   14  C   UNL     1     -16.066 -15.883   2.150  1.00  0.00     0.000 C 
BRANCH  14  15
HETATM   15  C   UNL     1     -15.925 -15.861   0.639  1.00  0.00     0.000 C 
BRANCH  15  16
HETATM   16  C   UNL     1     -14.458 -15.955   0.259  1.00  0.00     0.000 C 
BRANCH  16  17
HETATM   17  C   UNL     1     -14.266 -15.530  -1.184  1.00  0.00     0.000 C 
BRANCH  17  18
HETATM   18  C   UNL     1     -13.260 -14.393  -1.268  1.00  0.00     0.000 C 
BRANCH  18  19
HETATM   19  C   UNL     1     -12.622 -14.184   0.096  1.00  0.00     0.000 C 
BRANCH  19  20
HETATM   20  C   UNL     1     -11.125 -14.463   0.053  1.00  0.00     0.004 C 
BRANCH  20  21
HETATM   21  C   UNL     1     -10.430 -14.113   1.377  1.00  0.00    -0.023 C 
HETATM   22  C   UNL     1      -9.139 -14.919   1.505  1.00  0.00     0.009 C 
HETATM   23  C   UNL     1     -10.126 -12.618   1.495  1.00  0.00     0.009 C 
ENDBRANCH  20  21
ENDBRANCH  19  20
ENDBRANCH  18  19
ENDBRANCH  17  18
ENDBRANCH  16  17
ENDBRANCH  15  16
ENDBRANCH  14  15
ENDBRANCH  13  14
ENDBRANCH  12  13
ENDBRANCH  11  12
ENDBRANCH  10  11
ENDBRANCH   9  10
ENDBRANCH   8   9
ENDBRANCH   7   8
ENDBRANCH   6   7
ENDBRANCH   5   6
ENDBRANCH   3   5
ENDBRANCH   2   3
ENDBRANCH   1   2
BRANCH   1  24
HETATM   24  C   UNL     1     -20.710  -7.635  -5.158  1.00  0.00     0.288 C 
HETATM   25  O   UNL     1     -20.750  -7.173  -6.293  1.00  0.00    -0.262 OA
BRANCH  24  26
HETATM   26  O   UNL     1     -20.729  -6.916  -3.998  1.00  0.00    -0.319 OA
BRANCH  26  27
HETATM   27  C   UNL     1     -22.014  -6.546  -3.483  1.00  0.00     0.178 C 
BRANCH  27  28
HETATM   28  C   UNL     1     -21.919  -6.102  -2.032  1.00  0.00     0.027 C 
BRANCH  28  29
HETATM   29  C   UNL     1     -21.670  -7.318  -1.147  1.00  0.00     0.002 C 
BRANCH  29  30
HETATM   30  C   UNL     1     -22.904  -7.695  -0.341  1.00  0.00     0.000 C 
BRANCH  30  31
HETATM   31  C   UNL     1     -22.495  -8.399   0.948  1.00  0.00     0.000 C 
BRANCH  31  32
HETATM   32  C   UNL     1     -21.004  -8.685   0.952  1.00  0.00     0.000 C 
BRANCH  32  33
HETATM   33  C   UNL     1     -20.753 -10.183   0.910  1.00  0.00     0.000 C 
BRANCH  33  34
HETATM   34  C   UNL     1     -20.066 -10.562  -0.393  1.00  0.00     0.000 C 
BRANCH  34  35
HETATM   35  C   UNL     1     -20.179 -12.055  -0.634  1.00  0.00     0.000 C 
BRANCH  35  36
HETATM   36  C   UNL     1     -20.584 -12.327  -2.073  1.00  0.00     0.000 C 
BRANCH  36  37
HETATM   37  C   UNL     1     -21.782 -11.469  -2.440  1.00  0.00     0.000 C 
BRANCH  37  38
HETATM   38  C   UNL     1     -23.059 -12.116  -1.937  1.00  0.00     0.000 C 
BRANCH  38  39
HETATM   39  C   UNL     1     -23.783 -11.179  -0.984  1.00  0.00     0.000 C 
BRANCH  39  40
HETATM   40  C   UNL     1     -23.990 -11.878   0.348  1.00  0.00     0.000 C 
BRANCH  40  41
HETATM   41  C   UNL     1     -23.381 -13.274   0.338  1.00  0.00     0.004 C 
BRANCH  41  42
HETATM   42  C   UNL     1     -22.745 -13.641   1.689  1.00  0.00    -0.023 C 
HETATM   43  C   UNL     1     -23.780 -14.141   2.699  1.00  0.00     0.009 C 
HETATM   44  C   UNL     1     -21.668 -14.702   1.475  1.00  0.00     0.009 C 
ENDBRANCH  41  42
ENDBRANCH  40  41
ENDBRANCH  39  40
ENDBRANCH  38  39
ENDBRANCH  37  38
ENDBRANCH  36  37
ENDBRANCH  35  36
ENDBRANCH  34  35
ENDBRANCH  33  34
ENDBRANCH  32  33
ENDBRANCH  31  32
ENDBRANCH  30  31
ENDBRANCH  29  30
ENDBRANCH  28  29
ENDBRANCH  27  28
ENDBRANCH  26  27
ENDBRANCH  24  26
ENDBRANCH   1  24
BRANCH   1  45
HETATM   45  O   UNL     1     -20.809  -9.889  -6.008  1.00  0.00    -0.385 OA
HETATM   46  H   UNL     1     -19.956 -10.262  -6.287  1.00  0.00     0.210 HD
ENDBRANCH   1  45
TORSDOF 38
ENDMDL
MODEL 5
REMARK VINA RESULT:      -6.9      1.622      3.551
REMARK WARNING: 32 MAX_TORS EXCEEDED!!!
REMARK  38 active torsions:
REMARK  status: ('A' for Active; 'I' for Inactive)
REMARK    1  A    between atoms: C_2  and  C_4 
REMARK    2  A    between atoms: C_4  and  C_5 
REMARK    3  A    between atoms: C_5  and  C_6 
REMARK    4  A    between atoms: C_6  and  C_7 
REMARK    5  A    between atoms: C_7  and  C_8 
REMARK    6  A    between atoms: C_8  and  C_9 
REMARK    7  A    between atoms: C_9  and  C_10 
REMARK    8  A    between atoms: C_10  and  C_11 
REMARK    9  A    between atoms: C_11  and  C_12 
REMARK   10  A    between atoms: C_12  and  C_13 
REMARK   11  A    between atoms: C_13  and  C_14 
REMARK   12  A    between atoms: C_14  and  C_15 
REMARK   13  A    between atoms: C_15  and  C_16 
REMARK   14  A    between atoms: C_16  and  C_17 
REMARK   15  A    between atoms: C_17  and  C_18 
REMARK   16  A    between atoms: C_18  and  O_19 
REMARK   17  A    between atoms: O_19  and  C_20 
REMARK   18  A    between atoms: C_20  and  C_22 
REMARK   19  A    between atoms: C_22  and  C_23 
REMARK   20  A    between atoms: C_23  and  C_24 
REMARK   21  A    between atoms: C_23  and  O_45 
REMARK   22  A    between atoms: C_24  and  O_26 
REMARK   23  A    between atoms: O_26  and  C_27 
REMARK   24  A    between atoms: C_27  and  C_28 
REMARK   25  A    between atoms: C_28  and  C_29 
REMARK   26  A    between atoms: C_29  and  C_30 
REMARK   27  A    between atoms: C_30  and  C_31 
REMARK   28  A    between atoms: C_31  and  C_32 
REMARK   29  A    between atoms: C_32  and  C_33 
REMARK   30  A    between atoms: C_33  and  C_34 
REMARK   31  A    between atoms: C_34  and  C_35 
REMARK   32  A    between atoms: C_35  and  C_36 
REMARK   33  A    between atoms: C_36  and  C_37 
REMARK   34  A    between atoms: C_37  and  C_38 
REMARK   35  A    between atoms: C_38  and  C_39 
REMARK   36  A    between atoms: C_39  and  C_40 
REMARK   37  A    between atoms: C_40  and  C_41 
REMARK   38  A    between atoms: C_41  and  C_42 
ROOT
HETATM    1  C   UNL     1     -30.230  -6.256 -16.724  1.00  0.00     0.226 C 
ENDROOT
BRANCH   1   2
HETATM    2  C   UNL     1     -31.544  -5.726 -17.283  1.00  0.00     0.153 C 
BRANCH   2   3
HETATM    3  C   UNL     1     -31.846  -4.294 -16.896  1.00  0.00     0.261 C 
HETATM    4  O   UNL     1     -31.334  -3.297 -17.379  1.00  0.00    -0.265 OA
BRANCH   3   5
HETATM    5  O   UNL     1     -32.628  -4.307 -15.781  1.00  0.00    -0.321 OA
BRANCH   5   6
HETATM    6  C   UNL     1     -34.025  -4.297 -16.072  1.00  0.00     0.178 C 
BRANCH   6   7
HETATM    7  C   UNL     1     -34.693  -2.991 -15.679  1.00  0.00     0.027 C 
BRANCH   7   8
HETATM    8  C   UNL     1     -34.894  -2.142 -16.932  1.00  0.00     0.002 C 
BRANCH   8   9
HETATM    9  C   UNL     1     -35.660  -0.866 -16.622  1.00  0.00     0.000 C 
BRANCH   9  10
HETATM   10  C   UNL     1     -35.824  -0.694 -15.118  1.00  0.00     0.000 C 
BRANCH  10  11
HETATM   11  C   UNL     1     -35.063   0.535 -14.645  1.00  0.00     0.000 C 
BRANCH  11  12
HETATM   12  C   UNL     1     -35.145   0.660 -13.132  1.00  0.00     0.000 C 
BRANCH  12  13
HETATM   13  C   UNL     1     -36.036  -0.433 -12.566  1.00  0.00     0.000 C 
BRANCH  13  14
HETATM   14  C   UNL     1     -36.738   0.066 -11.315  1.00  0.00     0.000 C 
BRANCH  14  15
HETATM   15  C   UNL     1     -36.712  -1.005 -10.240  1.00  0.00     0.000 C 
BRANCH  15  16
HETATM   16  C   UNL     1     -35.771  -2.123 -10.652  1.00  0.00     0.000 C 
BRANCH  16  17
HETATM   17  C   UNL     1     -34.477  -2.029  -9.866  1.00  0.00     0.000 C 
BRANCH  17  18
HETATM   18  C   UNL     1     -33.284  -2.128 -10.805  1.00  0.00     0.000 C 
BRANCH  18  19
HETATM   19  C   UNL     1     -33.588  -3.139 -11.899  1.00  0.00     0.000 C 
BRANCH  19  20
HETATM   20  C   UNL     1     -32.863  -4.456 -11.650  1.00  0.00     0.004 C 
BRANCH  20  21
HETATM   21  C   UNL     1     -33.835  -5.637 -11.508  1.00  0.00    -0.023 C 
HETATM   22  C   UNL     1     -34.372  -5.688 -10.079  1.00  0.00     0.009 C 
HETATM   23  C   UNL     1     -34.998  -5.553 -12.500  1.00  0.00     0.009 C 
ENDBRANCH  20  21
ENDBRANCH  19  20
ENDBRANCH  18  19
ENDBRANCH  17  18
ENDBRANCH  16  17
ENDBRANCH  15  16
ENDBRANCH  14  15
ENDBRANCH  13  14
ENDBRANCH  12  13
ENDBRANCH  11  12
ENDBRANCH  10  11
ENDBRANCH   9  10
ENDBRANCH   8   9
ENDBRANCH   7   8
ENDBRANCH   6   7
ENDBRANCH   5   6
ENDBRANCH   3   5
ENDBRANCH   2   3
ENDBRANCH   1   2
BRANCH   1  24
HETATM   24  C   UNL     1     -29.108  -6.172 -17.738  1.00  0.00     0.288 C 
HETATM   25  O   UNL     1     -29.154  -5.509 -18.768  1.00  0.00    -0.262 OA
BRANCH  24  26
HETATM   26  O   UNL     1     -28.066  -6.957 -17.334  1.00  0.00    -0.319 OA
BRANCH  26  27
HETATM   27  C   UNL     1     -26.810  -6.304 -17.110  1.00  0.00     0.178 C 
BRANCH  27  28
HETATM   28  C   UNL     1     -26.259  -6.631 -15.731  1.00  0.00     0.027 C 
BRANCH  28  29
HETATM   29  C   UNL     1     -24.929  -5.912 -15.536  1.00  0.00     0.002 C 
BRANCH  29  30
HETATM   30  C   UNL     1     -24.628  -5.664 -14.067  1.00  0.00     0.000 C 
BRANCH  30  31
HETATM   31  C   UNL     1     -24.326  -4.188 -13.833  1.00  0.00     0.000 C 
BRANCH  31  32
HETATM   32  C   UNL     1     -23.938  -3.944 -12.385  1.00  0.00     0.000 C 
BRANCH  32  33
HETATM   33  C   UNL     1     -22.437  -3.735 -12.268  1.00  0.00     0.000 C 
BRANCH  33  34
HETATM   34  C   UNL     1     -22.086  -3.237 -10.874  1.00  0.00     0.000 C 
BRANCH  34  35
HETATM   35  C   UNL     1     -21.759  -4.405  -9.964  1.00  0.00     0.000 C 
BRANCH  35  36
HETATM   36  C   UNL     1     -20.259  -4.637  -9.923  1.00  0.00     0.000 C 
BRANCH  36  37
HETATM   37  C   UNL     1     -19.658  -3.908  -8.733  1.00  0.00     0.000 C 
BRANCH  37  38
HETATM   38  C   UNL     1     -20.517  -4.127  -7.502  1.00  0.00     0.000 C 
BRANCH  38  39
HETATM   39  C   UNL     1     -19.944  -5.252  -6.655  1.00  0.00     0.000 C 
BRANCH  39  40
HETATM   40  C   UNL     1     -21.072  -5.951  -5.916  1.00  0.00     0.000 C 
BRANCH  40  41
HETATM   41  C   UNL     1     -21.010  -5.668  -4.421  1.00  0.00     0.004 C 
BRANCH  41  42
HETATM   42  C   UNL     1     -21.708  -6.758  -3.593  1.00  0.00    -0.023 C 
HETATM   43  C   UNL     1     -20.845  -8.014  -3.446  1.00  0.00     0.009 C 
HETATM   44  C   UNL     1     -22.064  -6.205  -2.215  1.00  0.00     0.009 C 
ENDBRANCH  41  42
ENDBRANCH  40  41
ENDBRANCH  39  40
ENDBRANCH  38  39
ENDBRANCH  37  38
ENDBRANCH  36  37
ENDBRANCH  35  36
ENDBRANCH  34  35
ENDBRANCH  33  34
ENDBRANCH  32  33
ENDBRANCH  31  32
ENDBRANCH  30  31
ENDBRANCH  29  30
ENDBRANCH  28  29
ENDBRANCH  27  28
ENDBRANCH  26  27
ENDBRANCH  24  26
ENDBRANCH   1  24
BRANCH   1  45
HETATM   45  O   UNL     1     -29.878  -5.565 -15.535  1.00  0.00    -0.385 OA
HETATM   46  H   UNL     1     -29.548  -4.682 -15.771  1.00  0.00     0.210 HD
ENDBRANCH   1  45
TORSDOF 38
ENDMDL
MODEL 6
REMARK VINA RESULT:      -6.9     12.496     18.118
REMARK WARNING: 32 MAX_TORS EXCEEDED!!!
REMARK  38 active torsions:
REMARK  status: ('A' for Active; 'I' for Inactive)
REMARK    1  A    between atoms: C_2  and  C_4 
REMARK    2  A    between atoms: C_4  and  C_5 
REMARK    3  A    between atoms: C_5  and  C_6 
REMARK    4  A    between atoms: C_6  and  C_7 
REMARK    5  A    between atoms: C_7  and  C_8 
REMARK    6  A    between atoms: C_8  and  C_9 
REMARK    7  A    between atoms: C_9  and  C_10 
REMARK    8  A    between atoms: C_10  and  C_11 
REMARK    9  A    between atoms: C_11  and  C_12 
REMARK   10  A    between atoms: C_12  and  C_13 
REMARK   11  A    between atoms: C_13  and  C_14 
REMARK   12  A    between atoms: C_14  and  C_15 
REMARK   13  A    between atoms: C_15  and  C_16 
REMARK   14  A    between atoms: C_16  and  C_17 
REMARK   15  A    between atoms: C_17  and  C_18 
REMARK   16  A    between atoms: C_18  and  O_19 
REMARK   17  A    between atoms: O_19  and  C_20 
REMARK   18  A    between atoms: C_20  and  C_22 
REMARK   19  A    between atoms: C_22  and  C_23 
REMARK   20  A    between atoms: C_23  and  C_24 
REMARK   21  A    between atoms: C_23  and  O_45 
REMARK   22  A    between atoms: C_24  and  O_26 
REMARK   23  A    between atoms: O_26  and  C_27 
REMARK   24  A    between atoms: C_27  and  C_28 
REMARK   25  A    between atoms: C_28  and  C_29 
REMARK   26  A    between atoms: C_29  and  C_30 
REMARK   27  A    between atoms: C_30  and  C_31 
REMARK   28  A    between atoms: C_31  and  C_32 
REMARK   29  A    between atoms: C_32  and  C_33 
REMARK   30  A    between atoms: C_33  and  C_34 
REMARK   31  A    between atoms: C_34  and  C_35 
REMARK   32  A    between atoms: C_35  and  C_36 
REMARK   33  A    between atoms: C_36  and  C_37 
REMARK   34  A    between atoms: C_37  and  C_38 
REMARK   35  A    between atoms: C_38  and  C_39 
REMARK   36  A    between atoms: C_39  and  C_40 
REMARK   37  A    between atoms: C_40  and  C_41 
REMARK   38  A    between atoms: C_41  and  C_42 
ROOT
HETATM    1  C   UNL     1     -20.641  -8.960  -4.845  1.00  0.00     0.226 C 
ENDROOT
BRANCH   1   2
HETATM    2  C   UNL     1     -19.348  -9.474  -4.227  1.00  0.00     0.153 C 
BRANCH   2   3
HETATM    3  C   UNL     1     -18.218  -9.651  -5.219  1.00  0.00     0.261 C 
HETATM    4  O   UNL     1     -18.334  -9.981  -6.388  1.00  0.00    -0.265 OA
BRANCH   3   5
HETATM    5  O   UNL     1     -17.038  -9.585  -4.542  1.00  0.00    -0.321 OA
BRANCH   5   6
HETATM    6  C   UNL     1     -17.206  -9.440  -3.131  1.00  0.00     0.178 C 
BRANCH   6   7
HETATM    7  C   UNL     1     -16.119 -10.145  -2.339  1.00  0.00     0.027 C 
BRANCH   7   8
HETATM    8  C   UNL     1     -16.650 -11.497  -1.868  1.00  0.00     0.002 C 
BRANCH   8   9
HETATM    9  C   UNL     1     -16.234 -11.790  -0.435  1.00  0.00     0.000 C 
BRANCH   9  10
HETATM   10  C   UNL     1     -15.042 -12.737  -0.408  1.00  0.00     0.000 C 
BRANCH  10  11
HETATM   11  C   UNL     1     -14.704 -13.114   1.026  1.00  0.00     0.000 C 
BRANCH  11  12
HETATM   12  C   UNL     1     -15.952 -13.074   1.893  1.00  0.00     0.000 C 
BRANCH  12  13
HETATM   13  C   UNL     1     -15.951 -14.245   2.861  1.00  0.00     0.000 C 
BRANCH  13  14
HETATM   14  C   UNL     1     -16.818 -15.368   2.318  1.00  0.00     0.000 C 
BRANCH  14  15
HETATM   15  C   UNL     1     -17.723 -14.844   1.218  1.00  0.00     0.000 C 
BRANCH  15  16
HETATM   16  C   UNL     1     -17.854 -15.885   0.121  1.00  0.00     0.000 C 
BRANCH  16  17
HETATM   17  C   UNL     1     -17.710 -15.230  -1.239  1.00  0.00     0.000 C 
BRANCH  17  18
HETATM   18  C   UNL     1     -16.380 -15.614  -1.869  1.00  0.00     0.000 C 
BRANCH  18  19
HETATM   19  C   UNL     1     -16.302 -15.034  -3.271  1.00  0.00     0.000 C 
BRANCH  19  20
HETATM   20  C   UNL     1     -14.857 -14.924  -3.743  1.00  0.00     0.004 C 
BRANCH  20  21
HETATM   21  C   UNL     1     -14.623 -13.681  -4.614  1.00  0.00    -0.023 C 
HETATM   22  C   UNL     1     -15.967 -13.055  -4.983  1.00  0.00     0.009 C 
HETATM   23  C   UNL     1     -13.738 -12.644  -3.919  1.00  0.00     0.009 C 
ENDBRANCH  20  21
ENDBRANCH  19  20
ENDBRANCH  18  19
ENDBRANCH  17  18
ENDBRANCH  16  17
ENDBRANCH  15  16
ENDBRANCH  14  15
ENDBRANCH  13  14
ENDBRANCH  12  13
ENDBRANCH  11  12
ENDBRANCH  10  11
ENDBRANCH   9  10
ENDBRANCH   8   9
ENDBRANCH   7   8
ENDBRANCH   6   7
ENDBRANCH   5   6
ENDBRANCH   3   5
ENDBRANCH   2   3
ENDBRANCH   1   2
BRANCH   1  24
HETATM   24  C   UNL     1     -20.548  -7.495  -5.216  1.00  0.00     0.288 C 
HETATM   25  O   UNL     1     -20.373  -7.078  -6.356  1.00  0.00    -0.262 OA
BRANCH  24  26
HETATM   26  O   UNL     1     -20.669  -6.730  -4.092  1.00  0.00    -0.319 OA
BRANCH  26  27
HETATM   27  C   UNL     1     -21.998  -6.453  -3.633  1.00  0.00     0.178 C 
BRANCH  27  28
HETATM   28  C   UNL     1     -22.037  -6.293  -2.122  1.00  0.00     0.027 C 
BRANCH  28  29
HETATM   29  C   UNL     1     -21.537  -7.575  -1.465  1.00  0.00     0.002 C 
BRANCH  29  30
HETATM   30  C   UNL     1     -22.551  -8.142  -0.484  1.00  0.00     0.000 C 
BRANCH  30  31
HETATM   31  C   UNL     1     -22.041  -7.990   0.946  1.00  0.00     0.000 C 
BRANCH  31  32
HETATM   32  C   UNL     1     -20.793  -8.828   1.160  1.00  0.00     0.000 C 
BRANCH  32  33
HETATM   33  C   UNL     1     -21.081 -10.290   0.864  1.00  0.00     0.000 C 
BRANCH  33  34
HETATM   34  C   UNL     1     -20.091 -10.820  -0.162  1.00  0.00     0.000 C 
BRANCH  34  35
HETATM   35  C   UNL     1     -20.110 -12.336  -0.179  1.00  0.00     0.000 C 
BRANCH  35  36
HETATM   36  C   UNL     1     -20.271 -12.845  -1.601  1.00  0.00     0.000 C 
BRANCH  36  37
HETATM   37  C   UNL     1     -20.997 -11.806  -2.439  1.00  0.00     0.000 C 
BRANCH  37  38
HETATM   38  C   UNL     1     -22.444 -12.218  -2.639  1.00  0.00     0.000 C 
BRANCH  38  39
HETATM   39  C   UNL     1     -23.368 -11.264  -1.899  1.00  0.00     0.000 C 
BRANCH  39  40
HETATM   40  C   UNL     1     -24.058 -12.007  -0.769  1.00  0.00     0.000 C 
BRANCH  40  41
HETATM   41  C   UNL     1     -23.993 -13.515  -0.981  1.00  0.00     0.004 C 
BRANCH  41  42
HETATM   42  C   UNL     1     -23.628 -14.267   0.309  1.00  0.00    -0.023 C 
HETATM   43  C   UNL     1     -22.487 -15.265   0.093  1.00  0.00     0.009 C 
HETATM   44  C   UNL     1     -23.247 -13.265   1.395  1.00  0.00     0.009 C 
ENDBRANCH  41  42
ENDBRANCH  40  41
ENDBRANCH  39  40
ENDBRANCH  38  39
ENDBRANCH  37  38
ENDBRANCH  36  37
ENDBRANCH  35  36
ENDBRANCH  34  35
ENDBRANCH  33  34
ENDBRANCH  32  33
ENDBRANCH  31  32
ENDBRANCH  30  31
ENDBRANCH  29  30
ENDBRANCH  28  29
ENDBRANCH  27  28
ENDBRANCH  26  27
ENDBRANCH  24  26
ENDBRANCH   1  24
BRANCH   1  45
HETATM   45  O   UNL     1     -20.998  -9.738  -5.977  1.00  0.00    -0.385 OA
HETATM   46  H   UNL     1     -21.624  -9.232  -6.521  1.00  0.00     0.210 HD
ENDBRANCH   1  45
TORSDOF 38
ENDMDL
MODEL 7
REMARK VINA RESULT:      -6.8      9.053     17.660
REMARK WARNING: 32 MAX_TORS EXCEEDED!!!
REMARK  38 active torsions:
REMARK  status: ('A' for Active; 'I' for Inactive)
REMARK    1  A    between atoms: C_2  and  C_4 
REMARK    2  A    between atoms: C_4  and  C_5 
REMARK    3  A    between atoms: C_5  and  C_6 
REMARK    4  A    between atoms: C_6  and  C_7 
REMARK    5  A    between atoms: C_7  and  C_8 
REMARK    6  A    between atoms: C_8  and  C_9 
REMARK    7  A    between atoms: C_9  and  C_10 
REMARK    8  A    between atoms: C_10  and  C_11 
REMARK    9  A    between atoms: C_11  and  C_12 
REMARK   10  A    between atoms: C_12  and  C_13 
REMARK   11  A    between atoms: C_13  and  C_14 
REMARK   12  A    between atoms: C_14  and  C_15 
REMARK   13  A    between atoms: C_15  and  C_16 
REMARK   14  A    between atoms: C_16  and  C_17 
REMARK   15  A    between atoms: C_17  and  C_18 
REMARK   16  A    between atoms: C_18  and  O_19 
REMARK   17  A    between atoms: O_19  and  C_20 
REMARK   18  A    between atoms: C_20  and  C_22 
REMARK   19  A    between atoms: C_22  and  C_23 
REMARK   20  A    between atoms: C_23  and  C_24 
REMARK   21  A    between atoms: C_23  and  O_45 
REMARK   22  A    between atoms: C_24  and  O_26 
REMARK   23  A    between atoms: O_26  and  C_27 
REMARK   24  A    between atoms: C_27  and  C_28 
REMARK   25  A    between atoms: C_28  and  C_29 
REMARK   26  A    between atoms: C_29  and  C_30 
REMARK   27  A    between atoms: C_30  and  C_31 
REMARK   28  A    between atoms: C_31  and  C_32 
REMARK   29  A    between atoms: C_32  and  C_33 
REMARK   30  A    between atoms: C_33  and  C_34 
REMARK   31  A    between atoms: C_34  and  C_35 
REMARK   32  A    between atoms: C_35  and  C_36 
REMARK   33  A    between atoms: C_36  and  C_37 
REMARK   34  A    between atoms: C_37  and  C_38 
REMARK   35  A    between atoms: C_38  and  C_39 
REMARK   36  A    between atoms: C_39  and  C_40 
REMARK   37  A    between atoms: C_40  and  C_41 
REMARK   38  A    between atoms: C_41  and  C_42 
ROOT
HETATM    1  C   UNL     1     -21.382 -11.565  -5.814  1.00  0.00     0.226 C 
ENDROOT
BRANCH   1   2
HETATM    2  C   UNL     1     -20.027 -12.258  -5.763  1.00  0.00     0.153 C 
BRANCH   2   3
HETATM    3  C   UNL     1     -18.895 -11.443  -6.350  1.00  0.00     0.261 C 
HETATM    4  O   UNL     1     -18.546 -11.436  -7.519  1.00  0.00    -0.265 OA
BRANCH   3   5
HETATM    5  O   UNL     1     -18.198 -10.877  -5.325  1.00  0.00    -0.321 OA
BRANCH   5   6
HETATM    6  C   UNL     1     -17.044 -10.157  -5.759  1.00  0.00     0.178 C 
BRANCH   6   7
HETATM    7  C   UNL     1     -15.840 -10.391  -4.864  1.00  0.00     0.027 C 
BRANCH   7   8
HETATM    8  C   UNL     1     -16.010  -9.577  -3.583  1.00  0.00     0.002 C 
BRANCH   8   9
HETATM    9  C   UNL     1     -16.111 -10.477  -2.362  1.00  0.00     0.000 C 
BRANCH   9  10
HETATM   10  C   UNL     1     -15.603 -11.875  -2.686  1.00  0.00     0.000 C 
BRANCH  10  11
HETATM   11  C   UNL     1     -15.400 -12.669  -1.404  1.00  0.00     0.000 C 
BRANCH  11  12
HETATM   12  C   UNL     1     -15.944 -11.898  -0.211  1.00  0.00     0.000 C 
BRANCH  12  13
HETATM   13  C   UNL     1     -15.181 -12.280   1.047  1.00  0.00     0.000 C 
BRANCH  13  14
HETATM   14  C   UNL     1     -16.101 -13.011   2.010  1.00  0.00     0.000 C 
BRANCH  14  15
HETATM   15  C   UNL     1     -15.510 -14.361   2.373  1.00  0.00     0.000 C 
BRANCH  15  16
HETATM   16  C   UNL     1     -16.013 -15.418   1.406  1.00  0.00     0.000 C 
BRANCH  16  17
HETATM   17  C   UNL     1     -17.523 -15.338   1.288  1.00  0.00     0.000 C 
BRANCH  17  18
HETATM   18  C   UNL     1     -17.976 -15.913  -0.046  1.00  0.00     0.000 C 
BRANCH  18  19
HETATM   19  C   UNL     1     -19.182 -15.135  -0.544  1.00  0.00     0.000 C 
BRANCH  19  20
HETATM   20  C   UNL     1     -18.887 -13.641  -0.609  1.00  0.00     0.004 C 
BRANCH  20  21
HETATM   21  C   UNL     1     -20.106 -12.790  -0.224  1.00  0.00    -0.023 C 
HETATM   22  C   UNL     1     -21.021 -13.596   0.697  1.00  0.00     0.009 C 
HETATM   23  C   UNL     1     -19.706 -11.478   0.454  1.00  0.00     0.009 C 
ENDBRANCH  20  21
ENDBRANCH  19  20
ENDBRANCH  18  19
ENDBRANCH  17  18
ENDBRANCH  16  17
ENDBRANCH  15  16
ENDBRANCH  14  15
ENDBRANCH  13  14
ENDBRANCH  12  13
ENDBRANCH  11  12
ENDBRANCH  10  11
ENDBRANCH   9  10
ENDBRANCH   8   9
ENDBRANCH   7   8
ENDBRANCH   6   7
ENDBRANCH   5   6
ENDBRANCH   3   5
ENDBRANCH   2   3
ENDBRANCH   1   2
BRANCH   1  24
HETATM   24  C   UNL     1     -22.217 -11.864  -4.587  1.00  0.00     0.288 C 
HETATM   25  O   UNL     1     -22.689 -12.964  -4.321  1.00  0.00    -0.262 OA
BRANCH  24  26
HETATM   26  O   UNL     1     -22.372 -10.725  -3.850  1.00  0.00    -0.319 OA
BRANCH  26  27
HETATM   27  C   UNL     1     -22.018 -10.795  -2.463  1.00  0.00     0.178 C 
BRANCH  27  28
HETATM   28  C   UNL     1     -23.254 -10.896  -1.583  1.00  0.00     0.027 C 
BRANCH  28  29
HETATM   29  C   UNL     1     -23.071 -10.015  -0.353  1.00  0.00     0.002 C 
BRANCH  29  30
HETATM   30  C   UNL     1     -22.063  -8.902  -0.597  1.00  0.00     0.000 C 
BRANCH  30  31
HETATM   31  C   UNL     1     -22.695  -7.546  -0.302  1.00  0.00     0.000 C 
BRANCH  31  32
HETATM   32  C   UNL     1     -22.294  -6.528  -1.355  1.00  0.00     0.000 C 
BRANCH  32  33
HETATM   33  C   UNL     1     -21.465  -7.191  -2.443  1.00  0.00     0.000 C 
BRANCH  33  34
HETATM   34  C   UNL     1     -21.172  -6.197  -3.555  1.00  0.00     0.000 C 
BRANCH  34  35
HETATM   35  C   UNL     1     -21.608  -6.760  -4.894  1.00  0.00     0.000 C 
BRANCH  35  36
HETATM   36  C   UNL     1     -21.722  -5.647  -5.921  1.00  0.00     0.000 C 
BRANCH  36  37
HETATM   37  C   UNL     1     -20.666  -5.830  -6.998  1.00  0.00     0.000 C 
BRANCH  37  38
HETATM   38  C   UNL     1     -20.644  -4.622  -7.915  1.00  0.00     0.000 C 
BRANCH  38  39
HETATM   39  C   UNL     1     -21.855  -3.741  -7.654  1.00  0.00     0.000 C 
BRANCH  39  40
HETATM   40  C   UNL     1     -22.778  -3.784  -8.859  1.00  0.00     0.000 C 
BRANCH  40  41
HETATM   41  C   UNL     1     -22.244  -4.728  -9.928  1.00  0.00     0.004 C 
BRANCH  41  42
HETATM   42  C   UNL     1     -22.101  -4.038 -11.294  1.00  0.00    -0.023 C 
HETATM   43  C   UNL     1     -23.069  -2.864 -11.454  1.00  0.00     0.009 C 
HETATM   44  C   UNL     1     -20.663  -3.559 -11.476  1.00  0.00     0.009 C 
ENDBRANCH  41  42
ENDBRANCH  40  41
ENDBRANCH  39  40
ENDBRANCH  38  39
ENDBRANCH  37  38
ENDBRANCH  36  37
ENDBRANCH  35  36
ENDBRANCH  34  35
ENDBRANCH  33  34
ENDBRANCH  32  33
ENDBRANCH  31  32
ENDBRANCH  30  31
ENDBRANCH  29  30
ENDBRANCH  28  29
ENDBRANCH  27  28
ENDBRANCH  26  27
ENDBRANCH  24  26
ENDBRANCH   1  24
BRANCH   1  45
HETATM   45  O   UNL     1     -21.221 -10.165  -5.977  1.00  0.00    -0.385 OA
HETATM   46  H   UNL     1     -20.528  -9.856  -5.370  1.00  0.00     0.210 HD
ENDBRANCH   1  45
TORSDOF 38
ENDMDL
MODEL 8
REMARK VINA RESULT:      -6.8      9.019     14.331
REMARK WARNING: 32 MAX_TORS EXCEEDED!!!
REMARK  38 active torsions:
REMARK  status: ('A' for Active; 'I' for Inactive)
REMARK    1  A    between atoms: C_2  and  C_4 
REMARK    2  A    between atoms: C_4  and  C_5 
REMARK    3  A    between atoms: C_5  and  C_6 
REMARK    4  A    between atoms: C_6  and  C_7 
REMARK    5  A    between atoms: C_7  and  C_8 
REMARK    6  A    between atoms: C_8  and  C_9 
REMARK    7  A    between atoms: C_9  and  C_10 
REMARK    8  A    between atoms: C_10  and  C_11 
REMARK    9  A    between atoms: C_11  and  C_12 
REMARK   10  A    between atoms: C_12  and  C_13 
REMARK   11  A    between atoms: C_13  and  C_14 
REMARK   12  A    between atoms: C_14  and  C_15 
REMARK   13  A    between atoms: C_15  and  C_16 
REMARK   14  A    between atoms: C_16  and  C_17 
REMARK   15  A    between atoms: C_17  and  C_18 
REMARK   16  A    between atoms: C_18  and  O_19 
REMARK   17  A    between atoms: O_19  and  C_20 
REMARK   18  A    between atoms: C_20  and  C_22 
REMARK   19  A    between atoms: C_22  and  C_23 
REMARK   20  A    between atoms: C_23  and  C_24 
REMARK   21  A    between atoms: C_23  and  O_45 
REMARK   22  A    between atoms: C_24  and  O_26 
REMARK   23  A    between atoms: O_26  and  C_27 
REMARK   24  A    between atoms: C_27  and  C_28 
REMARK   25  A    between atoms: C_28  and  C_29 
REMARK   26  A    between atoms: C_29  and  C_30 
REMARK   27  A    between atoms: C_30  and  C_31 
REMARK   28  A    between atoms: C_31  and  C_32 
REMARK   29  A    between atoms: C_32  and  C_33 
REMARK   30  A    between atoms: C_33  and  C_34 
REMARK   31  A    between atoms: C_34  and  C_35 
REMARK   32  A    between atoms: C_35  and  C_36 
REMARK   33  A    between atoms: C_36  and  C_37 
REMARK   34  A    between atoms: C_37  and  C_38 
REMARK   35  A    between atoms: C_38  and  C_39 
REMARK   36  A    between atoms: C_39  and  C_40 
REMARK   37  A    between atoms: C_40  and  C_41 
REMARK   38  A    between atoms: C_41  and  C_42 
ROOT
HETATM    1  C   UNL     1     -17.444 -11.940  -6.546  1.00  0.00     0.226 C 
ENDROOT
BRANCH   1   2
HETATM    2  C   UNL     1     -18.315 -12.306  -7.741  1.00  0.00     0.153 C 
BRANCH   2   3
HETATM    3  C   UNL     1     -19.750 -12.630  -7.383  1.00  0.00     0.261 C 
HETATM    4  O   UNL     1     -20.599 -13.065  -8.143  1.00  0.00    -0.265 OA
BRANCH   3   5
HETATM    5  O   UNL     1     -19.994 -12.161  -6.127  1.00  0.00    -0.321 OA
BRANCH   5   6
HETATM    6  C   UNL     1     -21.201 -11.405  -6.033  1.00  0.00     0.178 C 
BRANCH   6   7
HETATM    7  C   UNL     1     -21.091 -10.252  -5.052  1.00  0.00     0.027 C 
BRANCH   7   8
HETATM    8  C   UNL     1     -20.008 -10.576  -4.026  1.00  0.00     0.002 C 
BRANCH   8   9
HETATM    9  C   UNL     1     -19.491  -9.319  -3.346  1.00  0.00     0.000 C 
BRANCH   9  10
HETATM   10  C   UNL     1     -19.944  -9.273  -1.893  1.00  0.00     0.000 C 
BRANCH  10  11
HETATM   11  C   UNL     1     -20.339  -7.854  -1.512  1.00  0.00     0.000 C 
BRANCH  11  12
HETATM   12  C   UNL     1     -21.848  -7.684  -1.589  1.00  0.00     0.000 C 
BRANCH  12  13
HETATM   13  C   UNL     1     -22.190  -6.345  -2.221  1.00  0.00     0.000 C 
BRANCH  13  14
HETATM   14  C   UNL     1     -21.266  -6.074  -3.395  1.00  0.00     0.000 C 
BRANCH  14  15
HETATM   15  C   UNL     1     -21.824  -6.710  -4.655  1.00  0.00     0.000 C 
BRANCH  15  16
HETATM   16  C   UNL     1     -21.024  -6.248  -5.860  1.00  0.00     0.000 C 
BRANCH  16  17
HETATM   17  C   UNL     1     -21.786  -5.171  -6.609  1.00  0.00     0.000 C 
BRANCH  17  18
HETATM   18  C   UNL     1     -20.875  -3.987  -6.897  1.00  0.00     0.000 C 
BRANCH  18  19
HETATM   19  C   UNL     1     -20.404  -4.056  -8.340  1.00  0.00     0.000 C 
BRANCH  19  20
HETATM   20  C   UNL     1     -21.461  -4.689  -9.236  1.00  0.00     0.004 C 
BRANCH  20  21
HETATM   21  C   UNL     1     -22.341  -3.639  -9.929  1.00  0.00    -0.023 C 
HETATM   22  C   UNL     1     -22.330  -3.878 -11.438  1.00  0.00     0.009 C 
HETATM   23  C   UNL     1     -23.780  -3.654  -9.409  1.00  0.00     0.009 C 
ENDBRANCH  20  21
ENDBRANCH  19  20
ENDBRANCH  18  19
ENDBRANCH  17  18
ENDBRANCH  16  17
ENDBRANCH  15  16
ENDBRANCH  14  15
ENDBRANCH  13  14
ENDBRANCH  12  13
ENDBRANCH  11  12
ENDBRANCH  10  11
ENDBRANCH   9  10
ENDBRANCH   8   9
ENDBRANCH   7   8
ENDBRANCH   6   7
ENDBRANCH   5   6
ENDBRANCH   3   5
ENDBRANCH   2   3
ENDBRANCH   1   2
BRANCH   1  24
HETATM   24  C   UNL     1     -16.039 -12.486  -6.682  1.00  0.00     0.288 C 
HETATM   25  O   UNL     1     -15.101 -11.869  -7.176  1.00  0.00    -0.262 OA
BRANCH  24  26
HETATM   26  O   UNL     1     -15.992 -13.759  -6.193  1.00  0.00    -0.319 OA
BRANCH  26  27
HETATM   27  C   UNL     1     -15.855 -13.905  -4.774  1.00  0.00     0.178 C 
BRANCH  27  28
HETATM   28  C   UNL     1     -14.444 -13.569  -4.319  1.00  0.00     0.027 C 
BRANCH  28  29
HETATM   29  C   UNL     1     -14.510 -12.615  -3.132  1.00  0.00     0.002 C 
BRANCH  29  30
HETATM   30  C   UNL     1     -15.207 -11.312  -3.489  1.00  0.00     0.000 C 
BRANCH  30  31
HETATM   31  C   UNL     1     -16.266 -10.978  -2.444  1.00  0.00     0.000 C 
BRANCH  31  32
HETATM   32  C   UNL     1     -15.735 -11.229  -1.044  1.00  0.00     0.000 C 
BRANCH  32  33
HETATM   33  C   UNL     1     -16.618 -12.226  -0.314  1.00  0.00     0.000 C 
BRANCH  33  34
HETATM   34  C   UNL     1     -17.953 -12.364  -1.029  1.00  0.00     0.000 C 
BRANCH  34  35
HETATM   35  C   UNL     1     -19.089 -12.396  -0.025  1.00  0.00     0.000 C 
BRANCH  35  36
HETATM   36  C   UNL     1     -20.116 -13.442  -0.425  1.00  0.00     0.000 C 
BRANCH  36  37
HETATM   37  C   UNL     1     -20.587 -13.182  -1.846  1.00  0.00     0.000 C 
BRANCH  37  38
HETATM   38  C   UNL     1     -21.800 -14.039  -2.156  1.00  0.00     0.000 C 
BRANCH  38  39
HETATM   39  C   UNL     1     -22.887 -13.197  -2.804  1.00  0.00     0.000 C 
BRANCH  39  40
HETATM   40  C   UNL     1     -22.901 -11.818  -2.166  1.00  0.00     0.000 C 
BRANCH  40  41
HETATM   41  C   UNL     1     -24.101 -11.652  -1.242  1.00  0.00     0.004 C 
BRANCH  41  42
HETATM   42  C   UNL     1     -23.685 -11.512   0.231  1.00  0.00    -0.023 C 
HETATM   43  C   UNL     1     -23.459 -12.869   0.900  1.00  0.00     0.009 C 
HETATM   44  C   UNL     1     -22.419 -10.665   0.326  1.00  0.00     0.009 C 
ENDBRANCH  41  42
ENDBRANCH  40  41
ENDBRANCH  39  40
ENDBRANCH  38  39
ENDBRANCH  37  38
ENDBRANCH  36  37
ENDBRANCH  35  36
ENDBRANCH  34  35
ENDBRANCH  33  34
ENDBRANCH  32  33
ENDBRANCH  31  32
ENDBRANCH  30  31
ENDBRANCH  29  30
ENDBRANCH  28  29
ENDBRANCH  27  28
ENDBRANCH  26  27
ENDBRANCH  24  26
ENDBRANCH   1  24
BRANCH   1  45
HETATM   45  O   UNL     1     -17.416 -10.533  -6.361  1.00  0.00    -0.385 OA
HETATM   46  H   UNL     1     -16.954 -10.127  -7.113  1.00  0.00     0.210 HD
ENDBRANCH   1  45
TORSDOF 38
ENDMDL
MODEL 9
REMARK VINA RESULT:      -6.7     12.399     17.442
REMARK WARNING: 32 MAX_TORS EXCEEDED!!!
REMARK  38 active torsions:
REMARK  status: ('A' for Active; 'I' for Inactive)
REMARK    1  A    between atoms: C_2  and  C_4 
REMARK    2  A    between atoms: C_4  and  C_5 
REMARK    3  A    between atoms: C_5  and  C_6 
REMARK    4  A    between atoms: C_6  and  C_7 
REMARK    5  A    between atoms: C_7  and  C_8 
REMARK    6  A    between atoms: C_8  and  C_9 
REMARK    7  A    between atoms: C_9  and  C_10 
REMARK    8  A    between atoms: C_10  and  C_11 
REMARK    9  A    between atoms: C_11  and  C_12 
REMARK   10  A    between atoms: C_12  and  C_13 
REMARK   11  A    between atoms: C_13  and  C_14 
REMARK   12  A    between atoms: C_14  and  C_15 
REMARK   13  A    between atoms: C_15  and  C_16 
REMARK   14  A    between atoms: C_16  and  C_17 
REMARK   15  A    between atoms: C_17  and  C_18 
REMARK   16  A    between atoms: C_18  and  O_19 
REMARK   17  A    between atoms: O_19  and  C_20 
REMARK   18  A    between atoms: C_20  and  C_22 
REMARK   19  A    between atoms: C_22  and  C_23 
REMARK   20  A    between atoms: C_23  and  C_24 
REMARK   21  A    between atoms: C_23  and  O_45 
REMARK   22  A    between atoms: C_24  and  O_26 
REMARK   23  A    between atoms: O_26  and  C_27 
REMARK   24  A    between atoms: C_27  and  C_28 
REMARK   25  A    between atoms: C_28  and  C_29 
REMARK   26  A    between atoms: C_29  and  C_30 
REMARK   27  A    between atoms: C_30  and  C_31 
REMARK   28  A    between atoms: C_31  and  C_32 
REMARK   29  A    between atoms: C_32  and  C_33 
REMARK   30  A    between atoms: C_33  and  C_34 
REMARK   31  A    between atoms: C_34  and  C_35 
REMARK   32  A    between atoms: C_35  and  C_36 
REMARK   33  A    between atoms: C_36  and  C_37 
REMARK   34  A    between atoms: C_37  and  C_38 
REMARK   35  A    between atoms: C_38  and  C_39 
REMARK   36  A    between atoms: C_39  and  C_40 
REMARK   37  A    between atoms: C_40  and  C_41 
REMARK   38  A    between atoms: C_41  and  C_42 
ROOT
HETATM    1  C   UNL     1     -21.327  -8.175  -5.274  1.00  0.00     0.226 C 
ENDROOT
BRANCH   1   2
HETATM    2  C   UNL     1     -21.568  -9.484  -4.534  1.00  0.00     0.153 C 
BRANCH   2   3
HETATM    3  C   UNL     1     -21.142 -10.716  -5.304  1.00  0.00     0.261 C 
HETATM    4  O   UNL     1     -21.036 -10.803  -6.516  1.00  0.00    -0.265 OA
BRANCH   3   5
HETATM    5  O   UNL     1     -21.095 -11.767  -4.439  1.00  0.00    -0.321 OA
BRANCH   5   6
HETATM    6  C   UNL     1     -22.383 -12.298  -4.128  1.00  0.00     0.178 C 
BRANCH   6   7
HETATM    7  C   UNL     1     -22.548 -12.600  -2.650  1.00  0.00     0.027 C 
BRANCH   7   8
HETATM    8  C   UNL     1     -23.398 -11.502  -2.013  1.00  0.00     0.002 C 
BRANCH   8   9
HETATM    9  C   UNL     1     -24.215 -12.036  -0.847  1.00  0.00     0.000 C 
BRANCH   9  10
HETATM   10  C   UNL     1     -23.418 -11.949   0.447  1.00  0.00     0.000 C 
BRANCH  10  11
HETATM   11  C   UNL     1     -23.562 -13.239   1.239  1.00  0.00     0.000 C 
BRANCH  11  12
HETATM   12  C   UNL     1     -22.195 -13.769   1.644  1.00  0.00     0.000 C 
BRANCH  12  13
HETATM   13  C   UNL     1     -21.145 -13.323   0.640  1.00  0.00     0.000 C 
BRANCH  13  14
HETATM   14  C   UNL     1     -20.007 -14.327   0.599  1.00  0.00     0.000 C 
BRANCH  14  15
HETATM   15  C   UNL     1     -18.836 -13.756  -0.181  1.00  0.00     0.000 C 
BRANCH  15  16
HETATM   16  C   UNL     1     -17.578 -13.813   0.667  1.00  0.00     0.000 C 
BRANCH  16  17
HETATM   17  C   UNL     1     -16.854 -12.481   0.613  1.00  0.00     0.000 C 
BRANCH  17  18
HETATM   18  C   UNL     1     -15.643 -12.504   1.533  1.00  0.00     0.000 C 
BRANCH  18  19
HETATM   19  C   UNL     1     -15.623 -13.813   2.306  1.00  0.00     0.000 C 
BRANCH  19  20
HETATM   20  C   UNL     1     -14.346 -14.596   2.032  1.00  0.00     0.004 C 
BRANCH  20  21
HETATM   21  C   UNL     1     -13.681 -14.182   0.711  1.00  0.00    -0.023 C 
HETATM   22  C   UNL     1     -12.169 -14.079   0.910  1.00  0.00     0.009 C 
HETATM   23  C   UNL     1     -13.992 -15.157  -0.427  1.00  0.00     0.009 C 
ENDBRANCH  20  21
ENDBRANCH  19  20
ENDBRANCH  18  19
ENDBRANCH  17  18
ENDBRANCH  16  17
ENDBRANCH  15  16
ENDBRANCH  14  15
ENDBRANCH  13  14
ENDBRANCH  12  13
ENDBRANCH  11  12
ENDBRANCH  10  11
ENDBRANCH   9  10
ENDBRANCH   8   9
ENDBRANCH   7   8
ENDBRANCH   6   7
ENDBRANCH   5   6
ENDBRANCH   3   5
ENDBRANCH   2   3
ENDBRANCH   1   2
BRANCH   1  24
HETATM   24  C   UNL     1     -21.747  -6.975  -4.452  1.00  0.00     0.288 C 
HETATM   25  O   UNL     1     -22.203  -5.938  -4.922  1.00  0.00    -0.262 OA
BRANCH  24  26
HETATM   26  O   UNL     1     -21.521  -7.224  -3.129  1.00  0.00    -0.319 OA
BRANCH  26  27
HETATM   27  C   UNL     1     -21.971  -6.234  -2.195  1.00  0.00     0.178 C 
BRANCH  27  28
HETATM   28  C   UNL     1     -22.353  -6.864  -0.866  1.00  0.00     0.027 C 
BRANCH  28  29
HETATM   29  C   UNL     1     -22.061  -8.360  -0.914  1.00  0.00     0.002 C 
BRANCH  29  30
HETATM   30  C   UNL     1     -21.256  -8.820   0.291  1.00  0.00     0.000 C 
BRANCH  30  31
HETATM   31  C   UNL     1     -20.417 -10.041  -0.071  1.00  0.00     0.000 C 
BRANCH  31  32
HETATM   32  C   UNL     1     -20.092 -10.045  -1.554  1.00  0.00     0.000 C 
BRANCH  32  33
HETATM   33  C   UNL     1     -18.645 -10.449  -1.778  1.00  0.00     0.000 C 
BRANCH  33  34
HETATM   34  C   UNL     1     -18.084  -9.733  -2.997  1.00  0.00     0.000 C 
BRANCH  34  35
HETATM   35  C   UNL     1     -16.587  -9.541  -2.853  1.00  0.00     0.000 C 
BRANCH  35  36
HETATM   36  C   UNL     1     -15.962 -10.756  -2.188  1.00  0.00     0.000 C 
BRANCH  36  37
HETATM   37  C   UNL     1     -15.165 -11.548  -3.211  1.00  0.00     0.000 C 
BRANCH  37  38
HETATM   38  C   UNL     1     -15.463 -13.029  -3.067  1.00  0.00     0.000 C 
BRANCH  38  39
HETATM   39  C   UNL     1     -16.946 -13.289  -3.273  1.00  0.00     0.000 C 
BRANCH  39  40
HETATM   40  C   UNL     1     -17.160 -13.940  -4.628  1.00  0.00     0.000 C 
BRANCH  40  41
HETATM   41  C   UNL     1     -16.666 -13.041  -5.755  1.00  0.00     0.004 C 
BRANCH  41  42
HETATM   42  C   UNL     1     -17.801 -12.212  -6.377  1.00  0.00    -0.023 C 
HETATM   43  C   UNL     1     -17.507 -10.710  -6.340  1.00  0.00     0.009 C 
HETATM   44  C   UNL     1     -18.034 -12.664  -7.816  1.00  0.00     0.009 C 
ENDBRANCH  41  42
ENDBRANCH  40  41
ENDBRANCH  39  40
ENDBRANCH  38  39
ENDBRANCH  37  38
ENDBRANCH  36  37
ENDBRANCH  35  36
ENDBRANCH  34  35
ENDBRANCH  33  34
ENDBRANCH  32  33
ENDBRANCH  31  32
ENDBRANCH  30  31
ENDBRANCH  29  30
ENDBRANCH  28  29
ENDBRANCH  27  28
ENDBRANCH  26  27
ENDBRANCH  24  26
ENDBRANCH   1  24
BRANCH   1  45
HETATM   45  O   UNL     1     -19.966  -8.062  -5.660  1.00  0.00    -0.385 OA
HETATM   46  H   UNL     1     -19.890  -7.376  -6.344  1.00  0.00     0.210 HD
ENDBRANCH   1  45
TORSDOF 38
ENDMDL
