MODEL 1
REMARK VINA RESULT:      -1.3      0.000      0.000
REMARK  3 active torsions:
REMARK  status: ('A' for Active; 'I' for Inactive)
REMARK    1  A    between atoms: C_3  and  C_21 
REMARK    2  A    between atoms: C_22  and  C_31 
REMARK    3  A    between atoms: C_31  and  O_33 
ROOT
HETATM    1 NA   UNL     3     -32.324  -8.576   4.529  1.00  0.00     0.000 Na
ENDROOT
TORSDOF 3
ENDMDL
MODEL 2
REMARK VINA RESULT:      -1.3     23.495     23.495
REMARK  3 active torsions:
REMARK  status: ('A' for Active; 'I' for Inactive)
REMARK    1  A    between atoms: C_3  and  C_21 
REMARK    2  A    between atoms: C_22  and  C_31 
REMARK    3  A    between atoms: C_31  and  O_33 
ROOT
HETATM    1 NA   UNL     3     -11.257   1.621   2.468  1.00  0.00     0.000 Na
ENDROOT
TORSDOF 3
ENDMDL
MODEL 3
REMARK VINA RESULT:      -1.2     19.033     19.033
REMARK  3 active torsions:
REMARK  status: ('A' for Active; 'I' for Inactive)
REMARK    1  A    between atoms: C_3  and  C_21 
REMARK    2  A    between atoms: C_22  and  C_31 
REMARK    3  A    between atoms: C_31  and  O_33 
ROOT
HETATM    1 NA   UNL     3     -27.015 -13.665 -13.026  1.00  0.00     0.000 Na
ENDROOT
TORSDOF 3
ENDMDL
MODEL 4
REMARK VINA RESULT:      -1.2     22.209     22.209
REMARK  3 active torsions:
REMARK  status: ('A' for Active; 'I' for Inactive)
REMARK    1  A    between atoms: C_3  and  C_21 
REMARK    2  A    between atoms: C_22  and  C_31 
REMARK    3  A    between atoms: C_31  and  O_33 
ROOT
HETATM    1 NA   UNL     3     -25.113   0.407 -14.459  1.00  0.00     0.000 Na
ENDROOT
TORSDOF 3
ENDMDL
MODEL 5
REMARK VINA RESULT:      -1.2     34.910     34.910
REMARK  3 active torsions:
REMARK  status: ('A' for Active; 'I' for Inactive)
REMARK    1  A    between atoms: C_3  and  C_21 
REMARK    2  A    between atoms: C_22  and  C_31 
REMARK    3  A    between atoms: C_31  and  O_33 
ROOT
HETATM    1 NA   UNL     3      -9.118   5.887 -17.175  1.00  0.00     0.000 Na
ENDROOT
TORSDOF 3
ENDMDL
MODEL 6
REMARK VINA RESULT:      -1.1     12.328     12.328
REMARK  3 active torsions:
REMARK  status: ('A' for Active; 'I' for Inactive)
REMARK    1  A    between atoms: C_3  and  C_21 
REMARK    2  A    between atoms: C_22  and  C_31 
REMARK    3  A    between atoms: C_31  and  O_33 
ROOT
HETATM    1 NA   UNL     3     -25.223  -5.220  -4.974  1.00  0.00     0.000 Na
ENDROOT
TORSDOF 3
ENDMDL
MODEL 7
REMARK VINA RESULT:      -1.1     10.355     10.355
REMARK  3 active torsions:
REMARK  status: ('A' for Active; 'I' for Inactive)
REMARK    1  A    between atoms: C_3  and  C_21 
REMARK    2  A    between atoms: C_22  and  C_31 
REMARK    3  A    between atoms: C_31  and  O_33 
ROOT
HETATM    1 NA   UNL     3     -25.504  -0.939   2.972  1.00  0.00     0.000 Na
ENDROOT
TORSDOF 3
ENDMDL
MODEL 8
REMARK VINA RESULT:      -1.1     26.895     26.895
REMARK  3 active torsions:
REMARK  status: ('A' for Active; 'I' for Inactive)
REMARK    1  A    between atoms: C_3  and  C_21 
REMARK    2  A    between atoms: C_22  and  C_31 
REMARK    3  A    between atoms: C_31  and  O_33 
ROOT
HETATM    1 NA   UNL     3     -35.597  -5.029 -21.929  1.00  0.00     0.000 Na
ENDROOT
TORSDOF 3
ENDMDL
MODEL 9
REMARK VINA RESULT:      -1.1     27.173     27.173
REMARK  3 active torsions:
REMARK  status: ('A' for Active; 'I' for Inactive)
REMARK    1  A    between atoms: C_3  and  C_21 
REMARK    2  A    between atoms: C_22  and  C_31 
REMARK    3  A    between atoms: C_31  and  O_33 
ROOT
HETATM    1 NA   UNL     3     -11.561   1.297  -9.956  1.00  0.00     0.000 Na
ENDROOT
TORSDOF 3
ENDMDL
