MODEL 1
REMARK VINA RESULT:      -6.8      0.000      0.000
REMARK  25 active torsions:
REMARK  status: ('A' for Active; 'I' for Inactive)
REMARK    1  A    between atoms: C_2  and  C_3 
REMARK    2  A    between atoms: C_3  and  C_4 
REMARK    3  A    between atoms: C_4  and  C_5 
REMARK    4  A    between atoms: C_5  and  C_6 
REMARK    5  A    between atoms: C_6  and  C_7 
REMARK    6  A    between atoms: C_7  and  C_8 
REMARK    7  A    between atoms: C_8  and  C_9 
REMARK    8  A    between atoms: C_9  and  C_10 
REMARK    9  A    between atoms: C_10  and  C_11 
REMARK   10  A    between atoms: C_11  and  C_12 
REMARK   11  A    between atoms: C_12  and  C_13 
REMARK   12  A    between atoms: C_13  and  C_14 
REMARK   13  A    between atoms: C_15  and  C_16 
REMARK   14  A    between atoms: C_16  and  C_17 
REMARK   15  A    between atoms: C_16  and  O_33 
REMARK   16  A    between atoms: C_17  and  C_18 
REMARK   17  A    between atoms: C_17  and  N_30 
REMARK   18  A    between atoms: C_18  and  O_19 
REMARK   19  A    between atoms: O_19  and  P_20 
REMARK   20  A    between atoms: P_20  and  O_22 
REMARK   21  A    between atoms: P_20  and  O_23 
REMARK   22  A    between atoms: O_23  and  C_24 
REMARK   23  A    between atoms: C_24  and  C_25 
REMARK   24  A    between atoms: C_25  and  N_26 
REMARK   25  A    between atoms: N_30  and  C_31 
ROOT
HETATM    1  C   UNL     1     -30.604  -5.875 -16.179  1.00  0.00     0.165 C 
ENDROOT
BRANCH   1   2
HETATM    2  C   UNL     1     -31.362  -4.772 -16.861  1.00  0.00     0.003 C 
HETATM    3  C   UNL     1     -32.584  -4.364 -16.490  1.00  0.00    -0.028 C 
BRANCH   3   4
HETATM    4  C   UNL     1     -33.415  -3.384 -17.227  1.00  0.00     0.027 C 
BRANCH   4   5
HETATM    5  C   UNL     1     -34.551  -2.902 -16.334  1.00  0.00     0.004 C 
BRANCH   5   6
HETATM    6  C   UNL     1     -35.086  -1.598 -16.892  1.00  0.00     0.000 C 
BRANCH   6   7
HETATM    7  C   UNL     1     -35.891  -0.863 -15.840  1.00  0.00     0.000 C 
BRANCH   7   8
HETATM    8  C   UNL     1     -35.084   0.306 -15.308  1.00  0.00     0.000 C 
BRANCH   8   9
HETATM    9  C   UNL     1     -35.132   0.321 -13.792  1.00  0.00     0.000 C 
BRANCH   9  10
HETATM   10  C   UNL     1     -35.231  -1.099 -13.267  1.00  0.00     0.000 C 
BRANCH  10  11
HETATM   11  C   UNL     1     -34.861  -1.133 -11.795  1.00  0.00     0.000 C 
BRANCH  11  12
HETATM   12  C   UNL     1     -35.237  -2.477 -11.197  1.00  0.00     0.000 C 
BRANCH  12  13
HETATM   13  C   UNL     1     -34.055  -3.056 -10.440  1.00  0.00     0.000 C 
BRANCH  13  14
HETATM   14  C   UNL     1     -32.863  -3.215 -11.369  1.00  0.00    -0.000 C 
BRANCH  14  15
HETATM   15  C   UNL     1     -32.894  -4.580 -12.041  1.00  0.00    -0.005 C 
HETATM   16  C   UNL     1     -33.508  -5.606 -11.110  1.00  0.00     0.005 C 
ENDBRANCH  14  15
ENDBRANCH  13  14
ENDBRANCH  12  13
ENDBRANCH  11  12
ENDBRANCH  10  11
ENDBRANCH   9  10
ENDBRANCH   8   9
ENDBRANCH   7   8
ENDBRANCH   6   7
ENDBRANCH   5   6
ENDBRANCH   4   5
ENDBRANCH   3   4
ENDBRANCH   1   2
BRANCH   1  17
HETATM   17  C   UNL     1     -29.340  -6.383 -16.970  1.00  0.00     0.140 C 
BRANCH  17  18
HETATM   18  C   UNL     1     -28.066  -6.460 -16.050  1.00  0.00     0.208 C 
BRANCH  18  19
HETATM   19  O   UNL     1     -26.883  -5.947 -16.710  1.00  0.00    -0.295 OA
BRANCH  19  20
HETATM   20  P   UNL     1     -25.413  -6.325 -16.105  1.00  0.00     0.393 P 
HETATM   21  O   UNL     1     -24.803  -5.329 -15.226  1.00  0.00    -0.631 OA
BRANCH  20  22
HETATM   22  O   UNL     1     -25.773  -7.698 -15.380  1.00  0.00    -0.307 OA
HETATM   23  H   UNL     1     -25.794  -8.427 -16.040  1.00  0.00     0.222 HD
ENDBRANCH  20  22
BRANCH  20  24
HETATM   24  O   UNL     1     -24.516  -6.849 -17.343  1.00  0.00    -0.295 OA
BRANCH  24  25
HETATM   25  C   UNL     1     -25.013  -6.794 -18.684  1.00  0.00     0.208 C 
BRANCH  25  26
HETATM   26  C   UNL     1     -24.273  -7.571 -19.822  1.00  0.00     0.262 C 
BRANCH  26  27
HETATM   27  N   UNL     1     -24.969  -7.445 -21.202  1.00  0.00    -0.077 N 
HETATM   28  C   UNL     1     -25.339  -5.998 -21.461  1.00  0.00     0.271 C 
HETATM   29  C   UNL     1     -24.061  -7.969 -22.311  1.00  0.00     0.271 C 
HETATM   30  C   UNL     1     -26.263  -8.267 -21.211  1.00  0.00     0.271 C 
ENDBRANCH  26  27
ENDBRANCH  25  26
ENDBRANCH  24  25
ENDBRANCH  20  24
ENDBRANCH  19  20
ENDBRANCH  18  19
ENDBRANCH  17  18
BRANCH  17  31
HETATM   31  N   UNL     1     -29.535  -7.702 -17.632  1.00  0.00    -0.359 N 
HETATM   32  H   UNL     1     -29.368  -8.531 -17.073  1.00  0.00     0.162 HD
BRANCH  31  33
HETATM   33  C   UNL     1     -29.896  -7.922 -18.935  1.00  0.00     0.349 C 
HETATM   34  O   UNL     1     -29.730  -8.922 -19.576  1.00  0.00    -0.284 OA
ENDBRANCH  31  33
ENDBRANCH  17  31
ENDBRANCH   1  17
BRANCH   1  35
HETATM   35  O   UNL     1     -30.280  -5.415 -14.879  1.00  0.00    -0.390 OA
HETATM   36  H   UNL     1     -29.346  -5.125 -14.875  1.00  0.00     0.210 HD
ENDBRANCH   1  35
TORSDOF 25
ENDMDL
MODEL 2
REMARK VINA RESULT:      -6.6      3.083      4.275
REMARK  25 active torsions:
REMARK  status: ('A' for Active; 'I' for Inactive)
REMARK    1  A    between atoms: C_2  and  C_3 
REMARK    2  A    between atoms: C_3  and  C_4 
REMARK    3  A    between atoms: C_4  and  C_5 
REMARK    4  A    between atoms: C_5  and  C_6 
REMARK    5  A    between atoms: C_6  and  C_7 
REMARK    6  A    between atoms: C_7  and  C_8 
REMARK    7  A    between atoms: C_8  and  C_9 
REMARK    8  A    between atoms: C_9  and  C_10 
REMARK    9  A    between atoms: C_10  and  C_11 
REMARK   10  A    between atoms: C_11  and  C_12 
REMARK   11  A    between atoms: C_12  and  C_13 
REMARK   12  A    between atoms: C_13  and  C_14 
REMARK   13  A    between atoms: C_15  and  C_16 
REMARK   14  A    between atoms: C_16  and  C_17 
REMARK   15  A    between atoms: C_16  and  O_33 
REMARK   16  A    between atoms: C_17  and  C_18 
REMARK   17  A    between atoms: C_17  and  N_30 
REMARK   18  A    between atoms: C_18  and  O_19 
REMARK   19  A    between atoms: O_19  and  P_20 
REMARK   20  A    between atoms: P_20  and  O_22 
REMARK   21  A    between atoms: P_20  and  O_23 
REMARK   22  A    between atoms: O_23  and  C_24 
REMARK   23  A    between atoms: C_24  and  C_25 
REMARK   24  A    between atoms: C_25  and  N_26 
REMARK   25  A    between atoms: N_30  and  C_31 
ROOT
HETATM    1  C   UNL     1     -30.565  -5.716 -16.453  1.00  0.00     0.165 C 
ENDROOT
BRANCH   1   2
HETATM    2  C   UNL     1     -31.390  -4.582 -16.993  1.00  0.00     0.003 C 
HETATM    3  C   UNL     1     -32.646  -4.320 -16.607  1.00  0.00    -0.028 C 
BRANCH   3   4
HETATM    4  C   UNL     1     -33.532  -3.305 -17.221  1.00  0.00     0.027 C 
BRANCH   4   5
HETATM    5  C   UNL     1     -34.598  -2.882 -16.218  1.00  0.00     0.004 C 
BRANCH   5   6
HETATM    6  C   UNL     1     -35.264  -1.616 -16.723  1.00  0.00     0.000 C 
BRANCH   6   7
HETATM    7  C   UNL     1     -35.110  -0.498 -15.712  1.00  0.00     0.000 C 
BRANCH   7   8
HETATM    8  C   UNL     1     -36.216  -0.593 -14.677  1.00  0.00     0.000 C 
BRANCH   8   9
HETATM    9  C   UNL     1     -35.641  -0.399 -13.288  1.00  0.00     0.000 C 
BRANCH   9  10
HETATM   10  C   UNL     1     -34.865  -1.635 -12.873  1.00  0.00     0.000 C 
BRANCH  10  11
HETATM   11  C   UNL     1     -34.827  -1.738 -11.359  1.00  0.00     0.000 C 
BRANCH  11  12
HETATM   12  C   UNL     1     -33.451  -2.190 -10.905  1.00  0.00     0.000 C 
BRANCH  12  13
HETATM   13  C   UNL     1     -33.205  -3.622 -11.344  1.00  0.00     0.000 C 
BRANCH  13  14
HETATM   14  C   UNL     1     -34.099  -4.572 -10.565  1.00  0.00    -0.000 C 
BRANCH  14  15
HETATM   15  C   UNL     1     -33.842  -6.010 -10.990  1.00  0.00    -0.005 C 
HETATM   16  C   UNL     1     -34.622  -6.962 -10.106  1.00  0.00     0.005 C 
ENDBRANCH  14  15
ENDBRANCH  13  14
ENDBRANCH  12  13
ENDBRANCH  11  12
ENDBRANCH  10  11
ENDBRANCH   9  10
ENDBRANCH   8   9
ENDBRANCH   7   8
ENDBRANCH   6   7
ENDBRANCH   5   6
ENDBRANCH   4   5
ENDBRANCH   3   4
ENDBRANCH   1   2
BRANCH   1  17
HETATM   17  C   UNL     1     -29.259  -6.022 -17.279  1.00  0.00     0.140 C 
BRANCH  17  18
HETATM   18  C   UNL     1     -28.217  -6.847 -16.439  1.00  0.00     0.208 C 
BRANCH  18  19
HETATM   19  O   UNL     1     -27.246  -5.996 -15.782  1.00  0.00    -0.295 OA
BRANCH  19  20
HETATM   20  P   UNL     1     -25.657  -6.348 -15.927  1.00  0.00     0.393 P 
HETATM   21  O   UNL     1     -25.237  -7.650 -15.412  1.00  0.00    -0.631 OA
BRANCH  20  22
HETATM   22  O   UNL     1     -25.497  -6.191 -17.505  1.00  0.00    -0.307 OA
HETATM   23  H   UNL     1     -26.315  -5.800 -17.885  1.00  0.00     0.222 HD
ENDBRANCH  20  22
BRANCH  20  24
HETATM   24  O   UNL     1     -24.840  -5.059 -15.398  1.00  0.00    -0.295 OA
BRANCH  24  25
HETATM   25  C   UNL     1     -24.610  -4.859 -13.999  1.00  0.00     0.208 C 
BRANCH  25  26
HETATM   26  C   UNL     1     -23.614  -3.751 -13.523  1.00  0.00     0.262 C 
BRANCH  26  27
HETATM   27  N   UNL     1     -23.406  -3.733 -11.987  1.00  0.00    -0.077 N 
HETATM   28  C   UNL     1     -22.141  -2.967 -11.649  1.00  0.00     0.271 C 
HETATM   29  C   UNL     1     -24.609  -3.108 -11.288  1.00  0.00     0.271 C 
HETATM   30  C   UNL     1     -23.236  -5.165 -11.467  1.00  0.00     0.271 C 
ENDBRANCH  26  27
ENDBRANCH  25  26
ENDBRANCH  24  25
ENDBRANCH  20  24
ENDBRANCH  19  20
ENDBRANCH  18  19
ENDBRANCH  17  18
BRANCH  17  31
HETATM   31  N   UNL     1     -29.512  -6.733 -18.563  1.00  0.00    -0.359 N 
HETATM   32  H   UNL     1     -29.158  -6.302 -19.409  1.00  0.00     0.162 HD
BRANCH  31  33
HETATM   33  C   UNL     1     -30.198  -7.907 -18.730  1.00  0.00     0.349 C 
HETATM   34  O   UNL     1     -29.795  -8.919 -19.233  1.00  0.00    -0.284 OA
ENDBRANCH  31  33
ENDBRANCH  17  31
ENDBRANCH   1  17
BRANCH   1  35
HETATM   35  O   UNL     1     -30.291  -5.421 -15.095  1.00  0.00    -0.390 OA
HETATM   36  H   UNL     1     -30.476  -6.219 -14.561  1.00  0.00     0.210 HD
ENDBRANCH   1  35
TORSDOF 25
ENDMDL
MODEL 3
REMARK VINA RESULT:      -6.5     13.839     16.847
REMARK  25 active torsions:
REMARK  status: ('A' for Active; 'I' for Inactive)
REMARK    1  A    between atoms: C_2  and  C_3 
REMARK    2  A    between atoms: C_3  and  C_4 
REMARK    3  A    between atoms: C_4  and  C_5 
REMARK    4  A    between atoms: C_5  and  C_6 
REMARK    5  A    between atoms: C_6  and  C_7 
REMARK    6  A    between atoms: C_7  and  C_8 
REMARK    7  A    between atoms: C_8  and  C_9 
REMARK    8  A    between atoms: C_9  and  C_10 
REMARK    9  A    between atoms: C_10  and  C_11 
REMARK   10  A    between atoms: C_11  and  C_12 
REMARK   11  A    between atoms: C_12  and  C_13 
REMARK   12  A    between atoms: C_13  and  C_14 
REMARK   13  A    between atoms: C_15  and  C_16 
REMARK   14  A    between atoms: C_16  and  C_17 
REMARK   15  A    between atoms: C_16  and  O_33 
REMARK   16  A    between atoms: C_17  and  C_18 
REMARK   17  A    between atoms: C_17  and  N_30 
REMARK   18  A    between atoms: C_18  and  O_19 
REMARK   19  A    between atoms: O_19  and  P_20 
REMARK   20  A    between atoms: P_20  and  O_22 
REMARK   21  A    between atoms: P_20  and  O_23 
REMARK   22  A    between atoms: O_23  and  C_24 
REMARK   23  A    between atoms: C_24  and  C_25 
REMARK   24  A    between atoms: C_25  and  N_26 
REMARK   25  A    between atoms: N_30  and  C_31 
ROOT
HETATM    1  C   UNL     1     -21.462  -6.362  -2.469  1.00  0.00     0.165 C 
ENDROOT
BRANCH   1   2
HETATM    2  C   UNL     1     -21.562  -7.675  -1.744  1.00  0.00     0.003 C 
HETATM    3  C   UNL     1     -22.299  -7.867  -0.641  1.00  0.00    -0.028 C 
BRANCH   3   4
HETATM    4  C   UNL     1     -22.305  -9.102   0.175  1.00  0.00     0.027 C 
BRANCH   4   5
HETATM    5  C   UNL     1     -23.727  -9.635   0.289  1.00  0.00     0.004 C 
BRANCH   5   6
HETATM    6  C   UNL     1     -23.716 -11.117  -0.030  1.00  0.00     0.000 C 
BRANCH   6   7
HETATM    7  C   UNL     1     -23.788 -11.336  -1.528  1.00  0.00     0.000 C 
BRANCH   7   8
HETATM    8  C   UNL     1     -23.005 -12.583  -1.897  1.00  0.00     0.000 C 
BRANCH   8   9
HETATM    9  C   UNL     1     -21.541 -12.396  -1.550  1.00  0.00     0.000 C 
BRANCH   9  10
HETATM   10  C   UNL     1     -20.922 -11.361  -2.471  1.00  0.00     0.000 C 
BRANCH  10  11
HETATM   11  C   UNL     1     -19.635 -10.833  -1.864  1.00  0.00     0.000 C 
BRANCH  11  12
HETATM   12  C   UNL     1     -18.571 -10.699  -2.939  1.00  0.00     0.000 C 
BRANCH  12  13
HETATM   13  C   UNL     1     -17.832  -9.384  -2.776  1.00  0.00     0.000 C 
BRANCH  13  14
HETATM   14  C   UNL     1     -16.333  -9.606  -2.890  1.00  0.00    -0.000 C 
BRANCH  14  15
HETATM   15  C   UNL     1     -15.997 -11.075  -2.681  1.00  0.00    -0.005 C 
HETATM   16  C   UNL     1     -15.720 -11.344  -1.216  1.00  0.00     0.005 C 
ENDBRANCH  14  15
ENDBRANCH  13  14
ENDBRANCH  12  13
ENDBRANCH  11  12
ENDBRANCH  10  11
ENDBRANCH   9  10
ENDBRANCH   8   9
ENDBRANCH   7   8
ENDBRANCH   6   7
ENDBRANCH   5   6
ENDBRANCH   4   5
ENDBRANCH   3   4
ENDBRANCH   1   2
BRANCH   1  17
HETATM   17  C   UNL     1     -21.683  -6.458  -4.025  1.00  0.00     0.140 C 
BRANCH  17  18
HETATM   18  C   UNL     1     -20.436  -5.934  -4.827  1.00  0.00     0.208 C 
BRANCH  18  19
HETATM   19  O   UNL     1     -20.720  -4.704  -5.538  1.00  0.00    -0.295 OA
BRANCH  19  20
HETATM   20  P   UNL     1     -20.966  -4.763  -7.152  1.00  0.00     0.393 P 
HETATM   21  O   UNL     1     -19.951  -4.117  -7.983  1.00  0.00    -0.631 OA
BRANCH  20  22
HETATM   22  O   UNL     1     -21.057  -6.342  -7.347  1.00  0.00    -0.307 OA
HETATM   23  H   UNL     1     -21.501  -6.748  -6.569  1.00  0.00     0.222 HD
ENDBRANCH  20  22
BRANCH  20  24
HETATM   24  O   UNL     1     -22.501  -4.326  -7.409  1.00  0.00    -0.295 OA
BRANCH  24  25
HETATM   25  C   UNL     1     -23.085  -4.431  -8.713  1.00  0.00     0.208 C 
BRANCH  25  26
HETATM   26  C   UNL     1     -22.901  -3.270  -9.745  1.00  0.00     0.262 C 
BRANCH  26  27
HETATM   27  N   UNL     1     -22.640  -3.769 -11.189  1.00  0.00    -0.077 N 
HETATM   28  C   UNL     1     -21.202  -4.232 -11.321  1.00  0.00     0.271 C 
HETATM   29  C   UNL     1     -23.598  -4.901 -11.547  1.00  0.00     0.271 C 
HETATM   30  C   UNL     1     -22.854  -2.623 -12.184  1.00  0.00     0.271 C 
ENDBRANCH  26  27
ENDBRANCH  25  26
ENDBRANCH  24  25
ENDBRANCH  20  24
ENDBRANCH  19  20
ENDBRANCH  18  19
ENDBRANCH  17  18
BRANCH  17  31
HETATM   31  N   UNL     1     -22.019  -7.829  -4.502  1.00  0.00    -0.359 N 
HETATM   32  H   UNL     1     -22.991  -8.111  -4.453  1.00  0.00     0.162 HD
BRANCH  31  33
HETATM   33  C   UNL     1     -21.145  -8.768  -4.982  1.00  0.00     0.349 C 
HETATM   34  O   UNL     1     -21.141  -9.266  -6.073  1.00  0.00    -0.284 OA
ENDBRANCH  31  33
ENDBRANCH  17  31
ENDBRANCH   1  17
BRANCH   1  35
HETATM   35  O   UNL     1     -22.373  -5.473  -1.846  1.00  0.00    -0.390 OA
HETATM   36  H   UNL     1     -22.655  -5.863  -0.995  1.00  0.00     0.210 HD
ENDBRANCH   1  35
TORSDOF 25
ENDMDL
MODEL 4
REMARK VINA RESULT:      -6.4      1.461      2.237
REMARK  25 active torsions:
REMARK  status: ('A' for Active; 'I' for Inactive)
REMARK    1  A    between atoms: C_2  and  C_3 
REMARK    2  A    between atoms: C_3  and  C_4 
REMARK    3  A    between atoms: C_4  and  C_5 
REMARK    4  A    between atoms: C_5  and  C_6 
REMARK    5  A    between atoms: C_6  and  C_7 
REMARK    6  A    between atoms: C_7  and  C_8 
REMARK    7  A    between atoms: C_8  and  C_9 
REMARK    8  A    between atoms: C_9  and  C_10 
REMARK    9  A    between atoms: C_10  and  C_11 
REMARK   10  A    between atoms: C_11  and  C_12 
REMARK   11  A    between atoms: C_12  and  C_13 
REMARK   12  A    between atoms: C_13  and  C_14 
REMARK   13  A    between atoms: C_15  and  C_16 
REMARK   14  A    between atoms: C_16  and  C_17 
REMARK   15  A    between atoms: C_16  and  O_33 
REMARK   16  A    between atoms: C_17  and  C_18 
REMARK   17  A    between atoms: C_17  and  N_30 
REMARK   18  A    between atoms: C_18  and  O_19 
REMARK   19  A    between atoms: O_19  and  P_20 
REMARK   20  A    between atoms: P_20  and  O_22 
REMARK   21  A    between atoms: P_20  and  O_23 
REMARK   22  A    between atoms: O_23  and  C_24 
REMARK   23  A    between atoms: C_24  and  C_25 
REMARK   24  A    between atoms: C_25  and  N_26 
REMARK   25  A    between atoms: N_30  and  C_31 
ROOT
HETATM    1  C   UNL     1     -31.155  -4.127 -16.937  1.00  0.00     0.165 C 
ENDROOT
BRANCH   1   2
HETATM    2  C   UNL     1     -32.634  -4.083 -16.675  1.00  0.00     0.003 C 
HETATM    3  C   UNL     1     -33.416  -3.037 -16.973  1.00  0.00    -0.028 C 
BRANCH   3   4
HETATM    4  C   UNL     1     -34.842  -2.904 -16.598  1.00  0.00     0.027 C 
BRANCH   4   5
HETATM    5  C   UNL     1     -35.271  -1.448 -16.720  1.00  0.00     0.004 C 
BRANCH   5   6
HETATM    6  C   UNL     1     -35.838  -0.997 -15.387  1.00  0.00     0.000 C 
BRANCH   6   7
HETATM    7  C   UNL     1     -35.152   0.274 -14.925  1.00  0.00     0.000 C 
BRANCH   7   8
HETATM    8  C   UNL     1     -35.015   0.255 -13.414  1.00  0.00     0.000 C 
BRANCH   8   9
HETATM    9  C   UNL     1     -34.914  -1.176 -12.922  1.00  0.00     0.000 C 
BRANCH   9  10
HETATM   10  C   UNL     1     -35.084  -1.217 -11.415  1.00  0.00     0.000 C 
BRANCH  10  11
HETATM   11  C   UNL     1     -35.473  -2.616 -10.975  1.00  0.00     0.000 C 
BRANCH  11  12
HETATM   12  C   UNL     1     -34.234  -3.487 -10.863  1.00  0.00     0.000 C 
BRANCH  12  13
HETATM   13  C   UNL     1     -34.428  -4.769 -11.653  1.00  0.00     0.000 C 
BRANCH  13  14
HETATM   14  C   UNL     1     -33.760  -5.932 -10.939  1.00  0.00    -0.000 C 
BRANCH  14  15
HETATM   15  C   UNL     1     -34.769  -6.676 -10.077  1.00  0.00    -0.005 C 
HETATM   16  C   UNL     1     -34.399  -8.143  -9.988  1.00  0.00     0.005 C 
ENDBRANCH  14  15
ENDBRANCH  13  14
ENDBRANCH  12  13
ENDBRANCH  11  12
ENDBRANCH  10  11
ENDBRANCH   9  10
ENDBRANCH   8   9
ENDBRANCH   7   8
ENDBRANCH   6   7
ENDBRANCH   5   6
ENDBRANCH   4   5
ENDBRANCH   3   4
ENDBRANCH   1   2
BRANCH   1  17
HETATM   17  C   UNL     1     -30.530  -5.572 -16.905  1.00  0.00     0.140 C 
BRANCH  17  18
HETATM   18  C   UNL     1     -29.930  -5.919 -15.493  1.00  0.00     0.208 C 
BRANCH  18  19
HETATM   19  O   UNL     1     -28.504  -5.673 -15.428  1.00  0.00    -0.295 OA
BRANCH  19  20
HETATM   20  P   UNL     1     -27.488  -6.697 -16.193  1.00  0.00     0.393 P 
HETATM   21  O   UNL     1     -26.402  -7.250 -15.385  1.00  0.00    -0.631 OA
BRANCH  20  22
HETATM   22  O   UNL     1     -28.540  -7.783 -16.697  1.00  0.00    -0.307 OA
HETATM   23  H   UNL     1     -28.066  -8.587 -17.007  1.00  0.00     0.222 HD
ENDBRANCH  20  22
BRANCH  20  24
HETATM   24  O   UNL     1     -27.072  -5.993 -17.587  1.00  0.00    -0.295 OA
BRANCH  24  25
HETATM   25  C   UNL     1     -27.460  -6.564 -18.842  1.00  0.00     0.208 C 
BRANCH  25  26
HETATM   26  C   UNL     1     -26.787  -6.070 -20.164  1.00  0.00     0.262 C 
BRANCH  26  27
HETATM   27  N   UNL     1     -25.595  -6.953 -20.612  1.00  0.00    -0.077 N 
HETATM   28  C   UNL     1     -24.649  -7.168 -19.446  1.00  0.00     0.271 C 
HETATM   29  C   UNL     1     -26.089  -8.292 -21.150  1.00  0.00     0.271 C 
HETATM   30  C   UNL     1     -24.811  -6.246 -21.724  1.00  0.00     0.271 C 
ENDBRANCH  26  27
ENDBRANCH  25  26
ENDBRANCH  24  25
ENDBRANCH  20  24
ENDBRANCH  19  20
ENDBRANCH  18  19
ENDBRANCH  17  18
BRANCH  17  31
HETATM   31  N   UNL     1     -31.481  -6.648 -17.301  1.00  0.00    -0.359 N 
HETATM   32  H   UNL     1     -32.235  -6.859 -16.658  1.00  0.00     0.162 HD
BRANCH  31  33
HETATM   33  C   UNL     1     -31.433  -7.408 -18.440  1.00  0.00     0.349 C 
HETATM   34  O   UNL     1     -30.564  -8.166 -18.772  1.00  0.00    -0.284 OA
ENDBRANCH  31  33
ENDBRANCH  17  31
ENDBRANCH   1  17
BRANCH   1  35
HETATM   35  O   UNL     1     -30.931  -3.468 -18.170  1.00  0.00    -0.390 OA
HETATM   36  H   UNL     1     -30.449  -4.076 -18.765  1.00  0.00     0.210 HD
ENDBRANCH   1  35
TORSDOF 25
ENDMDL
MODEL 5
REMARK VINA RESULT:      -6.3      2.294      3.757
REMARK  25 active torsions:
REMARK  status: ('A' for Active; 'I' for Inactive)
REMARK    1  A    between atoms: C_2  and  C_3 
REMARK    2  A    between atoms: C_3  and  C_4 
REMARK    3  A    between atoms: C_4  and  C_5 
REMARK    4  A    between atoms: C_5  and  C_6 
REMARK    5  A    between atoms: C_6  and  C_7 
REMARK    6  A    between atoms: C_7  and  C_8 
REMARK    7  A    between atoms: C_8  and  C_9 
REMARK    8  A    between atoms: C_9  and  C_10 
REMARK    9  A    between atoms: C_10  and  C_11 
REMARK   10  A    between atoms: C_11  and  C_12 
REMARK   11  A    between atoms: C_12  and  C_13 
REMARK   12  A    between atoms: C_13  and  C_14 
REMARK   13  A    between atoms: C_15  and  C_16 
REMARK   14  A    between atoms: C_16  and  C_17 
REMARK   15  A    between atoms: C_16  and  O_33 
REMARK   16  A    between atoms: C_17  and  C_18 
REMARK   17  A    between atoms: C_17  and  N_30 
REMARK   18  A    between atoms: C_18  and  O_19 
REMARK   19  A    between atoms: O_19  and  P_20 
REMARK   20  A    between atoms: P_20  and  O_22 
REMARK   21  A    between atoms: P_20  and  O_23 
REMARK   22  A    between atoms: O_23  and  C_24 
REMARK   23  A    between atoms: C_24  and  C_25 
REMARK   24  A    between atoms: C_25  and  N_26 
REMARK   25  A    between atoms: N_30  and  C_31 
ROOT
HETATM    1  C   UNL     1     -33.177  -3.235 -16.828  1.00  0.00     0.165 C 
ENDROOT
BRANCH   1   2
HETATM    2  C   UNL     1     -34.448  -2.477 -17.091  1.00  0.00     0.003 C 
HETATM    3  C   UNL     1     -34.939  -1.533 -16.276  1.00  0.00    -0.028 C 
BRANCH   3   4
HETATM    4  C   UNL     1     -36.255  -0.874 -16.431  1.00  0.00     0.027 C 
BRANCH   4   5
HETATM    5  C   UNL     1     -36.386   0.255 -15.417  1.00  0.00     0.004 C 
BRANCH   5   6
HETATM    6  C   UNL     1     -35.002   0.618 -14.914  1.00  0.00     0.000 C 
BRANCH   6   7
HETATM    7  C   UNL     1     -35.036   0.892 -13.424  1.00  0.00     0.000 C 
BRANCH   7   8
HETATM    8  C   UNL     1     -34.643  -0.363 -12.668  1.00  0.00     0.000 C 
BRANCH   8   9
HETATM    9  C   UNL     1     -35.816  -0.857 -11.843  1.00  0.00     0.000 C 
BRANCH   9  10
HETATM   10  C   UNL     1     -35.451  -2.162 -11.160  1.00  0.00     0.000 C 
BRANCH  10  11
HETATM   11  C   UNL     1     -33.971  -2.176 -10.827  1.00  0.00     0.000 C 
BRANCH  11  12
HETATM   12  C   UNL     1     -33.355  -3.494 -11.259  1.00  0.00     0.000 C 
BRANCH  12  13
HETATM   13  C   UNL     1     -34.258  -4.184 -12.265  1.00  0.00     0.000 C 
BRANCH  13  14
HETATM   14  C   UNL     1     -34.534  -5.614 -11.831  1.00  0.00    -0.000 C 
BRANCH  14  15
HETATM   15  C   UNL     1     -34.461  -5.731 -10.316  1.00  0.00    -0.005 C 
HETATM   16  C   UNL     1     -34.741  -7.158  -9.888  1.00  0.00     0.005 C 
ENDBRANCH  14  15
ENDBRANCH  13  14
ENDBRANCH  12  13
ENDBRANCH  11  12
ENDBRANCH  10  11
ENDBRANCH   9  10
ENDBRANCH   8   9
ENDBRANCH   7   8
ENDBRANCH   6   7
ENDBRANCH   5   6
ENDBRANCH   4   5
ENDBRANCH   3   4
ENDBRANCH   1   2
BRANCH   1  17
HETATM   17  C   UNL     1     -33.359  -4.796 -16.725  1.00  0.00     0.140 C 
BRANCH  17  18
HETATM   18  C   UNL     1     -32.004  -5.521 -16.391  1.00  0.00     0.208 C 
BRANCH  18  19
HETATM   19  O   UNL     1     -30.976  -5.240 -17.373  1.00  0.00    -0.295 OA
BRANCH  19  20
HETATM   20  P   UNL     1     -29.623  -6.155 -17.386  1.00  0.00     0.393 P 
HETATM   21  O   UNL     1     -28.895  -6.246 -16.121  1.00  0.00    -0.631 OA
BRANCH  20  22
HETATM   22  O   UNL     1     -30.245  -7.537 -17.878  1.00  0.00    -0.307 OA
HETATM   23  H   UNL     1     -30.830  -7.381 -18.653  1.00  0.00     0.222 HD
ENDBRANCH  20  22
BRANCH  20  24
HETATM   24  O   UNL     1     -28.770  -5.713 -18.686  1.00  0.00    -0.295 OA
BRANCH  24  25
HETATM   25  C   UNL     1     -27.510  -6.327 -18.979  1.00  0.00     0.208 C 
BRANCH  25  26
HETATM   26  C   UNL     1     -26.764  -5.979 -20.309  1.00  0.00     0.262 C 
BRANCH  26  27
HETATM   27  N   UNL     1     -25.596  -6.946 -20.628  1.00  0.00    -0.077 N 
HETATM   28  C   UNL     1     -24.751  -6.377 -21.752  1.00  0.00     0.271 C 
HETATM   29  C   UNL     1     -24.741  -7.183 -19.387  1.00  0.00     0.271 C 
HETATM   30  C   UNL     1     -26.149  -8.296 -21.098  1.00  0.00     0.271 C 
ENDBRANCH  26  27
ENDBRANCH  25  26
ENDBRANCH  24  25
ENDBRANCH  20  24
ENDBRANCH  19  20
ENDBRANCH  18  19
ENDBRANCH  17  18
BRANCH  17  31
HETATM   31  N   UNL     1     -34.387  -5.217 -15.733  1.00  0.00    -0.359 N 
HETATM   32  H   UNL     1     -34.413  -4.717 -14.852  1.00  0.00     0.162 HD
BRANCH  31  33
HETATM   33  C   UNL     1     -35.295  -6.234 -15.872  1.00  0.00     0.349 C 
HETATM   34  O   UNL     1     -36.002  -6.698 -15.022  1.00  0.00    -0.284 OA
ENDBRANCH  31  33
ENDBRANCH  17  31
ENDBRANCH   1  17
BRANCH   1  35
HETATM   35  O   UNL     1     -32.255  -2.863 -17.837  1.00  0.00    -0.390 OA
HETATM   36  H   UNL     1     -31.883  -3.676 -18.233  1.00  0.00     0.210 HD
ENDBRANCH   1  35
TORSDOF 25
ENDMDL
MODEL 6
REMARK VINA RESULT:      -6.1     15.934     18.551
REMARK  25 active torsions:
REMARK  status: ('A' for Active; 'I' for Inactive)
REMARK    1  A    between atoms: C_2  and  C_3 
REMARK    2  A    between atoms: C_3  and  C_4 
REMARK    3  A    between atoms: C_4  and  C_5 
REMARK    4  A    between atoms: C_5  and  C_6 
REMARK    5  A    between atoms: C_6  and  C_7 
REMARK    6  A    between atoms: C_7  and  C_8 
REMARK    7  A    between atoms: C_8  and  C_9 
REMARK    8  A    between atoms: C_9  and  C_10 
REMARK    9  A    between atoms: C_10  and  C_11 
REMARK   10  A    between atoms: C_11  and  C_12 
REMARK   11  A    between atoms: C_12  and  C_13 
REMARK   12  A    between atoms: C_13  and  C_14 
REMARK   13  A    between atoms: C_15  and  C_16 
REMARK   14  A    between atoms: C_16  and  C_17 
REMARK   15  A    between atoms: C_16  and  O_33 
REMARK   16  A    between atoms: C_17  and  C_18 
REMARK   17  A    between atoms: C_17  and  N_30 
REMARK   18  A    between atoms: C_18  and  O_19 
REMARK   19  A    between atoms: O_19  and  P_20 
REMARK   20  A    between atoms: P_20  and  O_22 
REMARK   21  A    between atoms: P_20  and  O_23 
REMARK   22  A    between atoms: O_23  and  C_24 
REMARK   23  A    between atoms: C_24  and  C_25 
REMARK   24  A    between atoms: C_25  and  N_26 
REMARK   25  A    between atoms: N_30  and  C_31 
ROOT
HETATM    1  C   UNL     1     -21.403  -6.390  -4.080  1.00  0.00     0.165 C 
ENDROOT
BRANCH   1   2
HETATM    2  C   UNL     1     -21.554  -7.079  -2.754  1.00  0.00     0.003 C 
HETATM    3  C   UNL     1     -22.325  -6.622  -1.757  1.00  0.00    -0.028 C 
BRANCH   3   4
HETATM    4  C   UNL     1     -22.383  -7.196  -0.393  1.00  0.00     0.027 C 
BRANCH   4   5
HETATM    5  C   UNL     1     -21.305  -8.261  -0.239  1.00  0.00     0.004 C 
BRANCH   5   6
HETATM    6  C   UNL     1     -21.267  -8.707   1.210  1.00  0.00     0.000 C 
BRANCH   6   7
HETATM    7  C   UNL     1     -20.580 -10.052   1.332  1.00  0.00     0.000 C 
BRANCH   7   8
HETATM    8  C   UNL     1     -20.339 -10.626  -0.052  1.00  0.00     0.000 C 
BRANCH   8   9
HETATM    9  C   UNL     1     -19.905 -12.075   0.058  1.00  0.00     0.000 C 
BRANCH   9  10
HETATM   10  C   UNL     1     -20.353 -12.842  -1.172  1.00  0.00     0.000 C 
BRANCH  10  11
HETATM   11  C   UNL     1     -20.987 -14.157  -0.759  1.00  0.00     0.000 C 
BRANCH  11  12
HETATM   12  C   UNL     1     -21.949 -13.930   0.393  1.00  0.00     0.000 C 
BRANCH  12  13
HETATM   13  C   UNL     1     -23.258 -13.365  -0.129  1.00  0.00     0.000 C 
BRANCH  13  14
HETATM   14  C   UNL     1     -23.692 -12.178   0.716  1.00  0.00    -0.000 C 
BRANCH  14  15
HETATM   15  C   UNL     1     -23.948 -10.965  -0.167  1.00  0.00    -0.005 C 
HETATM   16  C   UNL     1     -23.678 -11.309  -1.618  1.00  0.00     0.005 C 
ENDBRANCH  14  15
ENDBRANCH  13  14
ENDBRANCH  12  13
ENDBRANCH  11  12
ENDBRANCH  10  11
ENDBRANCH   9  10
ENDBRANCH   8   9
ENDBRANCH   7   8
ENDBRANCH   6   7
ENDBRANCH   5   6
ENDBRANCH   4   5
ENDBRANCH   3   4
ENDBRANCH   1   2
BRANCH   1  17
HETATM   17  C   UNL     1     -20.442  -7.123  -5.090  1.00  0.00     0.140 C 
BRANCH  17  18
HETATM   18  C   UNL     1     -20.371  -8.668  -4.813  1.00  0.00     0.208 C 
BRANCH  18  19
HETATM   19  O   UNL     1     -19.576  -9.367  -5.803  1.00  0.00    -0.295 OA
BRANCH  19  20
HETATM   20  P   UNL     1     -18.311 -10.274  -5.306  1.00  0.00     0.393 P 
HETATM   21  O   UNL     1     -18.442 -11.718  -5.491  1.00  0.00    -0.631 OA
BRANCH  20  22
HETATM   22  O   UNL     1     -17.154  -9.609  -6.176  1.00  0.00    -0.307 OA
HETATM   23  H   UNL     1     -17.545  -9.133  -6.943  1.00  0.00     0.222 HD
ENDBRANCH  20  22
BRANCH  20  24
HETATM   24  O   UNL     1     -17.921  -9.764  -3.823  1.00  0.00    -0.295 OA
BRANCH  24  25
HETATM   25  C   UNL     1     -17.565 -10.696  -2.796  1.00  0.00     0.208 C 
BRANCH  25  26
HETATM   26  C   UNL     1     -16.069 -11.107  -2.600  1.00  0.00     0.262 C 
BRANCH  26  27
HETATM   27  N   UNL     1     -15.793 -12.595  -2.932  1.00  0.00    -0.077 N 
HETATM   28  C   UNL     1     -14.758 -13.152  -1.974  1.00  0.00     0.271 C 
HETATM   29  C   UNL     1     -17.081 -13.410  -2.856  1.00  0.00     0.271 C 
HETATM   30  C   UNL     1     -15.228 -12.718  -4.352  1.00  0.00     0.271 C 
ENDBRANCH  26  27
ENDBRANCH  25  26
ENDBRANCH  24  25
ENDBRANCH  20  24
ENDBRANCH  19  20
ENDBRANCH  18  19
ENDBRANCH  17  18
BRANCH  17  31
HETATM   31  N   UNL     1     -20.795  -6.907  -6.521  1.00  0.00    -0.359 N 
HETATM   32  H   UNL     1     -21.191  -7.692  -7.024  1.00  0.00     0.162 HD
BRANCH  31  33
HETATM   33  C   UNL     1     -20.619  -5.758  -7.246  1.00  0.00     0.349 C 
HETATM   34  O   UNL     1     -21.455  -5.144  -7.850  1.00  0.00    -0.284 OA
ENDBRANCH  31  33
ENDBRANCH  17  31
ENDBRANCH   1  17
BRANCH   1  35
HETATM   35  O   UNL     1     -22.706  -6.210  -4.607  1.00  0.00    -0.390 OA
HETATM   36  H   UNL     1     -23.215  -7.033  -4.464  1.00  0.00     0.210 HD
ENDBRANCH   1  35
TORSDOF 25
ENDMDL
MODEL 7
REMARK VINA RESULT:      -5.9     13.328     16.487
REMARK  25 active torsions:
REMARK  status: ('A' for Active; 'I' for Inactive)
REMARK    1  A    between atoms: C_2  and  C_3 
REMARK    2  A    between atoms: C_3  and  C_4 
REMARK    3  A    between atoms: C_4  and  C_5 
REMARK    4  A    between atoms: C_5  and  C_6 
REMARK    5  A    between atoms: C_6  and  C_7 
REMARK    6  A    between atoms: C_7  and  C_8 
REMARK    7  A    between atoms: C_8  and  C_9 
REMARK    8  A    between atoms: C_9  and  C_10 
REMARK    9  A    between atoms: C_10  and  C_11 
REMARK   10  A    between atoms: C_11  and  C_12 
REMARK   11  A    between atoms: C_12  and  C_13 
REMARK   12  A    between atoms: C_13  and  C_14 
REMARK   13  A    between atoms: C_15  and  C_16 
REMARK   14  A    between atoms: C_16  and  C_17 
REMARK   15  A    between atoms: C_16  and  O_33 
REMARK   16  A    between atoms: C_17  and  C_18 
REMARK   17  A    between atoms: C_17  and  N_30 
REMARK   18  A    between atoms: C_18  and  O_19 
REMARK   19  A    between atoms: O_19  and  P_20 
REMARK   20  A    between atoms: P_20  and  O_22 
REMARK   21  A    between atoms: P_20  and  O_23 
REMARK   22  A    between atoms: O_23  and  C_24 
REMARK   23  A    between atoms: C_24  and  C_25 
REMARK   24  A    between atoms: C_25  and  N_26 
REMARK   25  A    between atoms: N_30  and  C_31 
ROOT
HETATM    1  C   UNL     1     -20.898 -11.130  -5.461  1.00  0.00     0.165 C 
ENDROOT
BRANCH   1   2
HETATM    2  C   UNL     1     -21.534  -9.773  -5.353  1.00  0.00     0.003 C 
HETATM    3  C   UNL     1     -20.843  -8.627  -5.271  1.00  0.00    -0.028 C 
BRANCH   3   4
HETATM    4  C   UNL     1     -21.433  -7.293  -5.019  1.00  0.00     0.027 C 
BRANCH   4   5
HETATM    5  C   UNL     1     -20.339  -6.234  -5.051  1.00  0.00     0.004 C 
BRANCH   5   6
HETATM    6  C   UNL     1     -20.884  -4.993  -5.730  1.00  0.00     0.000 C 
BRANCH   6   7
HETATM    7  C   UNL     1     -21.471  -5.344  -7.082  1.00  0.00     0.000 C 
BRANCH   7   8
HETATM    8  C   UNL     1     -20.372  -5.348  -8.127  1.00  0.00     0.000 C 
BRANCH   8   9
HETATM    9  C   UNL     1     -20.461  -4.094  -8.976  1.00  0.00     0.000 C 
BRANCH   9  10
HETATM   10  C   UNL     1     -20.531  -4.470 -10.444  1.00  0.00     0.000 C 
BRANCH  10  11
HETATM   11  C   UNL     1     -20.419  -3.224 -11.303  1.00  0.00     0.000 C 
BRANCH  11  12
HETATM   12  C   UNL     1     -21.776  -2.870 -11.884  1.00  0.00     0.000 C 
BRANCH  12  13
HETATM   13  C   UNL     1     -22.721  -4.051 -11.749  1.00  0.00     0.000 C 
BRANCH  13  14
HETATM   14  C   UNL     1     -24.160  -3.567 -11.686  1.00  0.00    -0.000 C 
BRANCH  14  15
HETATM   15  C   UNL     1     -24.557  -3.271 -10.247  1.00  0.00    -0.005 C 
HETATM   16  C   UNL     1     -24.127  -4.408  -9.342  1.00  0.00     0.005 C 
ENDBRANCH  14  15
ENDBRANCH  13  14
ENDBRANCH  12  13
ENDBRANCH  11  12
ENDBRANCH  10  11
ENDBRANCH   9  10
ENDBRANCH   8   9
ENDBRANCH   7   8
ENDBRANCH   6   7
ENDBRANCH   5   6
ENDBRANCH   4   5
ENDBRANCH   3   4
ENDBRANCH   1   2
BRANCH   1  17
HETATM   17  C   UNL     1     -19.373 -11.106  -5.856  1.00  0.00     0.140 C 
BRANCH  17  18
HETATM   18  C   UNL     1     -18.492 -11.912  -4.833  1.00  0.00     0.208 C 
BRANCH  18  19
HETATM   19  O   UNL     1     -17.490 -11.080  -4.199  1.00  0.00    -0.295 OA
BRANCH  19  20
HETATM   20  P   UNL     1     -17.746 -10.556  -2.673  1.00  0.00     0.393 P 
HETATM   21  O   UNL     1     -17.519 -11.534  -1.610  1.00  0.00    -0.631 OA
BRANCH  20  22
HETATM   22  O   UNL     1     -16.738  -9.322  -2.646  1.00  0.00    -0.307 OA
HETATM   23  H   UNL     1     -15.906  -9.562  -3.112  1.00  0.00     0.222 HD
ENDBRANCH  20  22
BRANCH  20  24
HETATM   24  O   UNL     1     -19.172  -9.797  -2.670  1.00  0.00    -0.295 OA
BRANCH  24  25
HETATM   25  C   UNL     1     -20.047  -9.883  -1.539  1.00  0.00     0.208 C 
BRANCH  25  26
HETATM   26  C   UNL     1     -21.533  -9.412  -1.665  1.00  0.00     0.262 C 
BRANCH  26  27
HETATM   27  N   UNL     1     -22.175  -9.038  -0.305  1.00  0.00    -0.077 N 
HETATM   28  C   UNL     1     -22.528  -7.563  -0.291  1.00  0.00     0.271 C 
HETATM   29  C   UNL     1     -23.417  -9.885  -0.046  1.00  0.00     0.271 C 
HETATM   30  C   UNL     1     -21.176  -9.289   0.830  1.00  0.00     0.271 C 
ENDBRANCH  26  27
ENDBRANCH  25  26
ENDBRANCH  24  25
ENDBRANCH  20  24
ENDBRANCH  19  20
ENDBRANCH  18  19
ENDBRANCH  17  18
BRANCH  17  31
HETATM   31  N   UNL     1     -19.099 -11.612  -7.229  1.00  0.00    -0.359 N 
HETATM   32  H   UNL     1     -18.473 -11.065  -7.808  1.00  0.00     0.162 HD
BRANCH  31  33
HETATM   33  C   UNL     1     -19.626 -12.735  -7.811  1.00  0.00     0.349 C 
HETATM   34  O   UNL     1     -19.405 -13.154  -8.913  1.00  0.00    -0.284 OA
ENDBRANCH  31  33
ENDBRANCH  17  31
ENDBRANCH   1  17
BRANCH   1  35
HETATM   35  O   UNL     1     -21.129 -11.796  -4.233  1.00  0.00    -0.390 OA
HETATM   36  H   UNL     1     -21.781 -11.280  -3.717  1.00  0.00     0.210 HD
ENDBRANCH   1  35
TORSDOF 25
ENDMDL
MODEL 8
REMARK VINA RESULT:      -5.7     24.006     27.161
REMARK  25 active torsions:
REMARK  status: ('A' for Active; 'I' for Inactive)
REMARK    1  A    between atoms: C_2  and  C_3 
REMARK    2  A    between atoms: C_3  and  C_4 
REMARK    3  A    between atoms: C_4  and  C_5 
REMARK    4  A    between atoms: C_5  and  C_6 
REMARK    5  A    between atoms: C_6  and  C_7 
REMARK    6  A    between atoms: C_7  and  C_8 
REMARK    7  A    between atoms: C_8  and  C_9 
REMARK    8  A    between atoms: C_9  and  C_10 
REMARK    9  A    between atoms: C_10  and  C_11 
REMARK   10  A    between atoms: C_11  and  C_12 
REMARK   11  A    between atoms: C_12  and  C_13 
REMARK   12  A    between atoms: C_13  and  C_14 
REMARK   13  A    between atoms: C_15  and  C_16 
REMARK   14  A    between atoms: C_16  and  C_17 
REMARK   15  A    between atoms: C_16  and  O_33 
REMARK   16  A    between atoms: C_17  and  C_18 
REMARK   17  A    between atoms: C_17  and  N_30 
REMARK   18  A    between atoms: C_18  and  O_19 
REMARK   19  A    between atoms: O_19  and  P_20 
REMARK   20  A    between atoms: P_20  and  O_22 
REMARK   21  A    between atoms: P_20  and  O_23 
REMARK   22  A    between atoms: O_23  and  C_24 
REMARK   23  A    between atoms: C_24  and  C_25 
REMARK   24  A    between atoms: C_25  and  N_26 
REMARK   25  A    between atoms: N_30  and  C_31 
ROOT
HETATM    1  C   UNL     1     -20.005   8.757   3.966  1.00  0.00     0.165 C 
ENDROOT
BRANCH   1   2
HETATM    2  C   UNL     1     -18.734   8.907   4.755  1.00  0.00     0.003 C 
HETATM    3  C   UNL     1     -18.681   9.393   6.002  1.00  0.00    -0.028 C 
BRANCH   3   4
HETATM    4  C   UNL     1     -17.437   9.688   6.749  1.00  0.00     0.027 C 
BRANCH   4   5
HETATM    5  C   UNL     1     -16.701  10.844   6.084  1.00  0.00     0.004 C 
BRANCH   5   6
HETATM    6  C   UNL     1     -15.212  10.666   6.312  1.00  0.00     0.000 C 
BRANCH   6   7
HETATM    7  C   UNL     1     -14.926   9.297   6.896  1.00  0.00     0.000 C 
BRANCH   7   8
HETATM    8  C   UNL     1     -13.759   8.665   6.161  1.00  0.00     0.000 C 
BRANCH   8   9
HETATM    9  C   UNL     1     -13.855   8.971   4.679  1.00  0.00     0.000 C 
BRANCH   9  10
HETATM   10  C   UNL     1     -14.724   7.933   3.994  1.00  0.00     0.000 C 
BRANCH  10  11
HETATM   11  C   UNL     1     -14.487   7.968   2.495  1.00  0.00     0.000 C 
BRANCH  11  12
HETATM   12  C   UNL     1     -13.763   9.247   2.115  1.00  0.00     0.000 C 
BRANCH  12  13
HETATM   13  C   UNL     1     -14.441   9.891   0.919  1.00  0.00     0.000 C 
BRANCH  13  14
HETATM   14  C   UNL     1     -14.973  11.264   1.294  1.00  0.00    -0.000 C 
BRANCH  14  15
HETATM   15  C   UNL     1     -16.029  11.146   2.382  1.00  0.00    -0.005 C 
HETATM   16  C   UNL     1     -17.305  10.561   1.809  1.00  0.00     0.005 C 
ENDBRANCH  14  15
ENDBRANCH  13  14
ENDBRANCH  12  13
ENDBRANCH  11  12
ENDBRANCH  10  11
ENDBRANCH   9  10
ENDBRANCH   8   9
ENDBRANCH   7   8
ENDBRANCH   6   7
ENDBRANCH   5   6
ENDBRANCH   4   5
ENDBRANCH   3   4
ENDBRANCH   1   2
BRANCH   1  17
HETATM   17  C   UNL     1     -20.660  10.119   3.521  1.00  0.00     0.140 C 
BRANCH  17  18
HETATM   18  C   UNL     1     -21.121  10.082   2.018  1.00  0.00     0.208 C 
BRANCH  18  19
HETATM   19  O   UNL     1     -22.026   8.983   1.750  1.00  0.00    -0.295 OA
BRANCH  19  20
HETATM   20  P   UNL     1     -23.317   9.240   0.781  1.00  0.00     0.393 P 
HETATM   21  O   UNL     1     -24.386  10.067   1.338  1.00  0.00    -0.631 OA
BRANCH  20  22
HETATM   22  O   UNL     1     -22.579   9.890  -0.473  1.00  0.00    -0.307 OA
HETATM   23  H   UNL     1     -22.528  10.866  -0.360  1.00  0.00     0.222 HD
ENDBRANCH  20  22
BRANCH  20  24
HETATM   24  O   UNL     1     -23.747   7.802   0.181  1.00  0.00    -0.295 OA
BRANCH  24  25
HETATM   25  C   UNL     1     -23.251   7.358  -1.086  1.00  0.00     0.208 C 
BRANCH  25  26
HETATM   26  C   UNL     1     -24.153   6.478  -2.012  1.00  0.00     0.262 C 
BRANCH  26  27
HETATM   27  N   UNL     1     -24.830   7.281  -3.151  1.00  0.00    -0.077 N 
HETATM   28  C   UNL     1     -25.865   8.225  -2.570  1.00  0.00     0.271 C 
HETATM   29  C   UNL     1     -23.790   8.059  -3.952  1.00  0.00     0.271 C 
HETATM   30  C   UNL     1     -25.556   6.324  -4.105  1.00  0.00     0.271 C 
ENDBRANCH  26  27
ENDBRANCH  25  26
ENDBRANCH  24  25
ENDBRANCH  20  24
ENDBRANCH  19  20
ENDBRANCH  18  19
ENDBRANCH  17  18
BRANCH  17  31
HETATM   31  N   UNL     1     -21.813  10.536   4.367  1.00  0.00    -0.359 N 
HETATM   32  H   UNL     1     -22.026  11.526   4.404  1.00  0.00     0.162 HD
BRANCH  31  33
HETATM   33  C   UNL     1     -22.610   9.723   5.128  1.00  0.00     0.349 C 
HETATM   34  O   UNL     1     -22.450   9.417   6.277  1.00  0.00    -0.284 OA
ENDBRANCH  31  33
ENDBRANCH  17  31
ENDBRANCH   1  17
BRANCH   1  35
HETATM   35  O   UNL     1     -19.715   7.911   2.868  1.00  0.00    -0.390 OA
HETATM   36  H   UNL     1     -20.262   7.103   2.945  1.00  0.00     0.210 HD
ENDBRANCH   1  35
TORSDOF 25
ENDMDL
MODEL 9
REMARK VINA RESULT:      -5.6      3.211      5.006
REMARK  25 active torsions:
REMARK  status: ('A' for Active; 'I' for Inactive)
REMARK    1  A    between atoms: C_2  and  C_3 
REMARK    2  A    between atoms: C_3  and  C_4 
REMARK    3  A    between atoms: C_4  and  C_5 
REMARK    4  A    between atoms: C_5  and  C_6 
REMARK    5  A    between atoms: C_6  and  C_7 
REMARK    6  A    between atoms: C_7  and  C_8 
REMARK    7  A    between atoms: C_8  and  C_9 
REMARK    8  A    between atoms: C_9  and  C_10 
REMARK    9  A    between atoms: C_10  and  C_11 
REMARK   10  A    between atoms: C_11  and  C_12 
REMARK   11  A    between atoms: C_12  and  C_13 
REMARK   12  A    between atoms: C_13  and  C_14 
REMARK   13  A    between atoms: C_15  and  C_16 
REMARK   14  A    between atoms: C_16  and  C_17 
REMARK   15  A    between atoms: C_16  and  O_33 
REMARK   16  A    between atoms: C_17  and  C_18 
REMARK   17  A    between atoms: C_17  and  N_30 
REMARK   18  A    between atoms: C_18  and  O_19 
REMARK   19  A    between atoms: O_19  and  P_20 
REMARK   20  A    between atoms: P_20  and  O_22 
REMARK   21  A    between atoms: P_20  and  O_23 
REMARK   22  A    between atoms: O_23  and  C_24 
REMARK   23  A    between atoms: C_24  and  C_25 
REMARK   24  A    between atoms: C_25  and  N_26 
REMARK   25  A    between atoms: N_30  and  C_31 
ROOT
HETATM    1  C   UNL     1     -30.296  -6.238 -16.557  1.00  0.00     0.165 C 
ENDROOT
BRANCH   1   2
HETATM    2  C   UNL     1     -31.309  -5.362 -17.238  1.00  0.00     0.003 C 
HETATM    3  C   UNL     1     -32.038  -4.430 -16.607  1.00  0.00    -0.028 C 
BRANCH   3   4
HETATM    4  C   UNL     1     -33.141  -3.654 -17.217  1.00  0.00     0.027 C 
BRANCH   4   5
HETATM    5  C   UNL     1     -34.277  -3.502 -16.214  1.00  0.00     0.004 C 
BRANCH   5   6
HETATM    6  C   UNL     1     -34.017  -4.431 -15.043  1.00  0.00     0.000 C 
BRANCH   6   7
HETATM    7  C   UNL     1     -34.068  -3.664 -13.737  1.00  0.00     0.000 C 
BRANCH   7   8
HETATM    8  C   UNL     1     -33.208  -4.365 -12.703  1.00  0.00     0.000 C 
BRANCH   8   9
HETATM    9  C   UNL     1     -33.219  -3.581 -11.405  1.00  0.00     0.000 C 
BRANCH   9  10
HETATM   10  C   UNL     1     -34.646  -3.241 -11.019  1.00  0.00     0.000 C 
BRANCH  10  11
HETATM   11  C   UNL     1     -34.728  -1.797 -10.561  1.00  0.00     0.000 C 
BRANCH  11  12
HETATM   12  C   UNL     1     -35.838  -1.078 -11.308  1.00  0.00     0.000 C 
BRANCH  12  13
HETATM   13  C   UNL     1     -35.415  -0.822 -12.743  1.00  0.00     0.000 C 
BRANCH  13  14
HETATM   14  C   UNL     1     -34.932   0.611 -12.900  1.00  0.00    -0.000 C 
BRANCH  14  15
HETATM   15  C   UNL     1     -35.001   1.036 -14.359  1.00  0.00    -0.005 C 
HETATM   16  C   UNL     1     -35.493  -0.114 -15.215  1.00  0.00     0.005 C 
ENDBRANCH  14  15
ENDBRANCH  13  14
ENDBRANCH  12  13
ENDBRANCH  11  12
ENDBRANCH  10  11
ENDBRANCH   9  10
ENDBRANCH   8   9
ENDBRANCH   7   8
ENDBRANCH   6   7
ENDBRANCH   5   6
ENDBRANCH   4   5
ENDBRANCH   3   4
ENDBRANCH   1   2
BRANCH   1  17
HETATM   17  C   UNL     1     -28.919  -6.351 -17.313  1.00  0.00     0.140 C 
BRANCH  17  18
HETATM   18  C   UNL     1     -27.762  -6.814 -16.354  1.00  0.00     0.208 C 
BRANCH  18  19
HETATM   19  O   UNL     1     -26.715  -5.819 -16.239  1.00  0.00    -0.295 OA
BRANCH  19  20
HETATM   20  P   UNL     1     -25.208  -6.300 -15.828  1.00  0.00     0.393 P 
HETATM   21  O   UNL     1     -25.117  -7.519 -15.026  1.00  0.00    -0.631 OA
BRANCH  20  22
HETATM   22  O   UNL     1     -24.569  -6.430 -17.282  1.00  0.00    -0.307 OA
HETATM   23  H   UNL     1     -24.721  -7.337 -17.633  1.00  0.00     0.222 HD
ENDBRANCH  20  22
BRANCH  20  24
HETATM   24  O   UNL     1     -24.437  -4.998 -15.262  1.00  0.00    -0.295 OA
BRANCH  24  25
HETATM   25  C   UNL     1     -24.724  -4.486 -13.956  1.00  0.00     0.208 C 
BRANCH  25  26
HETATM   26  C   UNL     1     -23.862  -4.942 -12.733  1.00  0.00     0.262 C 
BRANCH  26  27
HETATM   27  N   UNL     1     -23.273  -3.758 -11.923  1.00  0.00    -0.077 N 
HETATM   28  C   UNL     1     -24.230  -3.369 -10.813  1.00  0.00     0.271 C 
HETATM   29  C   UNL     1     -21.910  -4.128 -11.346  1.00  0.00     0.271 C 
HETATM   30  C   UNL     1     -23.097  -2.539 -12.835  1.00  0.00     0.271 C 
ENDBRANCH  26  27
ENDBRANCH  25  26
ENDBRANCH  24  25
ENDBRANCH  20  24
ENDBRANCH  19  20
ENDBRANCH  18  19
ENDBRANCH  17  18
BRANCH  17  31
HETATM   31  N   UNL     1     -28.954  -7.256 -18.495  1.00  0.00    -0.359 N 
HETATM   32  H   UNL     1     -29.656  -7.986 -18.499  1.00  0.00     0.162 HD
BRANCH  31  33
HETATM   33  C   UNL     1     -28.117  -7.224 -19.579  1.00  0.00     0.349 C 
HETATM   34  O   UNL     1     -27.226  -6.446 -19.787  1.00  0.00    -0.284 OA
ENDBRANCH  31  33
ENDBRANCH  17  31
ENDBRANCH   1  17
BRANCH   1  35
HETATM   35  O   UNL     1     -30.150  -5.754 -15.234  1.00  0.00    -0.390 OA
HETATM   36  H   UNL     1     -31.029  -5.754 -14.804  1.00  0.00     0.210 HD
ENDBRANCH   1  35
TORSDOF 25
ENDMDL
