MODEL 1
REMARK VINA RESULT:      -5.5      0.000      0.000
REMARK  8 active torsions:
REMARK  status: ('A' for Active; 'I' for Inactive)
REMARK    1  A    between atoms: C_2  and  C_3 
REMARK    2  A    between atoms: C_3  and  C_4 
REMARK    3  A    between atoms: C_4  and  C_5 
REMARK    4  A    between atoms: C_5  and  C_6 
REMARK    5  A    between atoms: C_6  and  C_7 
REMARK    6  A    between atoms: C_7  and  C_8 
REMARK    7  A    between atoms: C_8  and  C_9 
REMARK    8  A    between atoms: C_9  and  C_10 
ROOT
HETATM    1  C   UNL     1     -36.134  -0.559  -9.285  1.00  0.00     0.000 C 
ENDROOT
BRANCH   1   2
HETATM    2  C   UNL     1     -36.267  -1.069 -10.718  1.00  0.00     0.000 C 
BRANCH   2   3
HETATM    3  C   UNL     1     -35.495  -2.373 -10.909  1.00  0.00     0.000 C 
BRANCH   3   4
HETATM    4  C   UNL     1     -34.015  -2.181 -10.589  1.00  0.00    -0.000 C 
BRANCH   4   5
HETATM    5  C   UNL     1     -33.156  -3.214 -11.314  1.00  0.00    -0.005 C 
HETATM    6  C   UNL     1     -33.608  -4.627 -10.991  1.00  0.00     0.005 C 
ENDBRANCH   4   5
ENDBRANCH   3   4
ENDBRANCH   2   3
ENDBRANCH   1   2
BRANCH   1   7
HETATM    7  C   UNL     1     -37.072   0.619  -9.037  1.00  0.00     0.000 C 
BRANCH   7   8
HETATM    8  C   UNL     1     -36.878   1.187  -7.633  1.00  0.00     0.000 C 
BRANCH   8   9
HETATM    9  C   UNL     1     -37.709   0.412  -6.613  1.00  0.00    -0.000 C 
BRANCH   9  10
HETATM   10  C   UNL     1     -37.118   0.534  -5.210  1.00  0.00    -0.005 C 
HETATM   11  C   UNL     1     -37.797  -0.421  -4.247  1.00  0.00     0.005 C 
ENDBRANCH   9  10
ENDBRANCH   8   9
ENDBRANCH   7   8
ENDBRANCH   1   7
TORSDOF 8
ENDMDL
MODEL 2
REMARK VINA RESULT:      -5.4      1.493      2.991
REMARK  8 active torsions:
REMARK  status: ('A' for Active; 'I' for Inactive)
REMARK    1  A    between atoms: C_2  and  C_3 
REMARK    2  A    between atoms: C_3  and  C_4 
REMARK    3  A    between atoms: C_4  and  C_5 
REMARK    4  A    between atoms: C_5  and  C_6 
REMARK    5  A    between atoms: C_6  and  C_7 
REMARK    6  A    between atoms: C_7  and  C_8 
REMARK    7  A    between atoms: C_8  and  C_9 
REMARK    8  A    between atoms: C_9  and  C_10 
ROOT
HETATM    1  C   UNL     1     -34.706  -1.710 -11.225  1.00  0.00     0.000 C 
ENDROOT
BRANCH   1   2
HETATM    2  C   UNL     1     -33.724  -2.691 -10.593  1.00  0.00     0.000 C 
BRANCH   2   3
HETATM    3  C   UNL     1     -33.000  -3.508 -11.662  1.00  0.00     0.000 C 
BRANCH   3   4
HETATM    4  C   UNL     1     -33.125  -5.003 -11.381  1.00  0.00    -0.000 C 
BRANCH   4   5
HETATM    5  C   UNL     1     -34.569  -5.388 -11.072  1.00  0.00    -0.005 C 
HETATM    6  C   UNL     1     -34.630  -6.554 -10.101  1.00  0.00     0.005 C 
ENDBRANCH   4   5
ENDBRANCH   3   4
ENDBRANCH   2   3
ENDBRANCH   1   2
BRANCH   1   7
HETATM    7  C   UNL     1     -36.042  -1.724 -10.486  1.00  0.00     0.000 C 
BRANCH   7   8
HETATM    8  C   UNL     1     -36.830  -0.444 -10.755  1.00  0.00     0.000 C 
BRANCH   8   9
HETATM    9  C   UNL     1     -37.556   0.021  -9.496  1.00  0.00    -0.000 C 
BRANCH   9  10
HETATM   10  C   UNL     1     -36.605   0.095  -8.304  1.00  0.00    -0.005 C 
HETATM   11  C   UNL     1     -37.015   1.198  -7.345  1.00  0.00     0.005 C 
ENDBRANCH   9  10
ENDBRANCH   8   9
ENDBRANCH   7   8
ENDBRANCH   1   7
TORSDOF 8
ENDMDL
MODEL 3
REMARK VINA RESULT:      -5.4     12.915     14.639
REMARK  8 active torsions:
REMARK  status: ('A' for Active; 'I' for Inactive)
REMARK    1  A    between atoms: C_2  and  C_3 
REMARK    2  A    between atoms: C_3  and  C_4 
REMARK    3  A    between atoms: C_4  and  C_5 
REMARK    4  A    between atoms: C_5  and  C_6 
REMARK    5  A    between atoms: C_6  and  C_7 
REMARK    6  A    between atoms: C_7  and  C_8 
REMARK    7  A    between atoms: C_8  and  C_9 
REMARK    8  A    between atoms: C_9  and  C_10 
ROOT
HETATM    1  C   UNL     1     -23.774  -4.809  -9.837  1.00  0.00     0.000 C 
ENDROOT
BRANCH   1   2
HETATM    2  C   UNL     1     -23.997  -4.169 -11.204  1.00  0.00     0.000 C 
BRANCH   2   3
HETATM    3  C   UNL     1     -23.048  -2.992 -11.421  1.00  0.00     0.000 C 
BRANCH   3   4
HETATM    4  C   UNL     1     -21.766  -3.448 -12.111  1.00  0.00    -0.000 C 
BRANCH   4   5
HETATM    5  C   UNL     1     -20.560  -3.303 -11.186  1.00  0.00    -0.005 C 
HETATM    6  C   UNL     1     -20.142  -4.647 -10.615  1.00  0.00     0.005 C 
ENDBRANCH   4   5
ENDBRANCH   3   4
ENDBRANCH   2   3
ENDBRANCH   1   2
BRANCH   1   7
HETATM    7  C   UNL     1     -23.386  -3.757  -8.801  1.00  0.00     0.000 C 
BRANCH   7   8
HETATM    8  C   UNL     1     -22.671  -4.396  -7.613  1.00  0.00     0.000 C 
BRANCH   8   9
HETATM    9  C   UNL     1     -21.401  -3.624  -7.263  1.00  0.00    -0.000 C 
BRANCH   9  10
HETATM   10  C   UNL     1     -20.461  -4.466  -6.403  1.00  0.00    -0.005 C 
HETATM   11  C   UNL     1     -20.098  -5.763  -7.101  1.00  0.00     0.005 C 
ENDBRANCH   9  10
ENDBRANCH   8   9
ENDBRANCH   7   8
ENDBRANCH   1   7
TORSDOF 8
ENDMDL
MODEL 4
REMARK VINA RESULT:      -5.4     11.970     14.659
REMARK  8 active torsions:
REMARK  status: ('A' for Active; 'I' for Inactive)
REMARK    1  A    between atoms: C_2  and  C_3 
REMARK    2  A    between atoms: C_3  and  C_4 
REMARK    3  A    between atoms: C_4  and  C_5 
REMARK    4  A    between atoms: C_5  and  C_6 
REMARK    5  A    between atoms: C_6  and  C_7 
REMARK    6  A    between atoms: C_7  and  C_8 
REMARK    7  A    between atoms: C_8  and  C_9 
REMARK    8  A    between atoms: C_9  and  C_10 
ROOT
HETATM    1  C   UNL     1     -21.092  -4.071 -11.446  1.00  0.00     0.000 C 
ENDROOT
BRANCH   1   2
HETATM    2  C   UNL     1     -21.958  -2.967 -12.045  1.00  0.00     0.000 C 
BRANCH   2   3
HETATM    3  C   UNL     1     -23.443  -3.294 -11.899  1.00  0.00     0.000 C 
BRANCH   3   4
HETATM    4  C   UNL     1     -23.637  -4.717 -11.382  1.00  0.00    -0.000 C 
BRANCH   4   5
HETATM    5  C   UNL     1     -24.300  -4.719 -10.007  1.00  0.00    -0.005 C 
HETATM    6  C   UNL     1     -24.692  -3.313  -9.586  1.00  0.00     0.005 C 
ENDBRANCH   4   5
ENDBRANCH   3   4
ENDBRANCH   2   3
ENDBRANCH   1   2
BRANCH   1   7
HETATM    7  C   UNL     1     -20.442  -3.608 -10.145  1.00  0.00     0.000 C 
BRANCH   7   8
HETATM    8  C   UNL     1     -20.064  -4.799  -9.268  1.00  0.00     0.000 C 
BRANCH   8   9
HETATM    9  C   UNL     1     -20.093  -4.417  -7.790  1.00  0.00    -0.000 C 
BRANCH   9  10
HETATM   10  C   UNL     1     -21.376  -3.668  -7.438  1.00  0.00    -0.005 C 
HETATM   11  C   UNL     1     -22.430  -4.616  -6.894  1.00  0.00     0.005 C 
ENDBRANCH   9  10
ENDBRANCH   8   9
ENDBRANCH   7   8
ENDBRANCH   1   7
TORSDOF 8
ENDMDL
MODEL 5
REMARK VINA RESULT:      -5.3     12.452     15.462
REMARK  8 active torsions:
REMARK  status: ('A' for Active; 'I' for Inactive)
REMARK    1  A    between atoms: C_2  and  C_3 
REMARK    2  A    between atoms: C_3  and  C_4 
REMARK    3  A    between atoms: C_4  and  C_5 
REMARK    4  A    between atoms: C_5  and  C_6 
REMARK    5  A    between atoms: C_6  and  C_7 
REMARK    6  A    between atoms: C_7  and  C_8 
REMARK    7  A    between atoms: C_8  and  C_9 
REMARK    8  A    between atoms: C_9  and  C_10 
ROOT
HETATM    1  C   UNL     1     -20.313  -4.401  -9.389  1.00  0.00     0.000 C 
ENDROOT
BRANCH   1   2
HETATM    2  C   UNL     1     -21.629  -4.694  -8.673  1.00  0.00     0.000 C 
BRANCH   2   3
HETATM    3  C   UNL     1     -21.627  -4.111  -7.262  1.00  0.00     0.000 C 
BRANCH   3   4
HETATM    4  C   UNL     1     -20.334  -4.462  -6.530  1.00  0.00    -0.000 C 
BRANCH   4   5
HETATM    5  C   UNL     1     -20.617  -5.268  -5.265  1.00  0.00    -0.005 C 
HETATM    6  C   UNL     1     -21.887  -6.089  -5.412  1.00  0.00     0.005 C 
ENDBRANCH   4   5
ENDBRANCH   3   4
ENDBRANCH   2   3
ENDBRANCH   1   2
BRANCH   1   7
HETATM    7  C   UNL     1     -20.517  -4.344 -10.900  1.00  0.00     0.000 C 
BRANCH   7   8
HETATM    8  C   UNL     1     -21.290  -3.089 -11.301  1.00  0.00     0.000 C 
BRANCH   8   9
HETATM    9  C   UNL     1     -22.336  -3.412 -12.365  1.00  0.00    -0.000 C 
BRANCH   9  10
HETATM   10  C   UNL     1     -23.471  -4.256 -11.787  1.00  0.00    -0.005 C 
HETATM   11  C   UNL     1     -24.364  -3.424 -10.885  1.00  0.00     0.005 C 
ENDBRANCH   9  10
ENDBRANCH   8   9
ENDBRANCH   7   8
ENDBRANCH   1   7
TORSDOF 8
ENDMDL
MODEL 6
REMARK VINA RESULT:      -5.2      0.805      6.257
REMARK  8 active torsions:
REMARK  status: ('A' for Active; 'I' for Inactive)
REMARK    1  A    between atoms: C_2  and  C_3 
REMARK    2  A    between atoms: C_3  and  C_4 
REMARK    3  A    between atoms: C_4  and  C_5 
REMARK    4  A    between atoms: C_5  and  C_6 
REMARK    5  A    between atoms: C_6  and  C_7 
REMARK    6  A    between atoms: C_7  and  C_8 
REMARK    7  A    between atoms: C_8  and  C_9 
REMARK    8  A    between atoms: C_9  and  C_10 
ROOT
HETATM    1  C   UNL     1     -36.185  -1.241 -10.710  1.00  0.00     0.000 C 
ENDROOT
BRANCH   1   2
HETATM    2  C   UNL     1     -36.814  -0.748  -9.410  1.00  0.00     0.000 C 
BRANCH   2   3
HETATM    3  C   UNL     1     -37.028   0.764  -9.442  1.00  0.00     0.000 C 
BRANCH   3   4
HETATM    4  C   UNL     1     -37.013   1.345  -8.031  1.00  0.00    -0.000 C 
BRANCH   4   5
HETATM    5  C   UNL     1     -37.505   0.325  -7.008  1.00  0.00    -0.005 C 
HETATM    6  C   UNL     1     -37.151   0.753  -5.594  1.00  0.00     0.005 C 
ENDBRANCH   4   5
ENDBRANCH   3   4
ENDBRANCH   2   3
ENDBRANCH   1   2
BRANCH   1   7
HETATM    7  C   UNL     1     -34.745  -1.692 -10.482  1.00  0.00     0.000 C 
BRANCH   7   8
HETATM    8  C   UNL     1     -34.146  -2.276 -11.759  1.00  0.00     0.000 C 
BRANCH   8   9
HETATM    9  C   UNL     1     -33.133  -3.371 -11.433  1.00  0.00    -0.000 C 
BRANCH   9  10
HETATM   10  C   UNL     1     -33.790  -4.525 -10.679  1.00  0.00    -0.005 C 
HETATM   11  C   UNL     1     -34.631  -5.377 -11.611  1.00  0.00     0.005 C 
ENDBRANCH   9  10
ENDBRANCH   8   9
ENDBRANCH   7   8
ENDBRANCH   1   7
TORSDOF 8
ENDMDL
MODEL 7
REMARK VINA RESULT:      -5.2     14.268     16.139
REMARK  8 active torsions:
REMARK  status: ('A' for Active; 'I' for Inactive)
REMARK    1  A    between atoms: C_2  and  C_3 
REMARK    2  A    between atoms: C_3  and  C_4 
REMARK    3  A    between atoms: C_4  and  C_5 
REMARK    4  A    between atoms: C_5  and  C_6 
REMARK    5  A    between atoms: C_6  and  C_7 
REMARK    6  A    between atoms: C_7  and  C_8 
REMARK    7  A    between atoms: C_8  and  C_9 
REMARK    8  A    between atoms: C_9  and  C_10 
ROOT
HETATM    1  C   UNL     1     -21.632  -3.893  -7.464  1.00  0.00     0.000 C 
ENDROOT
BRANCH   1   2
HETATM    2  C   UNL     1     -20.236  -4.287  -6.989  1.00  0.00     0.000 C 
BRANCH   2   3
HETATM    3  C   UNL     1     -20.267  -4.781  -5.544  1.00  0.00     0.000 C 
BRANCH   3   4
HETATM    4  C   UNL     1     -20.620  -6.265  -5.484  1.00  0.00    -0.000 C 
BRANCH   4   5
HETATM    5  C   UNL     1     -21.881  -6.499  -4.658  1.00  0.00    -0.005 C 
HETATM    6  C   UNL     1     -21.597  -6.360  -3.172  1.00  0.00     0.005 C 
ENDBRANCH   4   5
ENDBRANCH   3   4
ENDBRANCH   2   3
ENDBRANCH   1   2
BRANCH   1   7
HETATM    7  C   UNL     1     -21.807  -4.196  -8.949  1.00  0.00     0.000 C 
BRANCH   7   8
HETATM    8  C   UNL     1     -20.465  -4.158  -9.677  1.00  0.00     0.000 C 
BRANCH   8   9
HETATM    9  C   UNL     1     -20.668  -4.122 -11.190  1.00  0.00    -0.000 C 
BRANCH   9  10
HETATM   10  C   UNL     1     -22.153  -4.124 -11.549  1.00  0.00    -0.005 C 
HETATM   11  C   UNL     1     -22.536  -2.860 -12.296  1.00  0.00     0.005 C 
ENDBRANCH   9  10
ENDBRANCH   8   9
ENDBRANCH   7   8
ENDBRANCH   1   7
TORSDOF 8
ENDMDL
MODEL 8
REMARK VINA RESULT:      -5.2      3.529      5.288
REMARK  8 active torsions:
REMARK  status: ('A' for Active; 'I' for Inactive)
REMARK    1  A    between atoms: C_2  and  C_3 
REMARK    2  A    between atoms: C_3  and  C_4 
REMARK    3  A    between atoms: C_4  and  C_5 
REMARK    4  A    between atoms: C_5  and  C_6 
REMARK    5  A    between atoms: C_6  and  C_7 
REMARK    6  A    between atoms: C_7  and  C_8 
REMARK    7  A    between atoms: C_8  and  C_9 
REMARK    8  A    between atoms: C_9  and  C_10 
ROOT
HETATM    1  C   UNL     1     -34.157  -1.932 -11.492  1.00  0.00     0.000 C 
ENDROOT
BRANCH   1   2
HETATM    2  C   UNL     1     -33.201  -3.068 -11.139  1.00  0.00     0.000 C 
BRANCH   2   3
HETATM    3  C   UNL     1     -33.478  -4.303 -11.994  1.00  0.00     0.000 C 
BRANCH   3   4
HETATM    4  C   UNL     1     -33.417  -5.573 -11.150  1.00  0.00    -0.000 C 
BRANCH   4   5
HETATM    5  C   UNL     1     -34.816  -6.040 -10.754  1.00  0.00    -0.005 C 
HETATM    6  C   UNL     1     -34.749  -7.184  -9.756  1.00  0.00     0.005 C 
ENDBRANCH   4   5
ENDBRANCH   3   4
ENDBRANCH   2   3
ENDBRANCH   1   2
BRANCH   1   7
HETATM    7  C   UNL     1     -35.573  -2.243 -11.013  1.00  0.00     0.000 C 
BRANCH   7   8
HETATM    8  C   UNL     1     -36.446  -0.990 -11.036  1.00  0.00     0.000 C 
BRANCH   8   9
HETATM    9  C   UNL     1     -35.914   0.025 -12.044  1.00  0.00    -0.000 C 
BRANCH   9  10
HETATM   10  C   UNL     1     -36.613  -0.120 -13.395  1.00  0.00    -0.005 C 
HETATM   11  C   UNL     1     -35.747   0.421 -14.518  1.00  0.00     0.005 C 
ENDBRANCH   9  10
ENDBRANCH   8   9
ENDBRANCH   7   8
ENDBRANCH   1   7
TORSDOF 8
ENDMDL
MODEL 9
REMARK VINA RESULT:      -5.2     15.665     16.408
REMARK  8 active torsions:
REMARK  status: ('A' for Active; 'I' for Inactive)
REMARK    1  A    between atoms: C_2  and  C_3 
REMARK    2  A    between atoms: C_3  and  C_4 
REMARK    3  A    between atoms: C_4  and  C_5 
REMARK    4  A    between atoms: C_5  and  C_6 
REMARK    5  A    between atoms: C_6  and  C_7 
REMARK    6  A    between atoms: C_7  and  C_8 
REMARK    7  A    between atoms: C_8  and  C_9 
REMARK    8  A    between atoms: C_9  and  C_10 
ROOT
HETATM    1  C   UNL     1     -21.813  -6.753  -4.310  1.00  0.00     0.000 C 
ENDROOT
BRANCH   1   2
HETATM    2  C   UNL     1     -21.626  -5.881  -5.549  1.00  0.00     0.000 C 
BRANCH   2   3
HETATM    3  C   UNL     1     -20.404  -4.977  -5.404  1.00  0.00     0.000 C 
BRANCH   3   4
HETATM    4  C   UNL     1     -19.770  -4.697  -6.763  1.00  0.00    -0.000 C 
BRANCH   4   5
HETATM    5  C   UNL     1     -20.820  -4.257  -7.781  1.00  0.00    -0.005 C 
HETATM    6  C   UNL     1     -20.264  -4.300  -9.194  1.00  0.00     0.005 C 
ENDBRANCH   4   5
ENDBRANCH   3   4
ENDBRANCH   2   3
ENDBRANCH   1   2
BRANCH   1   7
HETATM    7  C   UNL     1     -21.305  -6.039  -3.061  1.00  0.00     0.000 C 
BRANCH   7   8
HETATM    8  C   UNL     1     -22.239  -6.277  -1.877  1.00  0.00     0.000 C 
BRANCH   8   9
HETATM    9  C   UNL     1     -21.794  -7.494  -1.069  1.00  0.00    -0.000 C 
BRANCH   9  10
HETATM   10  C   UNL     1     -22.754  -7.773   0.086  1.00  0.00    -0.005 C 
HETATM   11  C   UNL     1     -23.150  -9.238   0.125  1.00  0.00     0.005 C 
ENDBRANCH   9  10
ENDBRANCH   8   9
ENDBRANCH   7   8
ENDBRANCH   1   7
TORSDOF 8
ENDMDL
