MODEL 1
REMARK VINA RESULT:      -6.2      0.000      0.000
REMARK  11 active torsions:
REMARK  status: ('A' for Active; 'I' for Inactive)
REMARK    1  A    between atoms: C_1  and  C_2 
REMARK    2  A    between atoms: C_1  and  O_17 
REMARK    3  A    between atoms: C_2  and  C_3 
REMARK    4  A    between atoms: C_2  and  O_16 
REMARK    5  A    between atoms: C_3  and  O_4 
REMARK    6  A    between atoms: O_4  and  C_5 
REMARK    7  A    between atoms: C_6  and  O_15 
REMARK    8  A    between atoms: C_10  and  C_11 
REMARK    9  A    between atoms: C_11  and  C_12 
REMARK   10  A    between atoms: C_11  and  O_14 
REMARK   11  A    between atoms: C_12  and  O_13 
ROOT
HETATM    1  C   UNL     1     -22.707  -4.454 -10.176  1.00  0.00     0.117 C 
HETATM    2  C   UNL     1     -23.655  -4.006  -9.352  1.00  0.00     0.174 C 
HETATM    3  C   UNL     1     -24.795  -3.586 -10.191  1.00  0.00     0.320 C 
HETATM    4  O   UNL     1     -25.832  -3.079  -9.813  1.00  0.00    -0.257 OA
HETATM    5  O   UNL     1     -24.506  -3.883 -11.491  1.00  0.00    -0.301 OA
HETATM    6  C   UNL     1     -23.146  -4.342 -11.601  1.00  0.00     0.222 C 
ENDROOT
BRANCH   1   7
HETATM    7  O   UNL     1     -21.534  -5.038  -9.738  1.00  0.00    -0.347 OA
BRANCH   7   8
HETATM    8  C   UNL     1     -20.518  -4.101  -9.375  1.00  0.00     0.209 C 
BRANCH   8   9
HETATM    9  C   UNL     1     -20.112  -4.211  -7.904  1.00  0.00     0.165 C 
BRANCH   9  10
HETATM   10  C   UNL     1     -20.144  -5.650  -7.371  1.00  0.00     0.198 C 
BRANCH  10  11
HETATM   11  O   UNL     1     -21.462  -6.032  -6.975  1.00  0.00    -0.398 OA
HETATM   12  H   UNL     1     -21.588  -5.784  -6.042  1.00  0.00     0.209 HD
ENDBRANCH  10  11
ENDBRANCH   9  10
BRANCH   9  13
HETATM   13  O   UNL     1     -20.990  -3.386  -7.132  1.00  0.00    -0.391 OA
HETATM   14  H   UNL     1     -21.150  -2.558  -7.622  1.00  0.00     0.210 HD
ENDBRANCH   9  13
ENDBRANCH   8   9
ENDBRANCH   7   8
ENDBRANCH   1   7
BRANCH   2  15
HETATM   15  O   UNL     1     -23.640  -3.980  -7.994  1.00  0.00    -0.353 OA
HETATM   16  H   UNL     1     -23.597  -3.041  -7.731  1.00  0.00     0.218 HD
ENDBRANCH   2  15
BRANCH   6  17
HETATM   17  C   UNL     1     -22.391  -3.333 -12.486  1.00  0.00     0.177 C 
BRANCH  17  18
HETATM   18  C   UNL     1     -23.322  -2.771 -13.573  1.00  0.00     0.198 C 
BRANCH  18  19
HETATM   19  O   UNL     1     -23.780  -3.823 -14.420  1.00  0.00    -0.398 OA
HETATM   20  H   UNL     1     -24.121  -4.523 -13.829  1.00  0.00     0.209 HD
ENDBRANCH  18  19
ENDBRANCH  17  18
BRANCH  17  21
HETATM   21  O   UNL     1     -21.892  -2.220 -11.719  1.00  0.00    -0.390 OA
HETATM   22  H   UNL     1     -22.407  -2.177 -10.891  1.00  0.00     0.210 HD
ENDBRANCH  17  21
ENDBRANCH   6  17
TORSDOF 11
ENDMDL
MODEL 2
REMARK VINA RESULT:      -6.0     11.119     13.619
REMARK  11 active torsions:
REMARK  status: ('A' for Active; 'I' for Inactive)
REMARK    1  A    between atoms: C_1  and  C_2 
REMARK    2  A    between atoms: C_1  and  O_17 
REMARK    3  A    between atoms: C_2  and  C_3 
REMARK    4  A    between atoms: C_2  and  O_16 
REMARK    5  A    between atoms: C_3  and  O_4 
REMARK    6  A    between atoms: O_4  and  C_5 
REMARK    7  A    between atoms: C_6  and  O_15 
REMARK    8  A    between atoms: C_10  and  C_11 
REMARK    9  A    between atoms: C_11  and  C_12 
REMARK   10  A    between atoms: C_11  and  O_14 
REMARK   11  A    between atoms: C_12  and  O_13 
ROOT
HETATM    1  C   UNL     1     -35.504  -1.918 -12.116  1.00  0.00     0.117 C 
HETATM    2  C   UNL     1     -35.234  -1.299 -13.265  1.00  0.00     0.174 C 
HETATM    3  C   UNL     1     -35.096   0.139 -12.961  1.00  0.00     0.320 C 
HETATM    4  O   UNL     1     -34.896   1.037 -13.754  1.00  0.00    -0.257 OA
HETATM    5  O   UNL     1     -35.209   0.307 -11.612  1.00  0.00    -0.301 OA
HETATM    6  C   UNL     1     -35.581  -0.937 -10.989  1.00  0.00     0.222 C 
ENDROOT
BRANCH   1   7
HETATM    7  O   UNL     1     -35.586  -3.292 -11.994  1.00  0.00    -0.347 OA
BRANCH   7   8
HETATM    8  C   UNL     1     -34.886  -3.818 -10.865  1.00  0.00     0.209 C 
BRANCH   8   9
HETATM    9  C   UNL     1     -33.811  -4.834 -11.258  1.00  0.00     0.165 C 
BRANCH   9  10
HETATM   10  C   UNL     1     -32.743  -4.256 -12.197  1.00  0.00     0.198 C 
BRANCH  10  11
HETATM   11  O   UNL     1     -33.218  -4.173 -13.541  1.00  0.00    -0.398 OA
HETATM   12  H   UNL     1     -34.186  -4.065 -13.520  1.00  0.00     0.209 HD
ENDBRANCH  10  11
ENDBRANCH   9  10
BRANCH   9  13
HETATM   13  O   UNL     1     -34.453  -5.950 -11.880  1.00  0.00    -0.391 OA
HETATM   14  H   UNL     1     -35.014  -6.396 -11.217  1.00  0.00     0.210 HD
ENDBRANCH   9  13
ENDBRANCH   8   9
ENDBRANCH   7   8
ENDBRANCH   1   7
BRANCH   2  15
HETATM   15  O   UNL     1     -35.053  -1.854 -14.493  1.00  0.00    -0.353 OA
HETATM   16  H   UNL     1     -34.706  -1.149 -15.071  1.00  0.00     0.218 HD
ENDBRANCH   2  15
BRANCH   6  17
HETATM   17  C   UNL     1     -36.961  -0.730 -10.339  1.00  0.00     0.177 C 
BRANCH  17  18
HETATM   18  C   UNL     1     -37.175   0.754  -9.996  1.00  0.00     0.198 C 
BRANCH  18  19
HETATM   19  O   UNL     1     -36.223   1.176  -9.023  1.00  0.00    -0.398 OA
HETATM   20  H   UNL     1     -35.365   1.243  -9.487  1.00  0.00     0.209 HD
ENDBRANCH  18  19
ENDBRANCH  17  18
BRANCH  17  21
HETATM   21  O   UNL     1     -38.030  -1.135 -11.215  1.00  0.00    -0.390 OA
HETATM   22  H   UNL     1     -38.403  -1.965 -10.863  1.00  0.00     0.210 HD
ENDBRANCH  17  21
ENDBRANCH   6  17
TORSDOF 11
ENDMDL
MODEL 3
REMARK VINA RESULT:      -5.5     11.960     14.481
REMARK  11 active torsions:
REMARK  status: ('A' for Active; 'I' for Inactive)
REMARK    1  A    between atoms: C_1  and  C_2 
REMARK    2  A    between atoms: C_1  and  O_17 
REMARK    3  A    between atoms: C_2  and  C_3 
REMARK    4  A    between atoms: C_2  and  O_16 
REMARK    5  A    between atoms: C_3  and  O_4 
REMARK    6  A    between atoms: O_4  and  C_5 
REMARK    7  A    between atoms: C_6  and  O_15 
REMARK    8  A    between atoms: C_10  and  C_11 
REMARK    9  A    between atoms: C_11  and  C_12 
REMARK   10  A    between atoms: C_11  and  O_14 
REMARK   11  A    between atoms: C_12  and  O_13 
ROOT
HETATM    1  C   UNL     1     -36.150  -1.120 -12.166  1.00  0.00     0.117 C 
HETATM    2  C   UNL     1     -36.821  -0.509 -11.188  1.00  0.00     0.174 C 
HETATM    3  C   UNL     1     -36.032  -0.676  -9.952  1.00  0.00     0.320 C 
HETATM    4  O   UNL     1     -36.335  -0.301  -8.837  1.00  0.00    -0.257 OA
HETATM    5  O   UNL     1     -34.869  -1.317 -10.265  1.00  0.00    -0.301 OA
HETATM    6  C   UNL     1     -34.896  -1.742 -11.641  1.00  0.00     0.222 C 
ENDROOT
BRANCH   1   7
HETATM    7  O   UNL     1     -36.531  -1.072 -13.493  1.00  0.00    -0.347 OA
BRANCH   7   8
HETATM    8  C   UNL     1     -36.061   0.082 -14.191  1.00  0.00     0.209 C 
BRANCH   8   9
HETATM    9  C   UNL     1     -36.704   0.240 -15.571  1.00  0.00     0.165 C 
BRANCH   9  10
HETATM   10  C   UNL     1     -36.211  -0.795 -16.592  1.00  0.00     0.198 C 
BRANCH  10  11
HETATM   11  O   UNL     1     -35.208  -1.644 -16.033  1.00  0.00    -0.398 OA
HETATM   12  H   UNL     1     -35.463  -1.863 -15.119  1.00  0.00     0.209 HD
ENDBRANCH  10  11
ENDBRANCH   9  10
BRANCH   9  13
HETATM   13  O   UNL     1     -36.431   1.561 -16.046  1.00  0.00    -0.391 OA
HETATM   14  H   UNL     1     -35.776   1.976 -15.454  1.00  0.00     0.210 HD
ENDBRANCH   9  13
ENDBRANCH   8   9
ENDBRANCH   7   8
ENDBRANCH   1   7
BRANCH   2  15
HETATM   15  O   UNL     1     -37.980   0.195 -11.281  1.00  0.00    -0.353 OA
HETATM   16  H   UNL     1     -38.115   0.629 -10.418  1.00  0.00     0.218 HD
ENDBRANCH   2  15
BRANCH   6  17
HETATM   17  C   UNL     1     -34.826  -3.280 -11.647  1.00  0.00     0.177 C 
BRANCH  17  18
HETATM   18  C   UNL     1     -33.945  -3.773 -12.808  1.00  0.00     0.198 C 
BRANCH  18  19
HETATM   19  O   UNL     1     -34.491  -3.347 -14.054  1.00  0.00    -0.398 OA
HETATM   20  H   UNL     1     -35.291  -3.889 -14.203  1.00  0.00     0.209 HD
ENDBRANCH  18  19
ENDBRANCH  17  18
BRANCH  17  21
HETATM   21  O   UNL     1     -34.264  -3.794 -10.424  1.00  0.00    -0.390 OA
HETATM   22  H   UNL     1     -34.094  -3.035  -9.835  1.00  0.00     0.210 HD
ENDBRANCH  17  21
ENDBRANCH   6  17
TORSDOF 11
ENDMDL
MODEL 4
REMARK VINA RESULT:      -5.3     13.080     15.260
REMARK  11 active torsions:
REMARK  status: ('A' for Active; 'I' for Inactive)
REMARK    1  A    between atoms: C_1  and  C_2 
REMARK    2  A    between atoms: C_1  and  O_17 
REMARK    3  A    between atoms: C_2  and  C_3 
REMARK    4  A    between atoms: C_2  and  O_16 
REMARK    5  A    between atoms: C_3  and  O_4 
REMARK    6  A    between atoms: O_4  and  C_5 
REMARK    7  A    between atoms: C_6  and  O_15 
REMARK    8  A    between atoms: C_10  and  C_11 
REMARK    9  A    between atoms: C_11  and  C_12 
REMARK   10  A    between atoms: C_11  and  O_14 
REMARK   11  A    between atoms: C_12  and  O_13 
ROOT
HETATM    1  C   UNL     1     -36.466  -0.595 -12.238  1.00  0.00     0.117 C 
HETATM    2  C   UNL     1     -35.511  -1.525 -12.227  1.00  0.00     0.174 C 
HETATM    3  C   UNL     1     -35.709  -2.336 -11.010  1.00  0.00     0.320 C 
HETATM    4  O   UNL     1     -35.012  -3.251 -10.621  1.00  0.00    -0.257 OA
HETATM    5  O   UNL     1     -36.838  -1.900 -10.381  1.00  0.00    -0.301 OA
HETATM    6  C   UNL     1     -37.339  -0.715 -11.030  1.00  0.00     0.222 C 
ENDROOT
BRANCH   1   7
HETATM    7  O   UNL     1     -36.666   0.277 -13.291  1.00  0.00    -0.347 OA
BRANCH   7   8
HETATM    8  C   UNL     1     -37.710  -0.117 -14.182  1.00  0.00     0.209 C 
BRANCH   8   9
HETATM    9  C   UNL     1     -37.341   0.089 -15.653  1.00  0.00     0.165 C 
BRANCH   9  10
HETATM   10  C   UNL     1     -36.047  -0.628 -16.061  1.00  0.00     0.198 C 
BRANCH  10  11
HETATM   11  O   UNL     1     -34.907  -0.055 -15.417  1.00  0.00    -0.398 OA
HETATM   12  H   UNL     1     -34.272   0.221 -16.102  1.00  0.00     0.209 HD
ENDBRANCH  10  11
ENDBRANCH   9  10
BRANCH   9  13
HETATM   13  O   UNL     1     -37.217   1.494 -15.893  1.00  0.00    -0.391 OA
HETATM   14  H   UNL     1     -36.530   1.851 -15.299  1.00  0.00     0.210 HD
ENDBRANCH   9  13
ENDBRANCH   8   9
ENDBRANCH   7   8
ENDBRANCH   1   7
BRANCH   2  15
HETATM   15  O   UNL     1     -34.556  -1.756 -13.167  1.00  0.00    -0.353 OA
HETATM   16  H   UNL     1     -34.663  -1.068 -13.851  1.00  0.00     0.218 HD
ENDBRANCH   2  15
BRANCH   6  17
HETATM   17  C   UNL     1     -37.272   0.432 -10.005  1.00  0.00     0.177 C 
BRANCH  17  18
HETATM   18  C   UNL     1     -37.103  -0.129  -8.582  1.00  0.00     0.198 C 
BRANCH  18  19
HETATM   19  O   UNL     1     -35.778   0.114  -8.113  1.00  0.00    -0.398 OA
HETATM   20  H   UNL     1     -35.251  -0.672  -8.358  1.00  0.00     0.209 HD
ENDBRANCH  18  19
ENDBRANCH  17  18
BRANCH  17  21
HETATM   21  O   UNL     1     -36.161   1.313 -10.261  1.00  0.00    -0.390 OA
HETATM   22  H   UNL     1     -35.503   1.173  -9.555  1.00  0.00     0.210 HD
ENDBRANCH  17  21
ENDBRANCH   6  17
TORSDOF 11
ENDMDL
MODEL 5
REMARK VINA RESULT:      -4.7     12.112     14.485
REMARK  11 active torsions:
REMARK  status: ('A' for Active; 'I' for Inactive)
REMARK    1  A    between atoms: C_1  and  C_2 
REMARK    2  A    between atoms: C_1  and  O_17 
REMARK    3  A    between atoms: C_2  and  C_3 
REMARK    4  A    between atoms: C_2  and  O_16 
REMARK    5  A    between atoms: C_3  and  O_4 
REMARK    6  A    between atoms: O_4  and  C_5 
REMARK    7  A    between atoms: C_6  and  O_15 
REMARK    8  A    between atoms: C_10  and  C_11 
REMARK    9  A    between atoms: C_11  and  C_12 
REMARK   10  A    between atoms: C_11  and  O_14 
REMARK   11  A    between atoms: C_12  and  O_13 
ROOT
HETATM    1  C   UNL     1     -34.918  -2.296 -12.847  1.00  0.00     0.117 C 
HETATM    2  C   UNL     1     -34.380  -3.516 -12.886  1.00  0.00     0.174 C 
HETATM    3  C   UNL     1     -34.895  -4.254 -11.716  1.00  0.00     0.320 C 
HETATM    4  O   UNL     1     -34.599  -5.382 -11.377  1.00  0.00    -0.257 OA
HETATM    5  O   UNL     1     -35.794  -3.460 -11.067  1.00  0.00    -0.301 OA
HETATM    6  C   UNL     1     -35.800  -2.143 -11.650  1.00  0.00     0.222 C 
ENDROOT
BRANCH   1   7
HETATM    7  O   UNL     1     -34.753  -1.361 -13.851  1.00  0.00    -0.347 OA
BRANCH   7   8
HETATM    8  C   UNL     1     -35.818  -0.413 -13.942  1.00  0.00     0.209 C 
BRANCH   8   9
HETATM    9  C   UNL     1     -36.272  -0.172 -15.384  1.00  0.00     0.165 C 
BRANCH   9  10
HETATM   10  C   UNL     1     -37.771   0.134 -15.506  1.00  0.00     0.198 C 
BRANCH  10  11
HETATM   11  O   UNL     1     -37.996   1.430 -16.062  1.00  0.00    -0.398 OA
HETATM   12  H   UNL     1     -37.332   2.043 -15.697  1.00  0.00     0.209 HD
ENDBRANCH  10  11
ENDBRANCH   9  10
BRANCH   9  13
HETATM   13  O   UNL     1     -35.946  -1.329 -16.158  1.00  0.00    -0.391 OA
HETATM   14  H   UNL     1     -36.772  -1.795 -16.385  1.00  0.00     0.210 HD
ENDBRANCH   9  13
ENDBRANCH   8   9
ENDBRANCH   7   8
ENDBRANCH   1   7
BRANCH   2  15
HETATM   15  O   UNL     1     -33.559  -4.039 -13.835  1.00  0.00    -0.353 OA
HETATM   16  H   UNL     1     -33.342  -3.314 -14.450  1.00  0.00     0.218 HD
ENDBRANCH   2  15
BRANCH   6  17
HETATM   17  C   UNL     1     -35.333  -1.157 -10.563  1.00  0.00     0.177 C 
BRANCH  17  18
HETATM   18  C   UNL     1     -36.453  -0.924  -9.534  1.00  0.00     0.198 C 
BRANCH  18  19
HETATM   19  O   UNL     1     -36.172   0.239  -8.758  1.00  0.00    -0.398 OA
HETATM   20  H   UNL     1     -36.711   0.961  -9.138  1.00  0.00     0.209 HD
ENDBRANCH  18  19
ENDBRANCH  17  18
BRANCH  17  21
HETATM   21  O   UNL     1     -34.183  -1.653  -9.851  1.00  0.00    -0.390 OA
HETATM   22  H   UNL     1     -33.404  -1.155 -10.163  1.00  0.00     0.210 HD
ENDBRANCH  17  21
ENDBRANCH   6  17
TORSDOF 11
ENDMDL
MODEL 6
REMARK VINA RESULT:      -4.5      4.401      8.673
REMARK  11 active torsions:
REMARK  status: ('A' for Active; 'I' for Inactive)
REMARK    1  A    between atoms: C_1  and  C_2 
REMARK    2  A    between atoms: C_1  and  O_17 
REMARK    3  A    between atoms: C_2  and  C_3 
REMARK    4  A    between atoms: C_2  and  O_16 
REMARK    5  A    between atoms: C_3  and  O_4 
REMARK    6  A    between atoms: O_4  and  C_5 
REMARK    7  A    between atoms: C_6  and  O_15 
REMARK    8  A    between atoms: C_10  and  C_11 
REMARK    9  A    between atoms: C_11  and  C_12 
REMARK   10  A    between atoms: C_11  and  O_14 
REMARK   11  A    between atoms: C_12  and  O_13 
ROOT
HETATM    1  C   UNL     1     -20.854  -7.448  -4.161  1.00  0.00     0.117 C 
HETATM    2  C   UNL     1     -20.078  -8.288  -4.848  1.00  0.00     0.174 C 
HETATM    3  C   UNL     1     -20.239  -9.623  -4.240  1.00  0.00     0.320 C 
HETATM    4  O   UNL     1     -19.660 -10.644  -4.554  1.00  0.00    -0.257 OA
HETATM    5  O   UNL     1     -21.180  -9.538  -3.256  1.00  0.00    -0.301 OA
HETATM    6  C   UNL     1     -21.557  -8.163  -3.052  1.00  0.00     0.222 C 
ENDROOT
BRANCH   1   7
HETATM    7  O   UNL     1     -21.046  -6.128  -4.519  1.00  0.00    -0.347 OA
BRANCH   7   8
HETATM    8  C   UNL     1     -22.041  -5.938  -5.527  1.00  0.00     0.209 C 
BRANCH   8   9
HETATM    9  C   UNL     1     -21.512  -5.170  -6.741  1.00  0.00     0.165 C 
BRANCH   9  10
HETATM   10  C   UNL     1     -22.606  -4.404  -7.498  1.00  0.00     0.198 C 
BRANCH  10  11
HETATM   11  O   UNL     1     -23.844  -4.422  -6.786  1.00  0.00    -0.398 OA
HETATM   12  H   UNL     1     -23.652  -4.465  -5.833  1.00  0.00     0.209 HD
ENDBRANCH  10  11
ENDBRANCH   9  10
BRANCH   9  13
HETATM   13  O   UNL     1     -20.871  -6.100  -7.618  1.00  0.00    -0.391 OA
HETATM   14  H   UNL     1     -21.392  -6.162  -8.441  1.00  0.00     0.210 HD
ENDBRANCH   9  13
ENDBRANCH   8   9
ENDBRANCH   7   8
ENDBRANCH   1   7
BRANCH   2  15
HETATM   15  O   UNL     1     -19.316  -8.020  -5.941  1.00  0.00    -0.353 OA
HETATM   16  H   UNL     1     -19.774  -8.415  -6.707  1.00  0.00     0.218 HD
ENDBRANCH   2  15
BRANCH   6  17
HETATM   17  C   UNL     1     -21.156  -7.784  -1.615  1.00  0.00     0.177 C 
BRANCH  17  18
HETATM   18  C   UNL     1     -22.227  -6.884  -0.977  1.00  0.00     0.198 C 
BRANCH  18  19
HETATM   19  O   UNL     1     -22.524  -5.787  -1.839  1.00  0.00    -0.398 OA
HETATM   20  H   UNL     1     -21.827  -5.779  -2.524  1.00  0.00     0.209 HD
ENDBRANCH  18  19
ENDBRANCH  17  18
BRANCH  17  21
HETATM   21  O   UNL     1     -21.009  -8.948  -0.778  1.00  0.00    -0.390 OA
HETATM   22  H   UNL     1     -20.552  -9.633  -1.301  1.00  0.00     0.210 HD
ENDBRANCH  17  21
ENDBRANCH   6  17
TORSDOF 11
ENDMDL
MODEL 7
REMARK VINA RESULT:      -4.5      4.345      8.276
REMARK  11 active torsions:
REMARK  status: ('A' for Active; 'I' for Inactive)
REMARK    1  A    between atoms: C_1  and  C_2 
REMARK    2  A    between atoms: C_1  and  O_17 
REMARK    3  A    between atoms: C_2  and  C_3 
REMARK    4  A    between atoms: C_2  and  O_16 
REMARK    5  A    between atoms: C_3  and  O_4 
REMARK    6  A    between atoms: O_4  and  C_5 
REMARK    7  A    between atoms: C_6  and  O_15 
REMARK    8  A    between atoms: C_10  and  C_11 
REMARK    9  A    between atoms: C_11  and  C_12 
REMARK   10  A    between atoms: C_11  and  O_14 
REMARK   11  A    between atoms: C_12  and  O_13 
ROOT
HETATM    1  C   UNL     1     -21.349  -6.810  -3.677  1.00  0.00     0.117 C 
HETATM    2  C   UNL     1     -21.702  -6.721  -2.394  1.00  0.00     0.174 C 
HETATM    3  C   UNL     1     -20.930  -7.743  -1.660  1.00  0.00     0.320 C 
HETATM    4  O   UNL     1     -21.007  -8.006  -0.477  1.00  0.00    -0.257 OA
HETATM    5  O   UNL     1     -20.077  -8.350  -2.536  1.00  0.00    -0.301 OA
HETATM    6  C   UNL     1     -20.344  -7.899  -3.877  1.00  0.00     0.222 C 
ENDROOT
BRANCH   1   7
HETATM    7  O   UNL     1     -21.786  -5.929  -4.648  1.00  0.00    -0.347 OA
BRANCH   7   8
HETATM    8  C   UNL     1     -20.736  -5.195  -5.281  1.00  0.00     0.209 C 
BRANCH   8   9
HETATM    9  C   UNL     1     -20.949  -5.041  -6.789  1.00  0.00     0.165 C 
BRANCH   9  10
HETATM   10  C   UNL     1     -22.355  -4.549  -7.155  1.00  0.00     0.198 C 
BRANCH  10  11
HETATM   11  O   UNL     1     -22.303  -3.418  -8.027  1.00  0.00    -0.398 OA
HETATM   12  H   UNL     1     -21.782  -3.658  -8.814  1.00  0.00     0.209 HD
ENDBRANCH  10  11
ENDBRANCH   9  10
BRANCH   9  13
HETATM   13  O   UNL     1     -20.697  -6.304  -7.410  1.00  0.00    -0.391 OA
HETATM   14  H   UNL     1     -19.978  -6.752  -6.925  1.00  0.00     0.210 HD
ENDBRANCH   9  13
ENDBRANCH   8   9
ENDBRANCH   7   8
ENDBRANCH   1   7
BRANCH   2  15
HETATM   15  O   UNL     1     -22.558  -5.835  -1.821  1.00  0.00    -0.353 OA
HETATM   16  H   UNL     1     -23.015  -6.310  -1.102  1.00  0.00     0.218 HD
ENDBRANCH   2  15
BRANCH   6  17
HETATM   17  C   UNL     1     -20.798  -9.125  -4.691  1.00  0.00     0.177 C 
BRANCH  17  18
HETATM   18  C   UNL     1     -21.898  -9.892  -3.937  1.00  0.00     0.198 C 
BRANCH  18  19
HETATM   19  O   UNL     1     -21.321 -10.934  -3.153  1.00  0.00    -0.398 OA
HETATM   20  H   UNL     1     -21.241 -11.710  -3.743  1.00  0.00     0.209 HD
ENDBRANCH  18  19
ENDBRANCH  17  18
BRANCH  17  21
HETATM   21  O   UNL     1     -21.333  -8.746  -5.974  1.00  0.00    -0.390 OA
HETATM   22  H   UNL     1     -22.049  -9.372  -6.193  1.00  0.00     0.210 HD
ENDBRANCH  17  21
ENDBRANCH   6  17
TORSDOF 11
ENDMDL
MODEL 8
REMARK VINA RESULT:      -4.5     11.337     13.162
REMARK  11 active torsions:
REMARK  status: ('A' for Active; 'I' for Inactive)
REMARK    1  A    between atoms: C_1  and  C_2 
REMARK    2  A    between atoms: C_1  and  O_17 
REMARK    3  A    between atoms: C_2  and  C_3 
REMARK    4  A    between atoms: C_2  and  O_16 
REMARK    5  A    between atoms: C_3  and  O_4 
REMARK    6  A    between atoms: O_4  and  C_5 
REMARK    7  A    between atoms: C_6  and  O_15 
REMARK    8  A    between atoms: C_10  and  C_11 
REMARK    9  A    between atoms: C_11  and  C_12 
REMARK   10  A    between atoms: C_11  and  O_14 
REMARK   11  A    between atoms: C_12  and  O_13 
ROOT
HETATM    1  C   UNL     1     -34.711  -2.923 -12.391  1.00  0.00     0.117 C 
HETATM    2  C   UNL     1     -33.921  -3.061 -11.325  1.00  0.00     0.174 C 
HETATM    3  C   UNL     1     -34.140  -1.880 -10.467  1.00  0.00     0.320 C 
HETATM    4  O   UNL     1     -33.568  -1.617  -9.428  1.00  0.00    -0.257 OA
HETATM    5  O   UNL     1     -35.124  -1.119 -11.025  1.00  0.00    -0.301 OA
HETATM    6  C   UNL     1     -35.482  -1.644 -12.318  1.00  0.00     0.222 C 
ENDROOT
BRANCH   1   7
HETATM    7  O   UNL     1     -34.858  -3.898 -13.359  1.00  0.00    -0.347 OA
BRANCH   7   8
HETATM    8  C   UNL     1     -33.737  -4.019 -14.236  1.00  0.00     0.209 C 
BRANCH   8   9
HETATM    9  C   UNL     1     -34.144  -4.068 -15.711  1.00  0.00     0.165 C 
BRANCH   9  10
HETATM   10  C   UNL     1     -32.948  -4.166 -16.668  1.00  0.00     0.198 C 
BRANCH  10  11
HETATM   11  O   UNL     1     -33.030  -3.192 -17.709  1.00  0.00    -0.398 OA
HETATM   12  H   UNL     1     -33.944  -2.858 -17.748  1.00  0.00     0.209 HD
ENDBRANCH  10  11
ENDBRANCH   9  10
BRANCH   9  13
HETATM   13  O   UNL     1     -34.908  -2.895 -16.005  1.00  0.00    -0.391 OA
HETATM   14  H   UNL     1     -35.576  -3.120 -16.680  1.00  0.00     0.210 HD
ENDBRANCH   9  13
ENDBRANCH   8   9
ENDBRANCH   7   8
ENDBRANCH   1   7
BRANCH   2  15
HETATM   15  O   UNL     1     -33.102  -4.102 -11.020  1.00  0.00    -0.353 OA
HETATM   16  H   UNL     1     -33.173  -4.741 -11.753  1.00  0.00     0.218 HD
ENDBRANCH   2  15
BRANCH   6  17
HETATM   17  C   UNL     1     -35.141  -0.564 -13.361  1.00  0.00     0.177 C 
BRANCH  17  18
HETATM   18  C   UNL     1     -36.381  -0.225 -14.207  1.00  0.00     0.198 C 
BRANCH  18  19
HETATM   19  O   UNL     1     -37.553  -0.756 -13.594  1.00  0.00    -0.398 OA
HETATM   20  H   UNL     1     -37.858  -0.084 -12.953  1.00  0.00     0.209 HD
ENDBRANCH  18  19
ENDBRANCH  17  18
BRANCH  17  21
HETATM   21  O   UNL     1     -34.689   0.655 -12.741  1.00  0.00    -0.390 OA
HETATM   22  H   UNL     1     -35.281   1.373 -13.035  1.00  0.00     0.210 HD
ENDBRANCH  17  21
ENDBRANCH   6  17
TORSDOF 11
ENDMDL
MODEL 9
REMARK VINA RESULT:      -4.5      6.467      9.263
REMARK  11 active torsions:
REMARK  status: ('A' for Active; 'I' for Inactive)
REMARK    1  A    between atoms: C_1  and  C_2 
REMARK    2  A    between atoms: C_1  and  O_17 
REMARK    3  A    between atoms: C_2  and  C_3 
REMARK    4  A    between atoms: C_2  and  O_16 
REMARK    5  A    between atoms: C_3  and  O_4 
REMARK    6  A    between atoms: O_4  and  C_5 
REMARK    7  A    between atoms: C_6  and  O_15 
REMARK    8  A    between atoms: C_10  and  C_11 
REMARK    9  A    between atoms: C_11  and  C_12 
REMARK   10  A    between atoms: C_11  and  O_14 
REMARK   11  A    between atoms: C_12  and  O_13 
ROOT
HETATM    1  C   UNL     1     -21.078  -7.756  -2.788  1.00  0.00     0.117 C 
HETATM    2  C   UNL     1     -21.849  -6.707  -3.077  1.00  0.00     0.174 C 
HETATM    3  C   UNL     1     -22.149  -6.774  -4.520  1.00  0.00     0.320 C 
HETATM    4  O   UNL     1     -22.785  -5.970  -5.172  1.00  0.00    -0.257 OA
HETATM    5  O   UNL     1     -21.605  -7.920  -5.021  1.00  0.00    -0.301 OA
HETATM    6  C   UNL     1     -20.803  -8.566  -4.014  1.00  0.00     0.222 C 
ENDROOT
BRANCH   1   7
HETATM    7  O   UNL     1     -20.692  -8.084  -1.502  1.00  0.00    -0.347 OA
BRANCH   7   8
HETATM    8  C   UNL     1     -21.124  -9.379  -1.079  1.00  0.00     0.209 C 
BRANCH   8   9
HETATM    9  C   UNL     1     -21.715  -9.371   0.333  1.00  0.00     0.165 C 
BRANCH   9  10
HETATM   10  C   UNL     1     -22.125  -7.972   0.812  1.00  0.00     0.198 C 
BRANCH  10  11
HETATM   11  O   UNL     1     -23.216  -7.457   0.048  1.00  0.00    -0.398 OA
HETATM   12  H   UNL     1     -23.915  -8.134   0.013  1.00  0.00     0.209 HD
ENDBRANCH  10  11
ENDBRANCH   9  10
BRANCH   9  13
HETATM   13  O   UNL     1     -20.748  -9.930   1.227  1.00  0.00    -0.391 OA
HETATM   14  H   UNL     1     -20.069  -9.255   1.413  1.00  0.00     0.210 HD
ENDBRANCH   9  13
ENDBRANCH   8   9
ENDBRANCH   7   8
ENDBRANCH   1   7
BRANCH   2  15
HETATM   15  O   UNL     1     -22.338  -5.767  -2.225  1.00  0.00    -0.353 OA
HETATM   16  H   UNL     1     -21.584  -5.448  -1.695  1.00  0.00     0.218 HD
ENDBRANCH   2  15
BRANCH   6  17
HETATM   17  C   UNL     1     -19.351  -8.586  -4.526  1.00  0.00     0.177 C 
BRANCH  17  18
HETATM   18  C   UNL     1     -18.559  -9.718  -3.850  1.00  0.00     0.198 C 
BRANCH  18  19
HETATM   19  O   UNL     1     -17.956  -9.246  -2.647  1.00  0.00    -0.398 OA
HETATM   20  H   UNL     1     -17.524  -8.397  -2.870  1.00  0.00     0.209 HD
ENDBRANCH  18  19
ENDBRANCH  17  18
BRANCH  17  21
HETATM   21  O   UNL     1     -19.290  -8.799  -5.949  1.00  0.00    -0.390 OA
HETATM   22  H   UNL     1     -19.824  -9.590  -6.153  1.00  0.00     0.210 HD
ENDBRANCH  17  21
ENDBRANCH   6  17
TORSDOF 11
ENDMDL
