MODEL 1
REMARK VINA RESULT:      -1.1      0.000      0.000
REMARK  17 active torsions:
REMARK  status: ('A' for Active; 'I' for Inactive)
REMARK    1  A    between atoms: N_2  and  C_4 
REMARK    2  A    between atoms: N_2  and  C_20 
REMARK    3  A    between atoms: C_4  and  C_5 
REMARK    4  A    between atoms: C_5  and  C_6 
REMARK    5  A    between atoms: C_6  and  N_7 
REMARK       I    between atoms: N_7  and  C_8 
REMARK    6  A    between atoms: C_8  and  C_10 
REMARK    7  A    between atoms: C_10  and  C_11 
REMARK    8  A    between atoms: C_10  and  O_19 
REMARK    9  A    between atoms: C_11  and  C_12 
REMARK   10  A    between atoms: C_11  and  O_18 
REMARK   11  A    between atoms: C_12  and  C_13 
REMARK   12  A    between atoms: C_12  and  O_17 
REMARK   13  A    between atoms: C_13  and  C_14 
REMARK   14  A    between atoms: C_13  and  O_16 
REMARK   15  A    between atoms: C_14  and  O_15 
REMARK   16  A    between atoms: C_20  and  C_21 
REMARK   17  A    between atoms: C_21  and  O_22 
ROOT
HETATM    1 CL   UNL     2     -32.950  -3.303 -11.392  1.00  0.00     0.000 Cl
ENDROOT
TORSDOF 17
ENDMDL
MODEL 2
REMARK VINA RESULT:      -1.0      8.562      8.562
REMARK  17 active torsions:
REMARK  status: ('A' for Active; 'I' for Inactive)
REMARK    1  A    between atoms: N_2  and  C_4 
REMARK    2  A    between atoms: N_2  and  C_20 
REMARK    3  A    between atoms: C_4  and  C_5 
REMARK    4  A    between atoms: C_5  and  C_6 
REMARK    5  A    between atoms: C_6  and  N_7 
REMARK       I    between atoms: N_7  and  C_8 
REMARK    6  A    between atoms: C_8  and  C_10 
REMARK    7  A    between atoms: C_10  and  C_11 
REMARK    8  A    between atoms: C_10  and  O_19 
REMARK    9  A    between atoms: C_11  and  C_12 
REMARK   10  A    between atoms: C_11  and  O_18 
REMARK   11  A    between atoms: C_12  and  C_13 
REMARK   12  A    between atoms: C_12  and  O_17 
REMARK   13  A    between atoms: C_13  and  C_14 
REMARK   14  A    between atoms: C_13  and  O_16 
REMARK   15  A    between atoms: C_14  and  O_15 
REMARK   16  A    between atoms: C_20  and  C_21 
REMARK   17  A    between atoms: C_21  and  O_22 
ROOT
HETATM    1 CL   UNL     2     -37.011   0.574  -4.927  1.00  0.00     0.000 Cl
ENDROOT
TORSDOF 17
ENDMDL
MODEL 3
REMARK VINA RESULT:      -1.0      4.782      4.782
REMARK  17 active torsions:
REMARK  status: ('A' for Active; 'I' for Inactive)
REMARK    1  A    between atoms: N_2  and  C_4 
REMARK    2  A    between atoms: N_2  and  C_20 
REMARK    3  A    between atoms: C_4  and  C_5 
REMARK    4  A    between atoms: C_5  and  C_6 
REMARK    5  A    between atoms: C_6  and  N_7 
REMARK       I    between atoms: N_7  and  C_8 
REMARK    6  A    between atoms: C_8  and  C_10 
REMARK    7  A    between atoms: C_10  and  C_11 
REMARK    8  A    between atoms: C_10  and  O_19 
REMARK    9  A    between atoms: C_11  and  C_12 
REMARK   10  A    between atoms: C_11  and  O_18 
REMARK   11  A    between atoms: C_12  and  C_13 
REMARK   12  A    between atoms: C_12  and  O_17 
REMARK   13  A    between atoms: C_13  and  C_14 
REMARK   14  A    between atoms: C_13  and  O_16 
REMARK   15  A    between atoms: C_14  and  O_15 
REMARK   16  A    between atoms: C_20  and  C_21 
REMARK   17  A    between atoms: C_21  and  O_22 
ROOT
HETATM    1 CL   UNL     2     -34.915  -7.335  -9.733  1.00  0.00     0.000 Cl
ENDROOT
TORSDOF 17
ENDMDL
MODEL 4
REMARK VINA RESULT:      -1.0     14.602     14.602
REMARK  17 active torsions:
REMARK  status: ('A' for Active; 'I' for Inactive)
REMARK    1  A    between atoms: N_2  and  C_4 
REMARK    2  A    between atoms: N_2  and  C_20 
REMARK    3  A    between atoms: C_4  and  C_5 
REMARK    4  A    between atoms: C_5  and  C_6 
REMARK    5  A    between atoms: C_6  and  N_7 
REMARK       I    between atoms: N_7  and  C_8 
REMARK    6  A    between atoms: C_8  and  C_10 
REMARK    7  A    between atoms: C_10  and  C_11 
REMARK    8  A    between atoms: C_10  and  O_19 
REMARK    9  A    between atoms: C_11  and  C_12 
REMARK   10  A    between atoms: C_11  and  O_18 
REMARK   11  A    between atoms: C_12  and  C_13 
REMARK   12  A    between atoms: C_12  and  O_17 
REMARK   13  A    between atoms: C_13  and  C_14 
REMARK   14  A    between atoms: C_13  and  O_16 
REMARK   15  A    between atoms: C_14  and  O_15 
REMARK   16  A    between atoms: C_20  and  C_21 
REMARK   17  A    between atoms: C_21  and  O_22 
ROOT
HETATM    1 CL   UNL     2     -22.240  -6.151  -1.885  1.00  0.00     0.000 Cl
ENDROOT
TORSDOF 17
ENDMDL
MODEL 5
REMARK VINA RESULT:      -0.9     12.032     12.032
REMARK  17 active torsions:
REMARK  status: ('A' for Active; 'I' for Inactive)
REMARK    1  A    between atoms: N_2  and  C_4 
REMARK    2  A    between atoms: N_2  and  C_20 
REMARK    3  A    between atoms: C_4  and  C_5 
REMARK    4  A    between atoms: C_5  and  C_6 
REMARK    5  A    between atoms: C_6  and  N_7 
REMARK       I    between atoms: N_7  and  C_8 
REMARK    6  A    between atoms: C_8  and  C_10 
REMARK    7  A    between atoms: C_10  and  C_11 
REMARK    8  A    between atoms: C_10  and  O_19 
REMARK    9  A    between atoms: C_11  and  C_12 
REMARK   10  A    between atoms: C_11  and  O_18 
REMARK   11  A    between atoms: C_12  and  C_13 
REMARK   12  A    between atoms: C_12  and  O_17 
REMARK   13  A    between atoms: C_13  and  C_14 
REMARK   14  A    between atoms: C_13  and  O_16 
REMARK   15  A    between atoms: C_14  and  O_15 
REMARK   16  A    between atoms: C_20  and  C_21 
REMARK   17  A    between atoms: C_21  and  O_22 
ROOT
HETATM    1 CL   UNL     2     -27.117   7.219 -11.166  1.00  0.00     0.000 Cl
ENDROOT
TORSDOF 17
ENDMDL
MODEL 6
REMARK VINA RESULT:      -0.9     16.133     16.133
REMARK  17 active torsions:
REMARK  status: ('A' for Active; 'I' for Inactive)
REMARK    1  A    between atoms: N_2  and  C_4 
REMARK    2  A    between atoms: N_2  and  C_20 
REMARK    3  A    between atoms: C_4  and  C_5 
REMARK    4  A    between atoms: C_5  and  C_6 
REMARK    5  A    between atoms: C_6  and  N_7 
REMARK       I    between atoms: N_7  and  C_8 
REMARK    6  A    between atoms: C_8  and  C_10 
REMARK    7  A    between atoms: C_10  and  C_11 
REMARK    8  A    between atoms: C_10  and  O_19 
REMARK    9  A    between atoms: C_11  and  C_12 
REMARK   10  A    between atoms: C_11  and  O_18 
REMARK   11  A    between atoms: C_12  and  C_13 
REMARK   12  A    between atoms: C_12  and  O_17 
REMARK   13  A    between atoms: C_13  and  C_14 
REMARK   14  A    between atoms: C_13  and  O_16 
REMARK   15  A    between atoms: C_14  and  O_15 
REMARK   16  A    between atoms: C_20  and  C_21 
REMARK   17  A    between atoms: C_21  and  O_22 
ROOT
HETATM    1 CL   UNL     2     -23.252  -8.078   0.584  1.00  0.00     0.000 Cl
ENDROOT
TORSDOF 17
ENDMDL
MODEL 7
REMARK VINA RESULT:      -0.9      5.333      5.333
REMARK  17 active torsions:
REMARK  status: ('A' for Active; 'I' for Inactive)
REMARK    1  A    between atoms: N_2  and  C_4 
REMARK    2  A    between atoms: N_2  and  C_20 
REMARK    3  A    between atoms: C_4  and  C_5 
REMARK    4  A    between atoms: C_5  and  C_6 
REMARK    5  A    between atoms: C_6  and  N_7 
REMARK       I    between atoms: N_7  and  C_8 
REMARK    6  A    between atoms: C_8  and  C_10 
REMARK    7  A    between atoms: C_10  and  C_11 
REMARK    8  A    between atoms: C_10  and  O_19 
REMARK    9  A    between atoms: C_11  and  C_12 
REMARK   10  A    between atoms: C_11  and  O_18 
REMARK   11  A    between atoms: C_12  and  C_13 
REMARK   12  A    between atoms: C_12  and  O_17 
REMARK   13  A    between atoms: C_13  and  C_14 
REMARK   14  A    between atoms: C_13  and  O_16 
REMARK   15  A    between atoms: C_14  and  O_15 
REMARK   16  A    between atoms: C_20  and  C_21 
REMARK   17  A    between atoms: C_21  and  O_22 
ROOT
HETATM    1 CL   UNL     2     -34.583   1.174 -13.785  1.00  0.00     0.000 Cl
ENDROOT
TORSDOF 17
ENDMDL
MODEL 8
REMARK VINA RESULT:      -0.9     16.216     16.216
REMARK  17 active torsions:
REMARK  status: ('A' for Active; 'I' for Inactive)
REMARK    1  A    between atoms: N_2  and  C_4 
REMARK    2  A    between atoms: N_2  and  C_20 
REMARK    3  A    between atoms: C_4  and  C_5 
REMARK    4  A    between atoms: C_5  and  C_6 
REMARK    5  A    between atoms: C_6  and  N_7 
REMARK       I    between atoms: N_7  and  C_8 
REMARK    6  A    between atoms: C_8  and  C_10 
REMARK    7  A    between atoms: C_10  and  C_11 
REMARK    8  A    between atoms: C_10  and  O_19 
REMARK    9  A    between atoms: C_11  and  C_12 
REMARK   10  A    between atoms: C_11  and  O_18 
REMARK   11  A    between atoms: C_12  and  C_13 
REMARK   12  A    between atoms: C_12  and  O_17 
REMARK   13  A    between atoms: C_13  and  C_14 
REMARK   14  A    between atoms: C_13  and  O_16 
REMARK   15  A    between atoms: C_14  and  O_15 
REMARK   16  A    between atoms: C_20  and  C_21 
REMARK   17  A    between atoms: C_21  and  O_22 
ROOT
HETATM    1 CL   UNL     2     -23.929   5.856  -1.508  1.00  0.00     0.000 Cl
ENDROOT
TORSDOF 17
ENDMDL
MODEL 9
REMARK VINA RESULT:      -0.8      2.291      2.291
REMARK  17 active torsions:
REMARK  status: ('A' for Active; 'I' for Inactive)
REMARK    1  A    between atoms: N_2  and  C_4 
REMARK    2  A    between atoms: N_2  and  C_20 
REMARK    3  A    between atoms: C_4  and  C_5 
REMARK    4  A    between atoms: C_5  and  C_6 
REMARK    5  A    between atoms: C_6  and  N_7 
REMARK       I    between atoms: N_7  and  C_8 
REMARK    6  A    between atoms: C_8  and  C_10 
REMARK    7  A    between atoms: C_10  and  C_11 
REMARK    8  A    between atoms: C_10  and  O_19 
REMARK    9  A    between atoms: C_11  and  C_12 
REMARK   10  A    between atoms: C_11  and  O_18 
REMARK   11  A    between atoms: C_12  and  C_13 
REMARK   12  A    between atoms: C_12  and  O_17 
REMARK   13  A    between atoms: C_13  and  C_14 
REMARK   14  A    between atoms: C_13  and  O_16 
REMARK   15  A    between atoms: C_14  and  O_15 
REMARK   16  A    between atoms: C_20  and  C_21 
REMARK   17  A    between atoms: C_21  and  O_22 
ROOT
HETATM    1 CL   UNL     2     -33.521  -5.496 -11.055  1.00  0.00     0.000 Cl
ENDROOT
TORSDOF 17
ENDMDL
