MODEL 1
REMARK VINA RESULT:      -7.0      0.000      0.000
REMARK  12 active torsions:
REMARK  status: ('A' for Active; 'I' for Inactive)
REMARK    1  A    between atoms: C_2  and  C_3 
REMARK    2  A    between atoms: C_3  and  C_4 
REMARK    3  A    between atoms: C_4  and  C_5 
REMARK    4  A    between atoms: C_5  and  C_6 
REMARK    5  A    between atoms: C_6  and  C_7 
REMARK    6  A    between atoms: C_7  and  C_8 
REMARK    7  A    between atoms: C_8  and  C_9 
REMARK    8  A    between atoms: C_9  and  C_10 
REMARK    9  A    between atoms: C_10  and  C_11 
REMARK       I    between atoms: C_11  and  N_13 
REMARK   10  A    between atoms: N_13  and  C_14 
REMARK   11  A    between atoms: C_14  and  C_15 
REMARK   12  A    between atoms: C_15  and  O_17 
ROOT
HETATM    1  C   UNL     1     -23.668  -3.900  -8.900  1.00  0.00     0.103 C 
ENDROOT
BRANCH   1   2
HETATM    2  C   UNL     1     -22.161  -3.814  -9.135  1.00  0.00     0.009 C 
BRANCH   2   3
HETATM    3  C   UNL     1     -21.397  -4.955  -8.468  1.00  0.00     0.000 C 
BRANCH   3   4
HETATM    4  C   UNL     1     -19.960  -4.527  -8.163  1.00  0.00     0.000 C 
BRANCH   4   5
HETATM    5  C   UNL     1     -19.622  -4.717  -6.686  1.00  0.00     0.000 C 
BRANCH   5   6
HETATM    6  C   UNL     1     -20.874  -5.044  -5.874  1.00  0.00     0.000 C 
BRANCH   6   7
HETATM    7  C   UNL     1     -20.695  -6.344  -5.089  1.00  0.00     0.004 C 
BRANCH   7   8
HETATM    8  C   UNL     1     -21.887  -6.593  -4.165  1.00  0.00     0.026 C 
BRANCH   8   9
HETATM    9  C   UNL     1     -21.616  -6.094  -2.776  1.00  0.00    -0.037 C 
HETATM   10  C   UNL     1     -22.069  -6.702  -1.672  1.00  0.00     0.007 C 
ENDBRANCH   8   9
ENDBRANCH   7   8
ENDBRANCH   6   7
ENDBRANCH   5   6
ENDBRANCH   4   5
ENDBRANCH   3   4
ENDBRANCH   2   3
ENDBRANCH   1   2
BRANCH   1  11
HETATM   11  C   UNL     1     -24.432  -3.446 -10.128  1.00  0.00     0.217 C 
HETATM   12  O   UNL     1     -25.632  -3.188 -10.132  1.00  0.00    -0.274 OA
HETATM   13  N   UNL     1     -23.664  -3.341 -11.260  1.00  0.00    -0.351 N 
HETATM   14  H   UNL     1     -22.671  -3.553 -11.248  1.00  0.00     0.163 HD
BRANCH  13  15
HETATM   15  C   UNL     1     -24.261  -2.915 -12.511  1.00  0.00     0.232 C 
BRANCH  15  16
HETATM   16  C   UNL     1     -23.284  -3.056 -13.666  1.00  0.00     0.158 C 
HETATM   17  O   UNL     1     -23.581  -2.885 -14.842  1.00  0.00    -0.649 OA
BRANCH  16  18
HETATM   18  O   UNL     1     -22.035  -3.393 -13.272  1.00  0.00    -0.775 OA
HETATM   19  H   UNL     1     -21.554  -3.960 -13.905  1.00  0.00     0.167 HD
ENDBRANCH  16  18
ENDBRANCH  15  16
ENDBRANCH  13  15
ENDBRANCH   1  11
TORSDOF 12
ENDMDL
MODEL 2
REMARK VINA RESULT:      -6.7      1.613      2.984
REMARK  12 active torsions:
REMARK  status: ('A' for Active; 'I' for Inactive)
REMARK    1  A    between atoms: C_2  and  C_3 
REMARK    2  A    between atoms: C_3  and  C_4 
REMARK    3  A    between atoms: C_4  and  C_5 
REMARK    4  A    between atoms: C_5  and  C_6 
REMARK    5  A    between atoms: C_6  and  C_7 
REMARK    6  A    between atoms: C_7  and  C_8 
REMARK    7  A    between atoms: C_8  and  C_9 
REMARK    8  A    between atoms: C_9  and  C_10 
REMARK    9  A    between atoms: C_10  and  C_11 
REMARK       I    between atoms: C_11  and  N_13 
REMARK   10  A    between atoms: N_13  and  C_14 
REMARK   11  A    between atoms: C_14  and  C_15 
REMARK   12  A    between atoms: C_15  and  O_17 
ROOT
HETATM    1  C   UNL     1     -20.275  -4.355  -9.229  1.00  0.00     0.103 C 
ENDROOT
BRANCH   1   2
HETATM    2  C   UNL     1     -20.775  -4.919  -7.901  1.00  0.00     0.009 C 
BRANCH   2   3
HETATM    3  C   UNL     1     -19.876  -4.541  -6.727  1.00  0.00     0.000 C 
BRANCH   3   4
HETATM    4  C   UNL     1     -20.407  -5.156  -5.430  1.00  0.00     0.000 C 
BRANCH   4   5
HETATM    5  C   UNL     1     -21.693  -5.944  -5.671  1.00  0.00     0.000 C 
BRANCH   5   6
HETATM    6  C   UNL     1     -22.138  -6.670  -4.403  1.00  0.00     0.000 C 
BRANCH   6   7
HETATM    7  C   UNL     1     -21.346  -6.188  -3.187  1.00  0.00     0.004 C 
BRANCH   7   8
HETATM    8  C   UNL     1     -22.210  -6.217  -1.927  1.00  0.00     0.026 C 
BRANCH   8   9
HETATM    9  C   UNL     1     -22.019  -7.493  -1.161  1.00  0.00    -0.037 C 
HETATM   10  C   UNL     1     -22.520  -7.703   0.063  1.00  0.00     0.007 C 
ENDBRANCH   8   9
ENDBRANCH   7   8
ENDBRANCH   6   7
ENDBRANCH   5   6
ENDBRANCH   4   5
ENDBRANCH   3   4
ENDBRANCH   2   3
ENDBRANCH   1   2
BRANCH   1  11
HETATM   11  C   UNL     1     -21.355  -4.436 -10.291  1.00  0.00     0.217 C 
HETATM   12  O   UNL     1     -21.140  -4.344 -11.495  1.00  0.00    -0.274 OA
HETATM   13  N   UNL     1     -22.619  -4.625  -9.792  1.00  0.00    -0.351 N 
HETATM   14  H   UNL     1     -22.789  -4.704  -8.793  1.00  0.00     0.163 HD
BRANCH  13  15
HETATM   15  C   UNL     1     -23.752  -4.723 -10.691  1.00  0.00     0.232 C 
BRANCH  15  16
HETATM   16  C   UNL     1     -24.520  -3.414 -10.758  1.00  0.00     0.158 C 
HETATM   17  O   UNL     1     -25.436  -3.116 -10.002  1.00  0.00    -0.649 OA
BRANCH  16  18
HETATM   18  O   UNL     1     -24.093  -2.593 -11.744  1.00  0.00    -0.775 OA
HETATM   19  H   UNL     1     -24.446  -1.684 -11.691  1.00  0.00     0.167 HD
ENDBRANCH  16  18
ENDBRANCH  15  16
ENDBRANCH  13  15
ENDBRANCH   1  11
TORSDOF 12
ENDMDL
MODEL 3
REMARK VINA RESULT:      -6.6      1.577      2.309
REMARK  12 active torsions:
REMARK  status: ('A' for Active; 'I' for Inactive)
REMARK    1  A    between atoms: C_2  and  C_3 
REMARK    2  A    between atoms: C_3  and  C_4 
REMARK    3  A    between atoms: C_4  and  C_5 
REMARK    4  A    between atoms: C_5  and  C_6 
REMARK    5  A    between atoms: C_6  and  C_7 
REMARK    6  A    between atoms: C_7  and  C_8 
REMARK    7  A    between atoms: C_8  and  C_9 
REMARK    8  A    between atoms: C_9  and  C_10 
REMARK    9  A    between atoms: C_10  and  C_11 
REMARK       I    between atoms: C_11  and  N_13 
REMARK   10  A    between atoms: N_13  and  C_14 
REMARK   11  A    between atoms: C_14  and  C_15 
REMARK   12  A    between atoms: C_15  and  O_17 
ROOT
HETATM    1  C   UNL     1     -24.201  -3.330 -10.937  1.00  0.00     0.103 C 
ENDROOT
BRANCH   1   2
HETATM    2  C   UNL     1     -23.467  -4.386 -10.114  1.00  0.00     0.009 C 
BRANCH   2   3
HETATM    3  C   UNL     1     -23.032  -3.868  -8.746  1.00  0.00     0.000 C 
BRANCH   3   4
HETATM    4  C   UNL     1     -21.593  -4.294  -8.447  1.00  0.00     0.000 C 
BRANCH   4   5
HETATM    5  C   UNL     1     -21.214  -4.002  -6.997  1.00  0.00     0.000 C 
BRANCH   5   6
HETATM    6  C   UNL     1     -19.935  -4.738  -6.604  1.00  0.00     0.000 C 
BRANCH   6   7
HETATM    7  C   UNL     1     -20.254  -6.066  -5.916  1.00  0.00     0.004 C 
BRANCH   7   8
HETATM    8  C   UNL     1     -21.622  -6.013  -5.236  1.00  0.00     0.026 C 
BRANCH   8   9
HETATM    9  C   UNL     1     -21.618  -6.769  -3.939  1.00  0.00    -0.037 C 
HETATM   10  C   UNL     1     -21.698  -6.178  -2.740  1.00  0.00     0.007 C 
ENDBRANCH   8   9
ENDBRANCH   7   8
ENDBRANCH   6   7
ENDBRANCH   5   6
ENDBRANCH   4   5
ENDBRANCH   3   4
ENDBRANCH   2   3
ENDBRANCH   1   2
BRANCH   1  11
HETATM   11  C   UNL     1     -23.338  -2.843 -12.084  1.00  0.00     0.217 C 
HETATM   12  O   UNL     1     -22.129  -2.653 -11.998  1.00  0.00    -0.274 OA
HETATM   13  N   UNL     1     -24.026  -2.626 -13.251  1.00  0.00    -0.351 N 
HETATM   14  H   UNL     1     -25.026  -2.788 -13.315  1.00  0.00     0.163 HD
BRANCH  13  15
HETATM   15  C   UNL     1     -23.328  -2.160 -14.434  1.00  0.00     0.232 C 
BRANCH  15  16
HETATM   16  C   UNL     1     -23.916  -0.855 -14.943  1.00  0.00     0.158 C 
HETATM   17  O   UNL     1     -23.329  -0.083 -15.692  1.00  0.00    -0.649 OA
BRANCH  16  18
HETATM   18  O   UNL     1     -25.167  -0.617 -14.488  1.00  0.00    -0.775 OA
HETATM   19  H   UNL     1     -25.541   0.240 -14.768  1.00  0.00     0.167 HD
ENDBRANCH  16  18
ENDBRANCH  15  16
ENDBRANCH  13  15
ENDBRANCH   1  11
TORSDOF 12
ENDMDL
MODEL 4
REMARK VINA RESULT:      -6.3      1.180      1.787
REMARK  12 active torsions:
REMARK  status: ('A' for Active; 'I' for Inactive)
REMARK    1  A    between atoms: C_2  and  C_3 
REMARK    2  A    between atoms: C_3  and  C_4 
REMARK    3  A    between atoms: C_4  and  C_5 
REMARK    4  A    between atoms: C_5  and  C_6 
REMARK    5  A    between atoms: C_6  and  C_7 
REMARK    6  A    between atoms: C_7  and  C_8 
REMARK    7  A    between atoms: C_8  and  C_9 
REMARK    8  A    between atoms: C_9  and  C_10 
REMARK    9  A    between atoms: C_10  and  C_11 
REMARK       I    between atoms: C_11  and  N_13 
REMARK   10  A    between atoms: N_13  and  C_14 
REMARK   11  A    between atoms: C_14  and  C_15 
REMARK   12  A    between atoms: C_15  and  O_17 
ROOT
HETATM    1  C   UNL     1     -23.353  -4.291  -7.969  1.00  0.00     0.103 C 
ENDROOT
BRANCH   1   2
HETATM    2  C   UNL     1     -21.841  -4.151  -7.801  1.00  0.00     0.009 C 
BRANCH   2   3
HETATM    3  C   UNL     1     -21.171  -5.460  -7.394  1.00  0.00     0.000 C 
BRANCH   3   4
HETATM    4  C   UNL     1     -20.039  -5.193  -6.399  1.00  0.00     0.000 C 
BRANCH   4   5
HETATM    5  C   UNL     1     -20.533  -5.277  -4.957  1.00  0.00     0.000 C 
BRANCH   5   6
HETATM    6  C   UNL     1     -21.605  -6.355  -4.805  1.00  0.00     0.000 C 
BRANCH   6   7
HETATM    7  C   UNL     1     -21.523  -7.022  -3.431  1.00  0.00     0.004 C 
BRANCH   7   8
HETATM    8  C   UNL     1     -22.022  -6.080  -2.336  1.00  0.00     0.026 C 
BRANCH   8   9
HETATM    9  C   UNL     1     -22.310  -6.823  -1.064  1.00  0.00    -0.037 C 
HETATM   10  C   UNL     1     -22.042  -8.124  -0.892  1.00  0.00     0.007 C 
ENDBRANCH   8   9
ENDBRANCH   7   8
ENDBRANCH   6   7
ENDBRANCH   5   6
ENDBRANCH   4   5
ENDBRANCH   3   4
ENDBRANCH   2   3
ENDBRANCH   1   2
BRANCH   1  11
HETATM   11  C   UNL     1     -23.785  -3.853  -9.354  1.00  0.00     0.217 C 
HETATM   12  O   UNL     1     -24.655  -3.014  -9.567  1.00  0.00    -0.274 OA
HETATM   13  N   UNL     1     -23.115  -4.479 -10.375  1.00  0.00    -0.351 N 
HETATM   14  H   UNL     1     -22.394  -5.170 -10.191  1.00  0.00     0.163 HD
BRANCH  13  15
HETATM   15  C   UNL     1     -23.423  -4.158 -11.755  1.00  0.00     0.232 C 
BRANCH  15  16
HETATM   16  C   UNL     1     -22.349  -3.279 -12.372  1.00  0.00     0.158 C 
HETATM   17  O   UNL     1     -21.542  -2.623 -11.724  1.00  0.00    -0.649 OA
BRANCH  16  18
HETATM   18  O   UNL     1     -22.364  -3.284 -13.724  1.00  0.00    -0.775 OA
HETATM   19  H   UNL     1     -21.495  -3.460 -14.135  1.00  0.00     0.167 HD
ENDBRANCH  16  18
ENDBRANCH  15  16
ENDBRANCH  13  15
ENDBRANCH   1  11
TORSDOF 12
ENDMDL
MODEL 5
REMARK VINA RESULT:      -6.1      1.808      3.183
REMARK  12 active torsions:
REMARK  status: ('A' for Active; 'I' for Inactive)
REMARK    1  A    between atoms: C_2  and  C_3 
REMARK    2  A    between atoms: C_3  and  C_4 
REMARK    3  A    between atoms: C_4  and  C_5 
REMARK    4  A    between atoms: C_5  and  C_6 
REMARK    5  A    between atoms: C_6  and  C_7 
REMARK    6  A    between atoms: C_7  and  C_8 
REMARK    7  A    between atoms: C_8  and  C_9 
REMARK    8  A    between atoms: C_9  and  C_10 
REMARK    9  A    between atoms: C_10  and  C_11 
REMARK       I    between atoms: C_11  and  N_13 
REMARK   10  A    between atoms: N_13  and  C_14 
REMARK   11  A    between atoms: C_14  and  C_15 
REMARK   12  A    between atoms: C_15  and  O_17 
ROOT
HETATM    1  C   UNL     1     -22.293  -4.389  -7.279  1.00  0.00     0.103 C 
ENDROOT
BRANCH   1   2
HETATM    2  C   UNL     1     -20.995  -4.806  -6.592  1.00  0.00     0.009 C 
BRANCH   2   3
HETATM    3  C   UNL     1     -20.775  -6.316  -6.618  1.00  0.00     0.000 C 
BRANCH   3   4
HETATM    4  C   UNL     1     -21.347  -6.960  -5.353  1.00  0.00     0.000 C 
BRANCH   4   5
HETATM    5  C   UNL     1     -21.195  -6.042  -4.142  1.00  0.00     0.000 C 
BRANCH   5   6
HETATM    6  C   UNL     1     -21.277  -6.835  -2.839  1.00  0.00     0.000 C 
BRANCH   6   7
HETATM    7  C   UNL     1     -22.293  -6.212  -1.880  1.00  0.00     0.004 C 
BRANCH   7   8
HETATM    8  C   UNL     1     -22.384  -7.015  -0.583  1.00  0.00     0.026 C 
BRANCH   8   9
HETATM    9  C   UNL     1     -22.062  -8.463  -0.811  1.00  0.00    -0.037 C 
HETATM   10  C   UNL     1     -21.844  -9.337   0.179  1.00  0.00     0.007 C 
ENDBRANCH   8   9
ENDBRANCH   7   8
ENDBRANCH   6   7
ENDBRANCH   5   6
ENDBRANCH   4   5
ENDBRANCH   3   4
ENDBRANCH   2   3
ENDBRANCH   1   2
BRANCH   1  11
HETATM   11  C   UNL     1     -22.099  -4.273  -8.778  1.00  0.00     0.217 C 
HETATM   12  O   UNL     1     -21.054  -3.906  -9.307  1.00  0.00    -0.274 OA
HETATM   13  N   UNL     1     -23.203  -4.619  -9.516  1.00  0.00    -0.351 N 
HETATM   14  H   UNL     1     -24.063  -4.924  -9.071  1.00  0.00     0.163 HD
BRANCH  13  15
HETATM   15  C   UNL     1     -23.162  -4.557 -10.964  1.00  0.00     0.232 C 
BRANCH  15  16
HETATM   16  C   UNL     1     -23.744  -3.251 -11.478  1.00  0.00     0.158 C 
HETATM   17  O   UNL     1     -23.112  -2.426 -12.125  1.00  0.00    -0.649 OA
BRANCH  16  18
HETATM   18  O   UNL     1     -25.045  -3.080 -11.152  1.00  0.00    -0.775 OA
HETATM   19  H   UNL     1     -25.331  -2.146 -11.121  1.00  0.00     0.167 HD
ENDBRANCH  16  18
ENDBRANCH  15  16
ENDBRANCH  13  15
ENDBRANCH   1  11
TORSDOF 12
ENDMDL
MODEL 6
REMARK VINA RESULT:      -6.0      3.308      5.922
REMARK  12 active torsions:
REMARK  status: ('A' for Active; 'I' for Inactive)
REMARK    1  A    between atoms: C_2  and  C_3 
REMARK    2  A    between atoms: C_3  and  C_4 
REMARK    3  A    between atoms: C_4  and  C_5 
REMARK    4  A    between atoms: C_5  and  C_6 
REMARK    5  A    between atoms: C_6  and  C_7 
REMARK    6  A    between atoms: C_7  and  C_8 
REMARK    7  A    between atoms: C_8  and  C_9 
REMARK    8  A    between atoms: C_9  and  C_10 
REMARK    9  A    between atoms: C_10  and  C_11 
REMARK       I    between atoms: C_11  and  N_13 
REMARK   10  A    between atoms: N_13  and  C_14 
REMARK   11  A    between atoms: C_14  and  C_15 
REMARK   12  A    between atoms: C_15  and  O_17 
ROOT
HETATM    1  C   UNL     1     -21.407  -7.423  -5.327  1.00  0.00     0.103 C 
ENDROOT
BRANCH   1   2
HETATM    2  C   UNL     1     -22.147  -6.802  -4.144  1.00  0.00     0.009 C 
BRANCH   2   3
HETATM    3  C   UNL     1     -21.240  -6.568  -2.940  1.00  0.00     0.000 C 
BRANCH   3   4
HETATM    4  C   UNL     1     -22.048  -6.019  -1.762  1.00  0.00     0.000 C 
BRANCH   4   5
HETATM    5  C   UNL     1     -22.494  -7.136  -0.822  1.00  0.00     0.000 C 
BRANCH   5   6
HETATM    6  C   UNL     1     -21.295  -7.913  -0.282  1.00  0.00     0.000 C 
BRANCH   6   7
HETATM    7  C   UNL     1     -21.657  -9.377  -0.031  1.00  0.00     0.004 C 
BRANCH   7   8
HETATM    8  C   UNL     1     -22.692  -9.865  -1.044  1.00  0.00     0.026 C 
BRANCH   8   9
HETATM    9  C   UNL     1     -23.704 -10.769  -0.401  1.00  0.00    -0.037 C 
HETATM   10  C   UNL     1     -24.118 -11.920  -0.946  1.00  0.00     0.007 C 
ENDBRANCH   8   9
ENDBRANCH   7   8
ENDBRANCH   6   7
ENDBRANCH   5   6
ENDBRANCH   4   5
ENDBRANCH   3   4
ENDBRANCH   2   3
ENDBRANCH   1   2
BRANCH   1  11
HETATM   11  C   UNL     1     -21.087  -6.375  -6.374  1.00  0.00     0.217 C 
HETATM   12  O   UNL     1     -20.164  -6.468  -7.177  1.00  0.00    -0.274 OA
HETATM   13  N   UNL     1     -21.928  -5.291  -6.358  1.00  0.00    -0.351 N 
HETATM   14  H   UNL     1     -22.692  -5.222  -5.692  1.00  0.00     0.163 HD
BRANCH  13  15
HETATM   15  C   UNL     1     -21.743  -4.209  -7.305  1.00  0.00     0.232 C 
BRANCH  15  16
HETATM   16  C   UNL     1     -22.792  -4.251  -8.404  1.00  0.00     0.158 C 
HETATM   17  O   UNL     1     -22.542  -4.463  -9.584  1.00  0.00    -0.649 OA
BRANCH  16  18
HETATM   18  O   UNL     1     -24.048  -4.029  -7.954  1.00  0.00    -0.775 OA
HETATM   19  H   UNL     1     -24.716  -4.649  -8.306  1.00  0.00     0.167 HD
ENDBRANCH  16  18
ENDBRANCH  15  16
ENDBRANCH  13  15
ENDBRANCH   1  11
TORSDOF 12
ENDMDL
MODEL 7
REMARK VINA RESULT:      -5.9      4.860      8.787
REMARK  12 active torsions:
REMARK  status: ('A' for Active; 'I' for Inactive)
REMARK    1  A    between atoms: C_2  and  C_3 
REMARK    2  A    between atoms: C_3  and  C_4 
REMARK    3  A    between atoms: C_4  and  C_5 
REMARK    4  A    between atoms: C_5  and  C_6 
REMARK    5  A    between atoms: C_6  and  C_7 
REMARK    6  A    between atoms: C_7  and  C_8 
REMARK    7  A    between atoms: C_8  and  C_9 
REMARK    8  A    between atoms: C_9  and  C_10 
REMARK    9  A    between atoms: C_10  and  C_11 
REMARK       I    between atoms: C_11  and  N_13 
REMARK   10  A    between atoms: N_13  and  C_14 
REMARK   11  A    between atoms: C_14  and  C_15 
REMARK   12  A    between atoms: C_15  and  O_17 
ROOT
HETATM    1  C   UNL     1     -20.578  -6.848  -5.389  1.00  0.00     0.103 C 
ENDROOT
BRANCH   1   2
HETATM    2  C   UNL     1     -20.747  -6.079  -6.698  1.00  0.00     0.009 C 
BRANCH   2   3
HETATM    3  C   UNL     1     -19.719  -4.963  -6.860  1.00  0.00     0.000 C 
BRANCH   3   4
HETATM    4  C   UNL     1     -20.195  -3.948  -7.902  1.00  0.00     0.000 C 
BRANCH   4   5
HETATM    5  C   UNL     1     -21.618  -4.250  -8.366  1.00  0.00     0.000 C 
BRANCH   5   6
HETATM    6  C   UNL     1     -21.643  -4.650  -9.840  1.00  0.00     0.000 C 
BRANCH   6   7
HETATM    7  C   UNL     1     -20.972  -3.585 -10.709  1.00  0.00     0.004 C 
BRANCH   7   8
HETATM    8  C   UNL     1     -21.859  -3.211 -11.896  1.00  0.00     0.026 C 
BRANCH   8   9
HETATM    9  C   UNL     1     -23.295  -3.063 -11.481  1.00  0.00    -0.037 C 
HETATM   10  C   UNL     1     -24.315  -3.040 -12.348  1.00  0.00     0.007 C 
ENDBRANCH   8   9
ENDBRANCH   7   8
ENDBRANCH   6   7
ENDBRANCH   5   6
ENDBRANCH   4   5
ENDBRANCH   3   4
ENDBRANCH   2   3
ENDBRANCH   1   2
BRANCH   1  11
HETATM   11  C   UNL     1     -21.647  -6.454  -4.389  1.00  0.00     0.217 C 
HETATM   12  O   UNL     1     -22.771  -6.073  -4.702  1.00  0.00    -0.274 OA
HETATM   13  N   UNL     1     -21.256  -6.559  -3.078  1.00  0.00    -0.351 N 
HETATM   14  H   UNL     1     -20.325  -6.878  -2.827  1.00  0.00     0.163 HD
BRANCH  13  15
HETATM   15  C   UNL     1     -22.176  -6.217  -2.012  1.00  0.00     0.232 C 
BRANCH  15  16
HETATM   16  C   UNL     1     -22.104  -7.222  -0.875  1.00  0.00     0.158 C 
HETATM   17  O   UNL     1     -21.114  -7.895  -0.615  1.00  0.00    -0.649 OA
BRANCH  16  18
HETATM   18  O   UNL     1     -23.251  -7.308  -0.163  1.00  0.00    -0.775 OA
HETATM   19  H   UNL     1     -23.941  -7.861  -0.579  1.00  0.00     0.167 HD
ENDBRANCH  16  18
ENDBRANCH  15  16
ENDBRANCH  13  15
ENDBRANCH   1  11
TORSDOF 12
ENDMDL
MODEL 8
REMARK VINA RESULT:      -5.8      2.454      4.444
REMARK  12 active torsions:
REMARK  status: ('A' for Active; 'I' for Inactive)
REMARK    1  A    between atoms: C_2  and  C_3 
REMARK    2  A    between atoms: C_3  and  C_4 
REMARK    3  A    between atoms: C_4  and  C_5 
REMARK    4  A    between atoms: C_5  and  C_6 
REMARK    5  A    between atoms: C_6  and  C_7 
REMARK    6  A    between atoms: C_7  and  C_8 
REMARK    7  A    between atoms: C_8  and  C_9 
REMARK    8  A    between atoms: C_9  and  C_10 
REMARK    9  A    between atoms: C_10  and  C_11 
REMARK       I    between atoms: C_11  and  N_13 
REMARK   10  A    between atoms: N_13  and  C_14 
REMARK   11  A    between atoms: C_14  and  C_15 
REMARK   12  A    between atoms: C_15  and  O_17 
ROOT
HETATM    1  C   UNL     1     -20.465  -5.867  -6.819  1.00  0.00     0.103 C 
ENDROOT
BRANCH   1   2
HETATM    2  C   UNL     1     -21.169  -6.644  -5.709  1.00  0.00     0.009 C 
BRANCH   2   3
HETATM    3  C   UNL     1     -21.138  -5.913  -4.370  1.00  0.00     0.000 C 
BRANCH   3   4
HETATM    4  C   UNL     1     -21.589  -6.846  -3.243  1.00  0.00     0.000 C 
BRANCH   4   5
HETATM    5  C   UNL     1     -22.078  -6.058  -2.029  1.00  0.00     0.000 C 
BRANCH   5   6
HETATM    6  C   UNL     1     -22.339  -6.984  -0.842  1.00  0.00     0.000 C 
BRANCH   6   7
HETATM    7  C   UNL     1     -21.258  -8.061  -0.738  1.00  0.00     0.004 C 
BRANCH   7   8
HETATM    8  C   UNL     1     -21.733  -9.231   0.122  1.00  0.00     0.026 C 
BRANCH   8   9
HETATM    9  C   UNL     1     -22.600 -10.172  -0.664  1.00  0.00    -0.037 C 
HETATM   10  C   UNL     1     -23.817 -10.563  -0.264  1.00  0.00     0.007 C 
ENDBRANCH   8   9
ENDBRANCH   7   8
ENDBRANCH   6   7
ENDBRANCH   5   6
ENDBRANCH   4   5
ENDBRANCH   3   4
ENDBRANCH   2   3
ENDBRANCH   1   2
BRANCH   1  11
HETATM   11  C   UNL     1     -21.445  -4.983  -7.565  1.00  0.00     0.217 C 
HETATM   12  O   UNL     1     -22.456  -4.504  -7.061  1.00  0.00    -0.274 OA
HETATM   13  N   UNL     1     -21.108  -4.753  -8.875  1.00  0.00    -0.351 N 
HETATM   14  H   UNL     1     -20.268  -5.150  -9.284  1.00  0.00     0.163 HD
BRANCH  13  15
HETATM   15  C   UNL     1     -21.953  -3.923  -9.711  1.00  0.00     0.232 C 
BRANCH  15  16
HETATM   16  C   UNL     1     -21.521  -3.982 -11.166  1.00  0.00     0.158 C 
HETATM   17  O   UNL     1     -22.248  -4.339 -12.085  1.00  0.00    -0.649 OA
BRANCH  16  18
HETATM   18  O   UNL     1     -20.238  -3.599 -11.359  1.00  0.00    -0.775 OA
HETATM   19  H   UNL     1     -19.821  -3.185 -10.579  1.00  0.00     0.167 HD
ENDBRANCH  16  18
ENDBRANCH  15  16
ENDBRANCH  13  15
ENDBRANCH   1  11
TORSDOF 12
ENDMDL
MODEL 9
REMARK VINA RESULT:      -5.7      3.969      8.095
REMARK  12 active torsions:
REMARK  status: ('A' for Active; 'I' for Inactive)
REMARK    1  A    between atoms: C_2  and  C_3 
REMARK    2  A    between atoms: C_3  and  C_4 
REMARK    3  A    between atoms: C_4  and  C_5 
REMARK    4  A    between atoms: C_5  and  C_6 
REMARK    5  A    between atoms: C_6  and  C_7 
REMARK    6  A    between atoms: C_7  and  C_8 
REMARK    7  A    between atoms: C_8  and  C_9 
REMARK    8  A    between atoms: C_9  and  C_10 
REMARK    9  A    between atoms: C_10  and  C_11 
REMARK       I    between atoms: C_11  and  N_13 
REMARK   10  A    between atoms: N_13  and  C_14 
REMARK   11  A    between atoms: C_14  and  C_15 
REMARK   12  A    between atoms: C_15  and  O_17 
ROOT
HETATM    1  C   UNL     1     -19.608  -4.400  -7.826  1.00  0.00     0.103 C 
ENDROOT
BRANCH   1   2
HETATM    2  C   UNL     1     -20.414  -4.961  -8.996  1.00  0.00     0.009 C 
BRANCH   2   3
HETATM    3  C   UNL     1     -21.241  -3.893  -9.705  1.00  0.00     0.000 C 
BRANCH   3   4
HETATM    4  C   UNL     1     -22.621  -3.768  -9.056  1.00  0.00     0.000 C 
BRANCH   4   5
HETATM    5  C   UNL     1     -23.712  -4.360  -9.946  1.00  0.00     0.000 C 
BRANCH   5   6
HETATM    6  C   UNL     1     -24.139  -3.367 -11.025  1.00  0.00     0.000 C 
BRANCH   6   7
HETATM    7  C   UNL     1     -23.796  -3.892 -12.420  1.00  0.00     0.004 C 
BRANCH   7   8
HETATM    8  C   UNL     1     -22.661  -3.081 -13.044  1.00  0.00     0.026 C 
BRANCH   8   9
HETATM    9  C   UNL     1     -22.986  -2.678 -14.453  1.00  0.00    -0.037 C 
HETATM   10  C   UNL     1     -23.667  -1.569 -14.766  1.00  0.00     0.007 C 
ENDBRANCH   8   9
ENDBRANCH   7   8
ENDBRANCH   6   7
ENDBRANCH   5   6
ENDBRANCH   4   5
ENDBRANCH   3   4
ENDBRANCH   2   3
ENDBRANCH   1   2
BRANCH   1  11
HETATM   11  C   UNL     1     -20.023  -5.053  -6.522  1.00  0.00     0.217 C 
HETATM   12  O   UNL     1     -19.901  -4.525  -5.422  1.00  0.00    -0.274 OA
HETATM   13  N   UNL     1     -20.558  -6.308  -6.669  1.00  0.00    -0.351 N 
HETATM   14  H   UNL     1     -20.659  -6.738  -7.583  1.00  0.00     0.163 HD
BRANCH  13  15
HETATM   15  C   UNL     1     -21.001  -7.054  -5.507  1.00  0.00     0.232 C 
BRANCH  15  16
HETATM   16  C   UNL     1     -22.151  -6.351  -4.804  1.00  0.00     0.158 C 
HETATM   17  O   UNL     1     -23.220  -6.084  -5.337  1.00  0.00    -0.649 OA
BRANCH  16  18
HETATM   18  O   UNL     1     -21.881  -6.043  -3.515  1.00  0.00    -0.775 OA
HETATM   19  H   UNL     1     -21.370  -5.219  -3.398  1.00  0.00     0.167 HD
ENDBRANCH  16  18
ENDBRANCH  15  16
ENDBRANCH  13  15
ENDBRANCH   1  11
TORSDOF 12
ENDMDL
