MODEL 1
REMARK VINA RESULT:      -6.9      0.000      0.000
REMARK  5 active torsions:
REMARK  status: ('A' for Active; 'I' for Inactive)
REMARK    1  A    between atoms: O_2  and  C_3 
REMARK    2  A    between atoms: C_4  and  O_22 
REMARK    3  A    between atoms: C_6  and  C_9 
REMARK    4  A    between atoms: C_14  and  O_21 
REMARK    5  A    between atoms: C_16  and  O_20 
ROOT
HETATM    1  C   UNL     1     -21.157  -8.880  -0.396  1.00  0.00     0.169 C 
HETATM    2  C   UNL     1     -21.779  -7.486  -0.384  1.00  0.00     0.121 C 
HETATM    3  C   UNL     1     -21.995  -6.948  -1.771  1.00  0.00     0.167 C 
HETATM    4  O   UNL     1     -22.782  -6.043  -2.016  1.00  0.00    -0.292 OA
HETATM    5  C   UNL     1     -21.164  -7.518  -2.841  1.00  0.00     0.076 A 
HETATM    6  C   UNL     1     -21.283  -7.093  -4.173  1.00  0.00     0.085 A 
HETATM    7  C   UNL     1     -20.621  -7.786  -5.179  1.00  0.00     0.074 A 
HETATM    8  C   UNL     1     -19.802  -8.860  -4.840  1.00  0.00     0.071 A 
HETATM    9  C   UNL     1     -19.560  -9.193  -3.517  1.00  0.00     0.074 A 
HETATM   10  C   UNL     1     -20.264  -8.535  -2.520  1.00  0.00     0.089 A 
HETATM   11  O   UNL     1     -19.998  -8.923  -1.234  1.00  0.00    -0.340 OA
ENDROOT
BRANCH   1  12
HETATM   12  C   UNL     1     -21.981 -10.144  -0.602  1.00  0.00    -0.026 C 
HETATM   13  C   UNL     1     -21.266 -11.346  -0.774  1.00  0.00     0.049 C 
HETATM   14  C   UNL     1     -21.899 -12.589  -0.726  1.00  0.00     0.099 C 
HETATM   15  C   UNL     1     -23.278 -12.676  -0.577  1.00  0.00     0.101 C 
HETATM   16  C   UNL     1     -24.007 -11.477  -0.543  1.00  0.00     0.040 C 
HETATM   17  C   UNL     1     -23.373 -10.220  -0.550  1.00  0.00     0.012 C 
BRANCH  14  18
HETATM   18  O   UNL     1     -21.067 -13.669  -0.725  1.00  0.00    -0.358 OA
HETATM   19  H   UNL     1     -21.386 -14.227  -1.457  1.00  0.00     0.217 HD
ENDBRANCH  14  18
BRANCH  15  20
HETATM   20  O   UNL     1     -24.043 -13.791  -0.382  1.00  0.00    -0.353 OA
HETATM   21  C   UNL     1     -24.340 -14.638  -1.484  1.00  0.00     0.210 C 
ENDBRANCH  15  20
ENDBRANCH   1  12
BRANCH   6  22
HETATM   22  O   UNL     1     -22.011  -5.998  -4.544  1.00  0.00    -0.360 OA
HETATM   23  H   UNL     1     -22.790  -5.928  -3.948  1.00  0.00     0.217 HD
ENDBRANCH   6  22
BRANCH   8  24
HETATM   24  O   UNL     1     -19.228  -9.636  -5.802  1.00  0.00    -0.361 OA
HETATM   25  H   UNL     1     -18.425 -10.028  -5.420  1.00  0.00     0.217 HD
ENDBRANCH   8  24
TORSDOF 5
ENDMDL
MODEL 2
REMARK VINA RESULT:      -6.4      2.375      6.771
REMARK  5 active torsions:
REMARK  status: ('A' for Active; 'I' for Inactive)
REMARK    1  A    between atoms: O_2  and  C_3 
REMARK    2  A    between atoms: C_4  and  O_22 
REMARK    3  A    between atoms: C_6  and  C_9 
REMARK    4  A    between atoms: C_14  and  O_21 
REMARK    5  A    between atoms: C_16  and  O_20 
ROOT
HETATM    1  C   UNL     1     -20.202  -9.176  -4.488  1.00  0.00     0.169 C 
HETATM    2  C   UNL     1     -20.913 -10.495  -4.779  1.00  0.00     0.121 C 
HETATM    3  C   UNL     1     -22.009 -10.780  -3.790  1.00  0.00     0.167 C 
HETATM    4  O   UNL     1     -22.921 -11.562  -4.019  1.00  0.00    -0.292 OA
HETATM    5  C   UNL     1     -21.910 -10.118  -2.481  1.00  0.00     0.076 A 
HETATM    6  C   UNL     1     -22.878 -10.309  -1.483  1.00  0.00     0.085 A 
HETATM    7  C   UNL     1     -22.853  -9.522  -0.339  1.00  0.00     0.074 A 
HETATM    8  C   UNL     1     -21.830  -8.591  -0.176  1.00  0.00     0.071 A 
HETATM    9  C   UNL     1     -20.787  -8.499  -1.084  1.00  0.00     0.074 A 
HETATM   10  C   UNL     1     -20.844  -9.248  -2.250  1.00  0.00     0.089 A 
HETATM   11  O   UNL     1     -19.796  -9.097  -3.117  1.00  0.00    -0.340 OA
ENDROOT
BRANCH   1  12
HETATM   12  C   UNL     1     -20.757  -7.830  -4.933  1.00  0.00    -0.026 C 
HETATM   13  C   UNL     1     -19.887  -6.996  -5.665  1.00  0.00     0.049 C 
HETATM   14  C   UNL     1     -20.348  -5.859  -6.329  1.00  0.00     0.099 C 
HETATM   15  C   UNL     1     -21.680  -5.472  -6.231  1.00  0.00     0.101 C 
HETATM   16  C   UNL     1     -22.516  -6.225  -5.392  1.00  0.00     0.040 C 
HETATM   17  C   UNL     1     -22.070  -7.395  -4.750  1.00  0.00     0.012 C 
BRANCH  14  18
HETATM   18  O   UNL     1     -19.441  -5.249  -7.144  1.00  0.00    -0.358 OA
HETATM   19  H   UNL     1     -19.901  -4.459  -7.479  1.00  0.00     0.217 HD
ENDBRANCH  14  18
BRANCH  15  20
HETATM   20  O   UNL     1     -22.328  -4.477  -6.907  1.00  0.00    -0.353 OA
HETATM   21  C   UNL     1     -22.410  -4.532  -8.325  1.00  0.00     0.210 C 
ENDBRANCH  15  20
ENDBRANCH   1  12
BRANCH   6  22
HETATM   22  O   UNL     1     -23.853 -11.263  -1.563  1.00  0.00    -0.360 OA
HETATM   23  H   UNL     1     -23.913 -11.719  -0.693  1.00  0.00     0.217 HD
ENDBRANCH   6  22
BRANCH   8  24
HETATM   24  O   UNL     1     -21.832  -7.722   0.873  1.00  0.00    -0.361 OA
HETATM   25  H   UNL     1     -22.520  -7.057   0.700  1.00  0.00     0.217 HD
ENDBRANCH   8  24
TORSDOF 5
ENDMDL
MODEL 3
REMARK VINA RESULT:      -6.2      2.580      5.305
REMARK  5 active torsions:
REMARK  status: ('A' for Active; 'I' for Inactive)
REMARK    1  A    between atoms: O_2  and  C_3 
REMARK    2  A    between atoms: C_4  and  O_22 
REMARK    3  A    between atoms: C_6  and  C_9 
REMARK    4  A    between atoms: C_14  and  O_21 
REMARK    5  A    between atoms: C_16  and  O_20 
ROOT
HETATM    1  C   UNL     1     -20.625 -10.126  -3.925  1.00  0.00     0.169 C 
HETATM    2  C   UNL     1     -21.134  -9.003  -4.826  1.00  0.00     0.121 C 
HETATM    3  C   UNL     1     -21.461  -7.757  -4.051  1.00  0.00     0.167 C 
HETATM    4  O   UNL     1     -21.536  -6.653  -4.573  1.00  0.00    -0.292 OA
HETATM    5  C   UNL     1     -21.757  -7.923  -2.621  1.00  0.00     0.076 A 
HETATM    6  C   UNL     1     -22.072  -6.829  -1.802  1.00  0.00     0.085 A 
HETATM    7  C   UNL     1     -22.156  -7.000  -0.425  1.00  0.00     0.074 A 
HETATM    8  C   UNL     1     -21.980  -8.272   0.114  1.00  0.00     0.071 A 
HETATM    9  C   UNL     1     -21.818  -9.383  -0.698  1.00  0.00     0.074 A 
HETATM   10  C   UNL     1     -21.681  -9.201  -2.066  1.00  0.00     0.089 A 
HETATM   11  O   UNL     1     -21.500 -10.334  -2.812  1.00  0.00    -0.340 OA
ENDROOT
BRANCH   1  12
HETATM   12  C   UNL     1     -19.178 -10.209  -3.457  1.00  0.00    -0.026 C 
HETATM   13  C   UNL     1     -18.876 -11.204  -2.505  1.00  0.00     0.049 C 
HETATM   14  C   UNL     1     -17.560 -11.537  -2.185  1.00  0.00     0.099 C 
HETATM   15  C   UNL     1     -16.496 -10.843  -2.750  1.00  0.00     0.101 C 
HETATM   16  C   UNL     1     -16.798  -9.763  -3.594  1.00  0.00     0.040 C 
HETATM   17  C   UNL     1     -18.121  -9.446  -3.953  1.00  0.00     0.012 C 
BRANCH  14  18
HETATM   18  O   UNL     1     -17.411 -12.634  -1.389  1.00  0.00    -0.358 OA
HETATM   19  H   UNL     1     -16.452 -12.806  -1.382  1.00  0.00     0.217 HD
ENDBRANCH  14  18
BRANCH  15  20
HETATM   20  O   UNL     1     -15.160 -11.112  -2.655  1.00  0.00    -0.353 OA
HETATM   21  C   UNL     1     -14.586 -12.112  -3.486  1.00  0.00     0.210 C 
ENDBRANCH  15  20
ENDBRANCH   1  12
BRANCH   6  22
HETATM   22  O   UNL     1     -22.331  -5.579  -2.292  1.00  0.00    -0.360 OA
HETATM   23  H   UNL     1     -22.301  -5.620  -3.275  1.00  0.00     0.217 HD
ENDBRANCH   6  22
BRANCH   8  24
HETATM   24  O   UNL     1     -21.940  -8.463   1.462  1.00  0.00    -0.361 OA
HETATM   25  H   UNL     1     -21.437  -7.725   1.847  1.00  0.00     0.217 HD
ENDBRANCH   8  24
TORSDOF 5
ENDMDL
MODEL 4
REMARK VINA RESULT:      -5.9      1.471      2.239
REMARK  5 active torsions:
REMARK  status: ('A' for Active; 'I' for Inactive)
REMARK    1  A    between atoms: O_2  and  C_3 
REMARK    2  A    between atoms: C_4  and  O_22 
REMARK    3  A    between atoms: C_6  and  C_9 
REMARK    4  A    between atoms: C_14  and  O_21 
REMARK    5  A    between atoms: C_16  and  O_20 
ROOT
HETATM    1  C   UNL     1     -21.041  -7.898  -0.845  1.00  0.00     0.169 C 
HETATM    2  C   UNL     1     -21.850  -7.066  -1.837  1.00  0.00     0.121 C 
HETATM    3  C   UNL     1     -21.670  -7.538  -3.254  1.00  0.00     0.167 C 
HETATM    4  O   UNL     1     -22.464  -7.273  -4.146  1.00  0.00    -0.292 OA
HETATM    5  C   UNL     1     -20.445  -8.294  -3.551  1.00  0.00     0.076 A 
HETATM    6  C   UNL     1     -20.176  -8.785  -4.838  1.00  0.00     0.085 A 
HETATM    7  C   UNL     1     -19.110  -9.654  -5.035  1.00  0.00     0.074 A 
HETATM    8  C   UNL     1     -18.290  -9.979  -3.958  1.00  0.00     0.071 A 
HETATM    9  C   UNL     1     -18.457  -9.383  -2.718  1.00  0.00     0.074 A 
HETATM   10  C   UNL     1     -19.553  -8.559  -2.512  1.00  0.00     0.089 A 
HETATM   11  O   UNL     1     -19.676  -8.018  -1.261  1.00  0.00    -0.340 OA
ENDROOT
BRANCH   1  12
HETATM   12  C   UNL     1     -21.529  -9.237  -0.309  1.00  0.00    -0.026 C 
HETATM   13  C   UNL     1     -22.799  -9.669  -0.742  1.00  0.00     0.049 C 
HETATM   14  C   UNL     1     -23.246 -10.971  -0.519  1.00  0.00     0.099 C 
HETATM   15  C   UNL     1     -22.473 -11.871   0.206  1.00  0.00     0.101 C 
HETATM   16  C   UNL     1     -21.270 -11.401   0.754  1.00  0.00     0.040 C 
HETATM   17  C   UNL     1     -20.793 -10.102   0.501  1.00  0.00     0.012 C 
BRANCH  14  18
HETATM   18  O   UNL     1     -24.410 -11.306  -1.146  1.00  0.00    -0.358 OA
HETATM   19  H   UNL     1     -24.158 -12.005  -1.777  1.00  0.00     0.217 HD
ENDBRANCH  14  18
BRANCH  15  20
HETATM   20  O   UNL     1     -22.688 -13.205   0.408  1.00  0.00    -0.353 OA
HETATM   21  C   UNL     1     -23.292 -13.641   1.618  1.00  0.00     0.210 C 
ENDBRANCH  15  20
ENDBRANCH   1  12
BRANCH   6  22
HETATM   22  O   UNL     1     -20.905  -8.432  -5.939  1.00  0.00    -0.360 OA
HETATM   23  H   UNL     1     -20.863  -9.170  -6.588  1.00  0.00     0.217 HD
ENDBRANCH   6  22
BRANCH   8  24
HETATM   24  O   UNL     1     -17.307 -10.914  -4.082  1.00  0.00    -0.361 OA
HETATM   25  H   UNL     1     -16.456 -10.443  -4.102  1.00  0.00     0.217 HD
ENDBRANCH   8  24
TORSDOF 5
ENDMDL
MODEL 5
REMARK VINA RESULT:      -5.9      2.437      5.657
REMARK  5 active torsions:
REMARK  status: ('A' for Active; 'I' for Inactive)
REMARK    1  A    between atoms: O_2  and  C_3 
REMARK    2  A    between atoms: C_4  and  O_22 
REMARK    3  A    between atoms: C_6  and  C_9 
REMARK    4  A    between atoms: C_14  and  O_21 
REMARK    5  A    between atoms: C_16  and  O_20 
ROOT
HETATM    1  C   UNL     1     -20.568  -8.999  -4.786  1.00  0.00     0.169 C 
HETATM    2  C   UNL     1     -20.860  -7.506  -4.653  1.00  0.00     0.121 C 
HETATM    3  C   UNL     1     -21.219  -7.121  -3.245  1.00  0.00     0.167 C 
HETATM    4  O   UNL     1     -21.142  -5.972  -2.832  1.00  0.00    -0.292 OA
HETATM    5  C   UNL     1     -21.738  -8.187  -2.377  1.00  0.00     0.076 A 
HETATM    6  C   UNL     1     -22.102  -7.942  -1.044  1.00  0.00     0.085 A 
HETATM    7  C   UNL     1     -22.403  -9.007  -0.205  1.00  0.00     0.074 A 
HETATM    8  C   UNL     1     -22.395 -10.301  -0.718  1.00  0.00     0.071 A 
HETATM    9  C   UNL     1     -22.185 -10.541  -2.067  1.00  0.00     0.074 A 
HETATM   10  C   UNL     1     -21.830  -9.482  -2.889  1.00  0.00     0.089 A 
HETATM   11  O   UNL     1     -21.613  -9.786  -4.206  1.00  0.00    -0.340 OA
ENDROOT
BRANCH   1  12
HETATM   12  C   UNL     1     -19.217  -9.605  -4.429  1.00  0.00    -0.026 C 
HETATM   13  C   UNL     1     -18.735 -10.623  -5.277  1.00  0.00     0.049 C 
HETATM   14  C   UNL     1     -17.419 -11.080  -5.198  1.00  0.00     0.099 C 
HETATM   15  C   UNL     1     -16.556 -10.589  -4.226  1.00  0.00     0.101 C 
HETATM   16  C   UNL     1     -17.074  -9.676  -3.296  1.00  0.00     0.040 C 
HETATM   17  C   UNL     1     -18.388  -9.179  -3.392  1.00  0.00     0.012 C 
BRANCH  14  18
HETATM   18  O   UNL     1     -17.036 -11.933  -6.191  1.00  0.00    -0.358 OA
HETATM   19  H   UNL     1     -17.499 -11.610  -6.986  1.00  0.00     0.217 HD
ENDBRANCH  14  18
BRANCH  15  20
HETATM   20  O   UNL     1     -15.217 -10.822  -4.084  1.00  0.00    -0.353 OA
HETATM   21  C   UNL     1     -14.776 -12.010  -3.442  1.00  0.00     0.210 C 
ENDBRANCH  15  20
ENDBRANCH   1  12
BRANCH   6  22
HETATM   22  O   UNL     1     -22.201  -6.684  -0.517  1.00  0.00    -0.360 OA
HETATM   23  H   UNL     1     -22.107  -6.750   0.460  1.00  0.00     0.217 HD
ENDBRANCH   6  22
BRANCH   8  24
HETATM   24  O   UNL     1     -22.572 -11.379   0.095  1.00  0.00    -0.361 OA
HETATM   25  H   UNL     1     -21.691 -11.697   0.356  1.00  0.00     0.217 HD
ENDBRANCH   8  24
TORSDOF 5
ENDMDL
MODEL 6
REMARK VINA RESULT:      -5.9      4.278      5.459
REMARK  5 active torsions:
REMARK  status: ('A' for Active; 'I' for Inactive)
REMARK    1  A    between atoms: O_2  and  C_3 
REMARK    2  A    between atoms: C_4  and  O_22 
REMARK    3  A    between atoms: C_6  and  C_9 
REMARK    4  A    between atoms: C_14  and  O_21 
REMARK    5  A    between atoms: C_16  and  O_20 
ROOT
HETATM    1  C   UNL     1     -20.829  -7.085  -4.195  1.00  0.00     0.169 C 
HETATM    2  C   UNL     1     -22.272  -6.674  -3.915  1.00  0.00     0.121 C 
HETATM    3  C   UNL     1     -22.915  -6.011  -5.101  1.00  0.00     0.167 C 
HETATM    4  O   UNL     1     -24.128  -5.926  -5.235  1.00  0.00    -0.292 OA
HETATM    5  C   UNL     1     -22.015  -5.397  -6.087  1.00  0.00     0.076 A 
HETATM    6  C   UNL     1     -22.505  -4.754  -7.233  1.00  0.00     0.085 A 
HETATM    7  C   UNL     1     -21.624  -4.358  -8.232  1.00  0.00     0.074 A 
HETATM    8  C   UNL     1     -20.258  -4.557  -8.051  1.00  0.00     0.071 A 
HETATM    9  C   UNL     1     -19.752  -5.053  -6.860  1.00  0.00     0.074 A 
HETATM   10  C   UNL     1     -20.637  -5.497  -5.889  1.00  0.00     0.089 A 
HETATM   11  O   UNL     1     -20.078  -5.998  -4.745  1.00  0.00    -0.340 OA
ENDROOT
BRANCH   1  12
HETATM   12  C   UNL     1     -20.471  -8.372  -4.928  1.00  0.00    -0.026 C 
HETATM   13  C   UNL     1     -19.105  -8.584  -5.205  1.00  0.00     0.049 C 
HETATM   14  C   UNL     1     -18.630  -9.820  -5.646  1.00  0.00     0.099 C 
HETATM   15  C   UNL     1     -19.508 -10.869  -5.893  1.00  0.00     0.101 C 
HETATM   16  C   UNL     1     -20.881 -10.617  -5.749  1.00  0.00     0.040 C 
HETATM   17  C   UNL     1     -21.366  -9.387  -5.266  1.00  0.00     0.012 C 
BRANCH  14  18
HETATM   18  O   UNL     1     -17.273  -9.939  -5.700  1.00  0.00    -0.358 OA
HETATM   19  H   UNL     1     -17.008  -9.401  -6.468  1.00  0.00     0.217 HD
ENDBRANCH  14  18
BRANCH  15  20
HETATM   20  O   UNL     1     -19.215 -12.168  -6.199  1.00  0.00    -0.353 OA
HETATM   21  C   UNL     1     -18.831 -12.506  -7.525  1.00  0.00     0.210 C 
ENDBRANCH  15  20
ENDBRANCH   1  12
BRANCH   6  22
HETATM   22  O   UNL     1     -23.829  -4.466  -7.419  1.00  0.00    -0.360 OA
HETATM   23  H   UNL     1     -24.087  -3.768  -6.775  1.00  0.00     0.217 HD
ENDBRANCH   6  22
BRANCH   8  24
HETATM   24  O   UNL     1     -19.372  -4.289  -9.050  1.00  0.00    -0.361 OA
HETATM   25  H   UNL     1     -18.504  -4.626  -8.770  1.00  0.00     0.217 HD
ENDBRANCH   8  24
TORSDOF 5
ENDMDL
MODEL 7
REMARK VINA RESULT:      -5.8      1.640      6.514
REMARK  5 active torsions:
REMARK  status: ('A' for Active; 'I' for Inactive)
REMARK    1  A    between atoms: O_2  and  C_3 
REMARK    2  A    between atoms: C_4  and  O_22 
REMARK    3  A    between atoms: C_6  and  C_9 
REMARK    4  A    between atoms: C_14  and  O_21 
REMARK    5  A    between atoms: C_16  and  O_20 
ROOT
HETATM    1  C   UNL     1     -19.584  -9.663  -2.454  1.00  0.00     0.169 C 
HETATM    2  C   UNL     1     -19.147 -11.014  -3.014  1.00  0.00     0.121 C 
HETATM    3  C   UNL     1     -20.266 -12.019  -3.011  1.00  0.00     0.167 C 
HETATM    4  O   UNL     1     -20.261 -13.018  -3.717  1.00  0.00    -0.292 OA
HETATM    5  C   UNL     1     -21.364 -11.787  -2.062  1.00  0.00     0.076 A 
HETATM    6  C   UNL     1     -22.460 -12.658  -1.975  1.00  0.00     0.085 A 
HETATM    7  C   UNL     1     -23.563 -12.305  -1.208  1.00  0.00     0.074 A 
HETATM    8  C   UNL     1     -23.537 -11.112  -0.489  1.00  0.00     0.071 A 
HETATM    9  C   UNL     1     -22.401 -10.319  -0.449  1.00  0.00     0.074 A 
HETATM   10  C   UNL     1     -21.324 -10.647  -1.258  1.00  0.00     0.089 A 
HETATM   11  O   UNL     1     -20.241  -9.813  -1.191  1.00  0.00    -0.340 OA
ENDROOT
BRANCH   1  12
HETATM   12  C   UNL     1     -20.323  -8.628  -3.293  1.00  0.00    -0.026 C 
HETATM   13  C   UNL     1     -21.132  -7.708  -2.596  1.00  0.00     0.049 C 
HETATM   14  C   UNL     1     -21.658  -6.576  -3.219  1.00  0.00     0.099 C 
HETATM   15  C   UNL     1     -21.456  -6.356  -4.576  1.00  0.00     0.101 C 
HETATM   16  C   UNL     1     -20.767  -7.341  -5.300  1.00  0.00     0.040 C 
HETATM   17  C   UNL     1     -20.199  -8.466  -4.673  1.00  0.00     0.012 C 
BRANCH  14  18
HETATM   18  O   UNL     1     -22.266  -5.681  -2.389  1.00  0.00    -0.358 OA
HETATM   19  H   UNL     1     -22.565  -4.963  -2.976  1.00  0.00     0.217 HD
ENDBRANCH  14  18
BRANCH  15  20
HETATM   20  O   UNL     1     -21.781  -5.254  -5.316  1.00  0.00    -0.353 OA
HETATM   21  C   UNL     1     -20.865  -4.768  -6.288  1.00  0.00     0.210 C 
ENDBRANCH  15  20
ENDBRANCH   1  12
BRANCH   6  22
HETATM   22  O   UNL     1     -22.498 -13.874  -2.598  1.00  0.00    -0.360 OA
HETATM   23  H   UNL     1     -22.054 -14.533  -2.017  1.00  0.00     0.217 HD
ENDBRANCH   6  22
BRANCH   8  24
HETATM   24  O   UNL     1     -24.638 -10.673   0.182  1.00  0.00    -0.361 OA
HETATM   25  H   UNL     1     -25.074 -11.451   0.569  1.00  0.00     0.217 HD
ENDBRANCH   8  24
TORSDOF 5
ENDMDL
MODEL 8
REMARK VINA RESULT:      -5.8     17.277     19.816
REMARK  5 active torsions:
REMARK  status: ('A' for Active; 'I' for Inactive)
REMARK    1  A    between atoms: O_2  and  C_3 
REMARK    2  A    between atoms: C_4  and  O_22 
REMARK    3  A    between atoms: C_6  and  C_9 
REMARK    4  A    between atoms: C_14  and  O_21 
REMARK    5  A    between atoms: C_16  and  O_20 
ROOT
HETATM    1  C   UNL     1     -23.888   7.170  -3.287  1.00  0.00     0.169 C 
HETATM    2  C   UNL     1     -25.412   7.092  -3.337  1.00  0.00     0.121 C 
HETATM    3  C   UNL     1     -26.055   7.834  -2.198  1.00  0.00     0.167 C 
HETATM    4  O   UNL     1     -27.220   8.207  -2.225  1.00  0.00    -0.292 OA
HETATM    5  C   UNL     1     -25.236   8.047  -0.997  1.00  0.00     0.076 A 
HETATM    6  C   UNL     1     -25.733   8.729   0.124  1.00  0.00     0.085 A 
HETATM    7  C   UNL     1     -24.873   9.077   1.157  1.00  0.00     0.074 A 
HETATM    8  C   UNL     1     -23.537   8.691   1.089  1.00  0.00     0.071 A 
HETATM    9  C   UNL     1     -23.069   7.889   0.060  1.00  0.00     0.074 A 
HETATM   10  C   UNL     1     -23.917   7.590  -0.996  1.00  0.00     0.089 A 
HETATM   11  O   UNL     1     -23.392   6.813  -1.993  1.00  0.00    -0.340 OA
ENDROOT
BRANCH   1  12
HETATM   12  C   UNL     1     -23.110   8.368  -3.818  1.00  0.00    -0.026 C 
HETATM   13  C   UNL     1     -23.868   9.478  -4.242  1.00  0.00     0.049 C 
HETATM   14  C   UNL     1     -23.273  10.711  -4.514  1.00  0.00     0.099 C 
HETATM   15  C   UNL     1     -21.894  10.862  -4.441  1.00  0.00     0.101 C 
HETATM   16  C   UNL     1     -21.127   9.723  -4.153  1.00  0.00     0.040 C 
HETATM   17  C   UNL     1     -21.721   8.486  -3.838  1.00  0.00     0.012 C 
BRANCH  14  18
HETATM   18  O   UNL     1     -24.139  11.741  -4.737  1.00  0.00    -0.358 OA
HETATM   19  H   UNL     1     -24.079  11.910  -5.694  1.00  0.00     0.217 HD
ENDBRANCH  14  18
BRANCH  15  20
HETATM   20  O   UNL     1     -21.159  12.010  -4.545  1.00  0.00    -0.353 OA
HETATM   21  C   UNL     1     -19.781  11.994  -4.197  1.00  0.00     0.210 C 
ENDBRANCH  15  20
ENDBRANCH   1  12
BRANCH   6  22
HETATM   22  O   UNL     1     -27.052   9.059   0.272  1.00  0.00    -0.360 OA
HETATM   23  H   UNL     1     -27.188   9.961  -0.098  1.00  0.00     0.217 HD
ENDBRANCH   6  22
BRANCH   8  24
HETATM   24  O   UNL     1     -22.637   9.109   2.022  1.00  0.00    -0.361 OA
HETATM   25  H   UNL     1     -23.002   9.904   2.445  1.00  0.00     0.217 HD
ENDBRANCH   8  24
TORSDOF 5
ENDMDL
MODEL 9
REMARK VINA RESULT:      -5.8      2.614      5.329
REMARK  5 active torsions:
REMARK  status: ('A' for Active; 'I' for Inactive)
REMARK    1  A    between atoms: O_2  and  C_3 
REMARK    2  A    between atoms: C_4  and  O_22 
REMARK    3  A    between atoms: C_6  and  C_9 
REMARK    4  A    between atoms: C_14  and  O_21 
REMARK    5  A    between atoms: C_16  and  O_20 
ROOT
HETATM    1  C   UNL     1     -20.343  -9.568  -4.450  1.00  0.00     0.169 C 
HETATM    2  C   UNL     1     -20.531  -8.054  -4.396  1.00  0.00     0.121 C 
HETATM    3  C   UNL     1     -21.021  -7.590  -3.053  1.00  0.00     0.167 C 
HETATM    4  O   UNL     1     -20.902  -6.434  -2.668  1.00  0.00    -0.292 OA
HETATM    5  C   UNL     1     -21.718  -8.581  -2.222  1.00  0.00     0.076 A 
HETATM    6  C   UNL     1     -22.215  -8.258  -0.950  1.00  0.00     0.085 A 
HETATM    7  C   UNL     1     -22.694  -9.265  -0.121  1.00  0.00     0.074 A 
HETATM    8  C   UNL     1     -22.727 -10.575  -0.592  1.00  0.00     0.071 A 
HETATM    9  C   UNL     1     -22.380 -10.881  -1.898  1.00  0.00     0.074 A 
HETATM   10  C   UNL     1     -21.851  -9.884  -2.703  1.00  0.00     0.089 A 
HETATM   11  O   UNL     1     -21.507 -10.253  -3.976  1.00  0.00    -0.340 OA
ENDROOT
BRANCH   1  12
HETATM   12  C   UNL     1     -19.094 -10.258  -3.917  1.00  0.00    -0.026 C 
HETATM   13  C   UNL     1     -17.981  -9.436  -3.646  1.00  0.00     0.049 C 
HETATM   14  C   UNL     1     -16.878  -9.907  -2.934  1.00  0.00     0.099 C 
HETATM   15  C   UNL     1     -16.811 -11.234  -2.527  1.00  0.00     0.101 C 
HETATM   16  C   UNL     1     -17.856 -12.087  -2.916  1.00  0.00     0.040 C 
HETATM   17  C   UNL     1     -18.991 -11.612  -3.599  1.00  0.00     0.012 C 
BRANCH  14  18
HETATM   18  O   UNL     1     -15.959  -8.961  -2.587  1.00  0.00    -0.358 OA
HETATM   19  H   UNL     1     -16.290  -8.591  -1.748  1.00  0.00     0.217 HD
ENDBRANCH  14  18
BRANCH  15  20
HETATM   20  O   UNL     1     -15.883 -11.830  -1.721  1.00  0.00    -0.353 OA
HETATM   21  C   UNL     1     -16.024 -11.747  -0.310  1.00  0.00     0.210 C 
ENDBRANCH  15  20
ENDBRANCH   1  12
BRANCH   6  22
HETATM   22  O   UNL     1     -22.276  -6.978  -0.476  1.00  0.00    -0.360 OA
HETATM   23  H   UNL     1     -22.830  -6.975   0.337  1.00  0.00     0.217 HD
ENDBRANCH   6  22
BRANCH   8  24
HETATM   24  O   UNL     1     -23.081 -11.606   0.226  1.00  0.00    -0.361 OA
HETATM   25  H   UNL     1     -22.545 -11.535   1.034  1.00  0.00     0.217 HD
ENDBRANCH   8  24
TORSDOF 5
ENDMDL
