MODEL 1
REMARK VINA RESULT:      -6.5      0.000      0.000
REMARK  6 active torsions:
REMARK  status: ('A' for Active; 'I' for Inactive)
REMARK       I    between atoms: C_2  and  N_4 
REMARK    1  A    between atoms: N_4  and  CA_5 
REMARK    2  A    between atoms: CA_5  and  CB_6 
REMARK    3  A    between atoms: CA_5  and  C_11 
REMARK    4  A    between atoms: CB_6  and  CG_7 
REMARK    5  A    between atoms: CG_7  and  CD_8 
REMARK       I    between atoms: CD_8  and  NE2_10 
REMARK    6  A    between atoms: C_11  and  OXT_13 
ROOT
ATOM      1  CA  GLN A   1     -23.448  -3.365 -10.540  1.00  0.00     0.182 C 
ENDROOT
BRANCH   1   2
ATOM      2  N   GLN A   1     -22.323  -4.070  -9.923  1.00  0.00    -0.347 N 
HETATM    3  C   UNK A   0     -21.026  -3.882 -10.316  1.00  0.00     0.214 C 
HETATM    4  C   UNK A   0     -20.033  -4.738  -9.580  1.00  0.00     0.117 C 
HETATM    5  O   UNK A   0     -20.697  -3.071 -11.177  1.00  0.00    -0.274 OA
ATOM      6  H   GLN A   1     -22.530  -4.651  -9.116  1.00  0.00     0.163 HD
ENDBRANCH   1   2
BRANCH   1   7
ATOM      7  CB  GLN A   1     -23.842  -4.013 -11.877  1.00  0.00     0.045 C 
BRANCH   7   8
ATOM      8  CG  GLN A   1     -24.311  -2.987 -12.909  1.00  0.00     0.105 C 
BRANCH   8   9
ATOM      9  CD  GLN A   1     -23.330  -2.760 -14.035  1.00  0.00     0.215 C 
ATOM     10  OE1 GLN A   1     -23.573  -2.147 -15.066  1.00  0.00    -0.274 OA
ATOM     11  NE2 GLN A   1     -22.100  -3.309 -13.801  1.00  0.00    -0.370 N 
ATOM     12 1HE2 GLN A   1     -21.865  -3.808 -12.953  1.00  0.00     0.159 HD
ATOM     13 2HE2 GLN A   1     -21.385  -3.192 -14.507  1.00  0.00     0.159 HD
ENDBRANCH   8   9
ENDBRANCH   7   8
ENDBRANCH   1   7
BRANCH   1  14
ATOM     14  C   GLN A   1     -24.602  -3.418  -9.531  1.00  0.00     0.163 C 
ATOM     15  O   GLN A   1     -25.754  -3.099  -9.797  1.00  0.00    -0.648 OA
BRANCH  14  16
ATOM     16  OXT GLN A   1     -24.242  -3.833  -8.295  1.00  0.00    -0.775 OA
ATOM     17  HXT GLN A   1     -23.944  -3.121  -7.697  1.00  0.00     0.167 HD
ENDBRANCH  14  16
ENDBRANCH   1  14
TORSDOF 6
ENDMDL
MODEL 2
REMARK VINA RESULT:      -6.4      1.420      4.426
REMARK  6 active torsions:
REMARK  status: ('A' for Active; 'I' for Inactive)
REMARK       I    between atoms: C_2  and  N_4 
REMARK    1  A    between atoms: N_4  and  CA_5 
REMARK    2  A    between atoms: CA_5  and  CB_6 
REMARK    3  A    between atoms: CA_5  and  C_11 
REMARK    4  A    between atoms: CB_6  and  CG_7 
REMARK    5  A    between atoms: CG_7  and  CD_8 
REMARK       I    between atoms: CD_8  and  NE2_10 
REMARK    6  A    between atoms: C_11  and  OXT_13 
ROOT
ATOM      1  CA  GLN A   1     -22.467  -3.708 -11.604  1.00  0.00     0.182 C 
ENDROOT
BRANCH   1   2
ATOM      2  N   GLN A   1     -22.226  -3.311 -12.992  1.00  0.00    -0.347 N 
HETATM    3  C   UNK A   0     -23.188  -2.735 -13.776  1.00  0.00     0.214 C 
HETATM    4  C   UNK A   0     -22.741  -2.447 -15.182  1.00  0.00     0.117 C 
HETATM    5  O   UNK A   0     -24.311  -2.455 -13.364  1.00  0.00    -0.274 OA
ATOM      6  H   GLN A   1     -21.274  -3.398 -13.337  1.00  0.00     0.163 HD
ENDBRANCH   1   2
BRANCH   1   7
ATOM      7  CB  GLN A   1     -23.259  -5.023 -11.533  1.00  0.00     0.045 C 
BRANCH   7   8
ATOM      8  CG  GLN A   1     -24.070  -5.148 -10.243  1.00  0.00     0.105 C 
BRANCH   8   9
ATOM      9  CD  GLN A   1     -24.570  -3.829  -9.704  1.00  0.00     0.215 C 
ATOM     10  OE1 GLN A   1     -25.469  -3.162 -10.200  1.00  0.00    -0.274 OA
ATOM     11  NE2 GLN A   1     -23.920  -3.424  -8.572  1.00  0.00    -0.370 N 
ATOM     12 1HE2 GLN A   1     -23.184  -3.960  -8.131  1.00  0.00     0.159 HD
ATOM     13 2HE2 GLN A   1     -24.205  -2.552  -8.145  1.00  0.00     0.159 HD
ENDBRANCH   8   9
ENDBRANCH   7   8
ENDBRANCH   1   7
BRANCH   1  14
ATOM     14  C   GLN A   1     -21.090  -3.847 -10.944  1.00  0.00     0.163 C 
ATOM     15  O   GLN A   1     -20.925  -4.046  -9.747  1.00  0.00    -0.648 OA
BRANCH  14  16
ATOM     16  OXT GLN A   1     -20.048  -3.710 -11.796  1.00  0.00    -0.775 OA
ATOM     17  HXT GLN A   1     -19.288  -3.215 -11.436  1.00  0.00     0.167 HD
ENDBRANCH  14  16
ENDBRANCH   1  14
TORSDOF 6
ENDMDL
MODEL 3
REMARK VINA RESULT:      -6.1      1.838      2.055
REMARK  6 active torsions:
REMARK  status: ('A' for Active; 'I' for Inactive)
REMARK       I    between atoms: C_2  and  N_4 
REMARK    1  A    between atoms: N_4  and  CA_5 
REMARK    2  A    between atoms: CA_5  and  CB_6 
REMARK    3  A    between atoms: CA_5  and  C_11 
REMARK    4  A    between atoms: CB_6  and  CG_7 
REMARK    5  A    between atoms: CG_7  and  CD_8 
REMARK       I    between atoms: CD_8  and  NE2_10 
REMARK    6  A    between atoms: C_11  and  OXT_13 
ROOT
ATOM      1  CA  GLN A   1     -22.299  -3.768  -9.784  1.00  0.00     0.182 C 
ENDROOT
BRANCH   1   2
ATOM      2  N   GLN A   1     -21.442  -4.683  -9.028  1.00  0.00    -0.347 N 
HETATM    3  C   UNK A   0     -21.004  -4.410  -7.761  1.00  0.00     0.214 C 
HETATM    4  C   UNK A   0     -20.098  -5.464  -7.186  1.00  0.00     0.117 C 
HETATM    5  O   UNK A   0     -21.337  -3.407  -7.137  1.00  0.00    -0.274 OA
ATOM      6  H   GLN A   1     -21.249  -5.587  -9.449  1.00  0.00     0.163 HD
ENDBRANCH   1   2
BRANCH   1   7
ATOM      7  CB  GLN A   1     -21.975  -3.818 -11.286  1.00  0.00     0.045 C 
BRANCH   7   8
ATOM      8  CG  GLN A   1     -22.445  -2.566 -12.027  1.00  0.00     0.105 C 
BRANCH   8   9
ATOM      9  CD  GLN A   1     -23.316  -2.856 -13.226  1.00  0.00     0.215 C 
ATOM     10  OE1 GLN A   1     -24.539  -2.903 -13.212  1.00  0.00    -0.274 OA
ATOM     11  NE2 GLN A   1     -22.605  -3.064 -14.375  1.00  0.00    -0.370 N 
ATOM     12 1HE2 GLN A   1     -21.596  -3.019 -14.421  1.00  0.00     0.159 HD
ATOM     13 2HE2 GLN A   1     -23.119  -3.257 -15.225  1.00  0.00     0.159 HD
ENDBRANCH   8   9
ENDBRANCH   7   8
ENDBRANCH   1   7
BRANCH   1  14
ATOM     14  C   GLN A   1     -23.745  -4.198  -9.509  1.00  0.00     0.163 C 
ATOM     15  O   GLN A   1     -24.422  -4.851 -10.294  1.00  0.00    -0.648 OA
BRANCH  14  16
ATOM     16  OXT GLN A   1     -24.235  -3.778  -8.321  1.00  0.00    -0.775 OA
ATOM     17  HXT GLN A   1     -23.571  -3.702  -7.609  1.00  0.00     0.167 HD
ENDBRANCH  14  16
ENDBRANCH   1  14
TORSDOF 6
ENDMDL
MODEL 4
REMARK VINA RESULT:      -6.0      1.789      4.512
REMARK  6 active torsions:
REMARK  status: ('A' for Active; 'I' for Inactive)
REMARK       I    between atoms: C_2  and  N_4 
REMARK    1  A    between atoms: N_4  and  CA_5 
REMARK    2  A    between atoms: CA_5  and  CB_6 
REMARK    3  A    between atoms: CA_5  and  C_11 
REMARK    4  A    between atoms: CB_6  and  CG_7 
REMARK    5  A    between atoms: CG_7  and  CD_8 
REMARK       I    between atoms: CD_8  and  NE2_10 
REMARK    6  A    between atoms: C_11  and  OXT_13 
ROOT
ATOM      1  CA  GLN A   1     -22.960  -3.298 -12.370  1.00  0.00     0.182 C 
ENDROOT
BRANCH   1   2
ATOM      2  N   GLN A   1     -23.550  -2.224 -13.172  1.00  0.00    -0.347 N 
HETATM    3  C   UNK A   0     -23.311  -2.084 -14.512  1.00  0.00     0.214 C 
HETATM    4  C   UNK A   0     -23.981  -0.889 -15.131  1.00  0.00     0.117 C 
HETATM    5  O   UNK A   0     -22.630  -2.874 -15.159  1.00  0.00    -0.274 OA
ATOM      6  H   GLN A   1     -24.228  -1.624 -12.711  1.00  0.00     0.163 HD
ENDBRANCH   1   2
BRANCH   1   7
ATOM      7  CB  GLN A   1     -21.750  -2.790 -11.570  1.00  0.00     0.045 C 
BRANCH   7   8
ATOM      8  CG  GLN A   1     -20.855  -3.928 -11.078  1.00  0.00     0.105 C 
BRANCH   8   9
ATOM      9  CD  GLN A   1     -20.945  -4.178  -9.591  1.00  0.00     0.215 C 
ATOM     10  OE1 GLN A   1     -21.898  -3.877  -8.884  1.00  0.00    -0.274 OA
ATOM     11  NE2 GLN A   1     -19.840  -4.797  -9.078  1.00  0.00    -0.370 N 
ATOM     12 1HE2 GLN A   1     -19.044  -5.071  -9.638  1.00  0.00     0.159 HD
ATOM     13 2HE2 GLN A   1     -19.829  -5.007  -8.088  1.00  0.00     0.159 HD
ENDBRANCH   8   9
ENDBRANCH   7   8
ENDBRANCH   1   7
BRANCH   1  14
ATOM     14  C   GLN A   1     -24.069  -3.810 -11.444  1.00  0.00     0.163 C 
ATOM     15  O   GLN A   1     -25.023  -3.131 -11.084  1.00  0.00    -0.648 OA
BRANCH  14  16
ATOM     16  OXT GLN A   1     -23.902  -5.086 -11.028  1.00  0.00    -0.775 OA
ATOM     17  HXT GLN A   1     -23.053  -5.492 -11.288  1.00  0.00     0.167 HD
ENDBRANCH  14  16
ENDBRANCH   1  14
TORSDOF 6
ENDMDL
MODEL 5
REMARK VINA RESULT:      -5.6      1.720      4.355
REMARK  6 active torsions:
REMARK  status: ('A' for Active; 'I' for Inactive)
REMARK       I    between atoms: C_2  and  N_4 
REMARK    1  A    between atoms: N_4  and  CA_5 
REMARK    2  A    between atoms: CA_5  and  CB_6 
REMARK    3  A    between atoms: CA_5  and  C_11 
REMARK    4  A    between atoms: CB_6  and  CG_7 
REMARK    5  A    between atoms: CG_7  and  CD_8 
REMARK       I    between atoms: CD_8  and  NE2_10 
REMARK    6  A    between atoms: C_11  and  OXT_13 
ROOT
ATOM      1  CA  GLN A   1     -23.720  -4.358 -10.627  1.00  0.00     0.182 C 
ENDROOT
BRANCH   1   2
ATOM      2  N   GLN A   1     -23.310  -3.331 -11.587  1.00  0.00    -0.347 N 
HETATM    3  C   UNK A   0     -23.720  -3.331 -12.892  1.00  0.00     0.214 C 
HETATM    4  C   UNK A   0     -23.146  -2.211 -13.714  1.00  0.00     0.117 C 
HETATM    5  O   UNK A   0     -24.506  -4.157 -13.349  1.00  0.00    -0.274 OA
ATOM      6  H   GLN A   1     -22.769  -2.552 -11.224  1.00  0.00     0.163 HD
ENDBRANCH   1   2
BRANCH   1   7
ATOM      7  CB  GLN A   1     -22.504  -4.958  -9.904  1.00  0.00     0.045 C 
BRANCH   7   8
ATOM      8  CG  GLN A   1     -21.330  -3.981  -9.825  1.00  0.00     0.105 C 
BRANCH   8   9
ATOM      9  CD  GLN A   1     -20.639  -3.964  -8.483  1.00  0.00     0.215 C 
ATOM     10  OE1 GLN A   1     -19.454  -4.209  -8.298  1.00  0.00    -0.274 OA
ATOM     11  NE2 GLN A   1     -21.470  -3.632  -7.449  1.00  0.00    -0.370 N 
ATOM     12 1HE2 GLN A   1     -22.449  -3.410  -7.572  1.00  0.00     0.159 HD
ATOM     13 2HE2 GLN A   1     -21.078  -3.590  -6.517  1.00  0.00     0.159 HD
ENDBRANCH   8   9
ENDBRANCH   7   8
ENDBRANCH   1   7
BRANCH   1  14
ATOM     14  C   GLN A   1     -24.677  -3.677  -9.642  1.00  0.00     0.163 C 
ATOM     15  O   GLN A   1     -25.684  -3.067  -9.983  1.00  0.00    -0.648 OA
BRANCH  14  16
ATOM     16  OXT GLN A   1     -24.311  -3.784  -8.345  1.00  0.00    -0.775 OA
ATOM     17  HXT GLN A   1     -24.368  -2.953  -7.835  1.00  0.00     0.167 HD
ENDBRANCH  14  16
ENDBRANCH   1  14
TORSDOF 6
ENDMDL
MODEL 6
REMARK VINA RESULT:      -5.3      2.588      5.361
REMARK  6 active torsions:
REMARK  status: ('A' for Active; 'I' for Inactive)
REMARK       I    between atoms: C_2  and  N_4 
REMARK    1  A    between atoms: N_4  and  CA_5 
REMARK    2  A    between atoms: CA_5  and  CB_6 
REMARK    3  A    between atoms: CA_5  and  C_11 
REMARK    4  A    between atoms: CB_6  and  CG_7 
REMARK    5  A    between atoms: CG_7  and  CD_8 
REMARK       I    between atoms: CD_8  and  NE2_10 
REMARK    6  A    between atoms: C_11  and  OXT_13 
ROOT
ATOM      1  CA  GLN A   1     -22.176  -4.321  -9.279  1.00  0.00     0.182 C 
ENDROOT
BRANCH   1   2
ATOM      2  N   GLN A   1     -22.441  -3.411 -10.395  1.00  0.00    -0.347 N 
HETATM    3  C   UNK A   0     -23.095  -3.803 -11.531  1.00  0.00     0.214 C 
HETATM    4  C   UNK A   0     -23.221  -2.723 -12.569  1.00  0.00     0.117 C 
HETATM    5  O   UNK A   0     -23.559  -4.930 -11.683  1.00  0.00    -0.274 OA
ATOM      6  H   GLN A   1     -22.196  -2.434 -10.261  1.00  0.00     0.163 HD
ENDBRANCH   1   2
BRANCH   1   7
ATOM      7  CB  GLN A   1     -20.814  -4.023  -8.633  1.00  0.00     0.045 C 
BRANCH   7   8
ATOM      8  CG  GLN A   1     -20.002  -5.293  -8.369  1.00  0.00     0.105 C 
BRANCH   8   9
ATOM      9  CD  GLN A   1     -20.051  -5.762  -6.935  1.00  0.00     0.215 C 
ATOM     10  OE1 GLN A   1     -19.824  -6.906  -6.561  1.00  0.00    -0.274 OA
ATOM     11  NE2 GLN A   1     -20.373  -4.770  -6.051  1.00  0.00    -0.370 N 
ATOM     12 1HE2 GLN A   1     -20.552  -3.815  -6.327  1.00  0.00     0.159 HD
ATOM     13 2HE2 GLN A   1     -20.417  -5.006  -5.067  1.00  0.00     0.159 HD
ENDBRANCH   8   9
ENDBRANCH   7   8
ENDBRANCH   1   7
BRANCH   1  14
ATOM     14  C   GLN A   1     -23.323  -4.129  -8.279  1.00  0.00     0.163 C 
ATOM     15  O   GLN A   1     -23.270  -4.479  -7.106  1.00  0.00    -0.648 OA
BRANCH  14  16
ATOM     16  OXT GLN A   1     -24.429  -3.553  -8.804  1.00  0.00    -0.775 OA
ATOM     17  HXT GLN A   1     -24.517  -2.598  -8.622  1.00  0.00     0.167 HD
ENDBRANCH  14  16
ENDBRANCH   1  14
TORSDOF 6
ENDMDL
MODEL 7
REMARK VINA RESULT:      -5.2      2.417      3.765
REMARK  6 active torsions:
REMARK  status: ('A' for Active; 'I' for Inactive)
REMARK       I    between atoms: C_2  and  N_4 
REMARK    1  A    between atoms: N_4  and  CA_5 
REMARK    2  A    between atoms: CA_5  and  CB_6 
REMARK    3  A    between atoms: CA_5  and  C_11 
REMARK    4  A    between atoms: CB_6  and  CG_7 
REMARK    5  A    between atoms: CG_7  and  CD_8 
REMARK       I    between atoms: CD_8  and  NE2_10 
REMARK    6  A    between atoms: C_11  and  OXT_13 
ROOT
ATOM      1  CA  GLN A   1     -21.649  -4.497  -9.204  1.00  0.00     0.182 C 
ENDROOT
BRANCH   1   2
ATOM      2  N   GLN A   1     -21.079  -4.215  -7.885  1.00  0.00    -0.347 N 
HETATM    3  C   UNK A   0     -20.704  -5.201  -7.013  1.00  0.00     0.214 C 
HETATM    4  C   UNK A   0     -20.185  -4.690  -5.698  1.00  0.00     0.117 C 
HETATM    5  O   UNK A   0     -20.763  -6.396  -7.287  1.00  0.00    -0.274 OA
ATOM      6  H   GLN A   1     -20.885  -3.241  -7.666  1.00  0.00     0.163 HD
ENDBRANCH   1   2
BRANCH   1   7
ATOM      7  CB  GLN A   1     -22.841  -3.574  -9.502  1.00  0.00     0.045 C 
BRANCH   7   8
ATOM      8  CG  GLN A   1     -23.699  -4.082 -10.661  1.00  0.00     0.105 C 
BRANCH   8   9
ATOM      9  CD  GLN A   1     -23.808  -3.111 -11.812  1.00  0.00     0.215 C 
ATOM     10  OE1 GLN A   1     -22.926  -2.341 -12.169  1.00  0.00    -0.274 OA
ATOM     11  NE2 GLN A   1     -25.014  -3.165 -12.455  1.00  0.00    -0.370 N 
ATOM     12 1HE2 GLN A   1     -25.756  -3.799 -12.192  1.00  0.00     0.159 HD
ATOM     13 2HE2 GLN A   1     -25.161  -2.549 -13.244  1.00  0.00     0.159 HD
ENDBRANCH   8   9
ENDBRANCH   7   8
ENDBRANCH   1   7
BRANCH   1  14
ATOM     14  C   GLN A   1     -20.518  -4.296 -10.219  1.00  0.00     0.163 C 
ATOM     15  O   GLN A   1     -19.695  -5.158 -10.501  1.00  0.00    -0.648 OA
BRANCH  14  16
ATOM     16  OXT GLN A   1     -20.482  -3.065 -10.777  1.00  0.00    -0.775 OA
ATOM     17  HXT GLN A   1     -20.882  -2.359 -10.234  1.00  0.00     0.167 HD
ENDBRANCH  14  16
ENDBRANCH   1  14
TORSDOF 6
ENDMDL
MODEL 8
REMARK VINA RESULT:      -5.1      2.395      5.626
REMARK  6 active torsions:
REMARK  status: ('A' for Active; 'I' for Inactive)
REMARK       I    between atoms: C_2  and  N_4 
REMARK    1  A    between atoms: N_4  and  CA_5 
REMARK    2  A    between atoms: CA_5  and  CB_6 
REMARK    3  A    between atoms: CA_5  and  C_11 
REMARK    4  A    between atoms: CB_6  and  CG_7 
REMARK    5  A    between atoms: CG_7  and  CD_8 
REMARK       I    between atoms: CD_8  and  NE2_10 
REMARK    6  A    between atoms: C_11  and  OXT_13 
ROOT
ATOM      1  CA  GLN A   1     -21.778  -3.812 -10.086  1.00  0.00     0.182 C 
ENDROOT
BRANCH   1   2
ATOM      2  N   GLN A   1     -22.800  -4.148 -11.079  1.00  0.00    -0.347 N 
HETATM    3  C   UNK A   0     -23.213  -3.270 -12.044  1.00  0.00     0.214 C 
HETATM    4  C   UNK A   0     -24.302  -3.804 -12.931  1.00  0.00     0.117 C 
HETATM    5  O   UNK A   0     -22.724  -2.153 -12.188  1.00  0.00    -0.274 OA
ATOM      6  H   GLN A   1     -23.138  -5.106 -11.085  1.00  0.00     0.163 HD
ENDBRANCH   1   2
BRANCH   1   7
ATOM      7  CB  GLN A   1     -22.065  -4.498  -8.741  1.00  0.00     0.045 C 
BRANCH   7   8
ATOM      8  CG  GLN A   1     -21.506  -3.713  -7.553  1.00  0.00     0.105 C 
BRANCH   8   9
ATOM      9  CD  GLN A   1     -20.548  -4.504  -6.695  1.00  0.00     0.215 C 
ATOM     10  OE1 GLN A   1     -20.834  -5.038  -5.630  1.00  0.00    -0.274 OA
ATOM     11  NE2 GLN A   1     -19.290  -4.589  -7.223  1.00  0.00    -0.370 N 
ATOM     12 1HE2 GLN A   1     -19.027  -4.171  -8.105  1.00  0.00     0.159 HD
ATOM     13 2HE2 GLN A   1     -18.592  -5.111  -6.708  1.00  0.00     0.159 HD
ENDBRANCH   8   9
ENDBRANCH   7   8
ENDBRANCH   1   7
BRANCH   1  14
ATOM     14  C   GLN A   1     -20.435  -4.266 -10.671  1.00  0.00     0.163 C 
ATOM     15  O   GLN A   1     -19.743  -5.150 -10.180  1.00  0.00    -0.648 OA
BRANCH  14  16
ATOM     16  OXT GLN A   1     -20.053  -3.592 -11.778  1.00  0.00    -0.775 OA
ATOM     17  HXT GLN A   1     -19.446  -4.081 -12.366  1.00  0.00     0.167 HD
ENDBRANCH  14  16
ENDBRANCH   1  14
TORSDOF 6
ENDMDL
MODEL 9
REMARK VINA RESULT:      -4.8      4.432      6.143
REMARK  6 active torsions:
REMARK  status: ('A' for Active; 'I' for Inactive)
REMARK       I    between atoms: C_2  and  N_4 
REMARK    1  A    between atoms: N_4  and  CA_5 
REMARK    2  A    between atoms: CA_5  and  CB_6 
REMARK    3  A    between atoms: CA_5  and  C_11 
REMARK    4  A    between atoms: CB_6  and  CG_7 
REMARK    5  A    between atoms: CG_7  and  CD_8 
REMARK       I    between atoms: CD_8  and  NE2_10 
REMARK    6  A    between atoms: C_11  and  OXT_13 
ROOT
ATOM      1  CA  GLN A   1     -21.338  -5.612  -6.466  1.00  0.00     0.182 C 
ENDROOT
BRANCH   1   2
ATOM      2  N   GLN A   1     -21.377  -5.515  -5.005  1.00  0.00    -0.347 N 
HETATM    3  C   UNK A   0     -21.741  -6.561  -4.203  1.00  0.00     0.214 C 
HETATM    4  C   UNK A   0     -21.755  -6.231  -2.736  1.00  0.00     0.117 C 
HETATM    5  O   UNK A   0     -22.010  -7.678  -4.637  1.00  0.00    -0.274 OA
ATOM      6  H   GLN A   1     -21.033  -4.652  -4.593  1.00  0.00     0.163 HD
ENDBRANCH   1   2
BRANCH   1   7
ATOM      7  CB  GLN A   1     -21.815  -4.307  -7.122  1.00  0.00     0.045 C 
BRANCH   7   8
ATOM      8  CG  GLN A   1     -23.287  -4.362  -7.532  1.00  0.00     0.105 C 
BRANCH   8   9
ATOM      9  CD  GLN A   1     -23.532  -4.004  -8.978  1.00  0.00     0.215 C 
ATOM     10  OE1 GLN A   1     -22.822  -4.342  -9.917  1.00  0.00    -0.274 OA
ATOM     11  NE2 GLN A   1     -24.657  -3.251  -9.166  1.00  0.00    -0.370 N 
ATOM     12 1HE2 GLN A   1     -25.270  -2.968  -8.414  1.00  0.00     0.159 HD
ATOM     13 2HE2 GLN A   1     -24.894  -2.978 -10.112  1.00  0.00     0.159 HD
ENDBRANCH   8   9
ENDBRANCH   7   8
ENDBRANCH   1   7
BRANCH   1  14
ATOM     14  C   GLN A   1     -19.886  -5.931  -6.843  1.00  0.00     0.163 C 
ATOM     15  O   GLN A   1     -19.406  -7.057  -6.815  1.00  0.00    -0.648 OA
BRANCH  14  16
ATOM     16  OXT GLN A   1     -19.153  -4.850  -7.196  1.00  0.00    -0.775 OA
ATOM     17  HXT GLN A   1     -18.190  -5.008  -7.243  1.00  0.00     0.167 HD
ENDBRANCH  14  16
ENDBRANCH   1  14
TORSDOF 6
ENDMDL
