MODEL 1
REMARK VINA RESULT:      -7.0      0.000      0.000
REMARK  0 active torsions:
REMARK  status: ('A' for Active; 'I' for Inactive)
ROOT
HETATM    1  C   UNL     1     -20.642  -5.560  -4.908  1.00  0.00     0.043 C 
HETATM    2  C   UNL     1     -21.428  -6.350  -3.894  1.00  0.00    -0.087 C 
HETATM    3  C   UNL     1     -21.561  -5.947  -2.613  1.00  0.00    -0.024 C 
HETATM    4  C   UNL     1     -22.327  -6.669  -1.525  1.00  0.00     0.031 C 
HETATM    5  C   UNL     1     -21.556  -7.762  -0.769  1.00  0.00     0.037 C 
HETATM    6  C   UNL     1     -21.318  -9.070  -1.514  1.00  0.00    -0.084 C 
HETATM    7  C   UNL     1     -22.225 -10.061  -1.507  1.00  0.00     0.014 C 
HETATM    8  C   UNL     1     -19.966  -9.257  -2.116  1.00  0.00     0.019 C 
HETATM    9  C   UNL     1     -19.458 -10.604  -2.722  1.00  0.00     0.018 C 
HETATM   10  C   UNL     1     -18.563  -9.733  -3.680  1.00  0.00    -0.043 C 
HETATM   11  C   UNL     1     -19.709  -8.648  -3.532  1.00  0.00     0.002 C 
HETATM   12  C   UNL     1     -20.838  -8.703  -4.592  1.00  0.00     0.010 C 
HETATM   13  C   UNL     1     -21.954  -7.675  -4.383  1.00  0.00     0.034 C 
HETATM   14  C   UNL     1     -18.325 -10.186  -5.119  1.00  0.00     0.015 C 
HETATM   15  C   UNL     1     -17.210  -9.347  -3.050  1.00  0.00     0.015 C 
ENDROOT
TORSDOF 0
ENDMDL
MODEL 2
REMARK VINA RESULT:      -6.6      1.793      4.210
REMARK  0 active torsions:
REMARK  status: ('A' for Active; 'I' for Inactive)
ROOT
HETATM    1  C   UNL     1     -22.719 -12.706  -3.267  1.00  0.00     0.043 C 
HETATM    2  C   UNL     1     -22.676 -12.059  -1.907  1.00  0.00    -0.087 C 
HETATM    3  C   UNL     1     -23.787 -11.603  -1.291  1.00  0.00    -0.024 C 
HETATM    4  C   UNL     1     -23.846 -10.942   0.069  1.00  0.00     0.031 C 
HETATM    5  C   UNL     1     -23.592  -9.426   0.094  1.00  0.00     0.037 C 
HETATM    6  C   UNL     1     -22.150  -8.972  -0.099  1.00  0.00    -0.084 C 
HETATM    7  C   UNL     1     -21.296  -8.875   0.933  1.00  0.00     0.014 C 
HETATM    8  C   UNL     1     -21.782  -8.489  -1.462  1.00  0.00     0.019 C 
HETATM    9  C   UNL     1     -20.431  -7.781  -1.803  1.00  0.00     0.018 C 
HETATM   10  C   UNL     1     -20.583  -8.383  -3.249  1.00  0.00    -0.043 C 
HETATM   11  C   UNL     1     -21.367  -9.555  -2.525  1.00  0.00     0.002 C 
HETATM   12  C   UNL     1     -20.513 -10.770  -2.081  1.00  0.00     0.010 C 
HETATM   13  C   UNL     1     -21.296 -11.857  -1.337  1.00  0.00     0.034 C 
HETATM   14  C   UNL     1     -19.346  -8.848  -4.014  1.00  0.00     0.015 C 
HETATM   15  C   UNL     1     -21.440  -7.500  -4.178  1.00  0.00     0.015 C 
ENDROOT
TORSDOF 0
ENDMDL
MODEL 3
REMARK VINA RESULT:      -6.6     18.670     20.257
REMARK  0 active torsions:
REMARK  status: ('A' for Active; 'I' for Inactive)
ROOT
HETATM    1  C   UNL     1     -12.953  10.019   1.480  1.00  0.00     0.043 C 
HETATM    2  C   UNL     1     -14.445   9.846   1.602  1.00  0.00    -0.087 C 
HETATM    3  C   UNL     1     -15.310  10.848   1.338  1.00  0.00    -0.024 C 
HETATM    4  C   UNL     1     -16.819  10.772   1.432  1.00  0.00     0.031 C 
HETATM    5  C   UNL     1     -17.423  11.040   2.819  1.00  0.00     0.037 C 
HETATM    6  C   UNL     1     -17.272   9.933   3.856  1.00  0.00    -0.084 C 
HETATM    7  C   UNL     1     -18.154   8.925   3.947  1.00  0.00     0.014 C 
HETATM    8  C   UNL     1     -16.187  10.111   4.865  1.00  0.00     0.019 C 
HETATM    9  C   UNL     1     -16.013   9.209   6.129  1.00  0.00     0.018 C 
HETATM   10  C   UNL     1     -14.473   9.519   6.028  1.00  0.00    -0.043 C 
HETATM   11  C   UNL     1     -14.746   9.653   4.472  1.00  0.00     0.002 C 
HETATM   12  C   UNL     1     -14.567   8.359   3.638  1.00  0.00     0.010 C 
HETATM   13  C   UNL     1     -14.893   8.515   2.149  1.00  0.00     0.034 C 
HETATM   14  C   UNL     1     -13.455   8.439   6.386  1.00  0.00     0.015 C 
HETATM   15  C   UNL     1     -14.078  10.829   6.738  1.00  0.00     0.015 C 
ENDROOT
TORSDOF 0
ENDMDL
MODEL 4
REMARK VINA RESULT:      -6.5      1.960      4.727
REMARK  0 active torsions:
REMARK  status: ('A' for Active; 'I' for Inactive)
ROOT
HETATM    1  C   UNL     1     -23.204  -7.603   1.206  1.00  0.00     0.043 C 
HETATM    2  C   UNL     1     -22.124  -7.746   0.164  1.00  0.00    -0.087 C 
HETATM    3  C   UNL     1     -22.236  -7.205  -1.067  1.00  0.00    -0.024 C 
HETATM    4  C   UNL     1     -21.211  -7.293  -2.177  1.00  0.00     0.031 C 
HETATM    5  C   UNL     1     -21.286  -8.545  -3.066  1.00  0.00     0.037 C 
HETATM    6  C   UNL     1     -20.784  -9.848  -2.456  1.00  0.00    -0.084 C 
HETATM    7  C   UNL     1     -19.489 -10.200  -2.508  1.00  0.00     0.014 C 
HETATM    8  C   UNL     1     -21.824 -10.785  -1.940  1.00  0.00     0.019 C 
HETATM    9  C   UNL     1     -21.532 -12.250  -1.484  1.00  0.00     0.018 C 
HETATM   10  C   UNL     1     -22.747 -12.091  -0.496  1.00  0.00    -0.043 C 
HETATM   11  C   UNL     1     -22.357 -10.554  -0.489  1.00  0.00     0.002 C 
HETATM   12  C   UNL     1     -21.365 -10.111   0.616  1.00  0.00     0.010 C 
HETATM   13  C   UNL     1     -20.969  -8.632   0.556  1.00  0.00     0.034 C 
HETATM   14  C   UNL     1     -22.696 -12.746   0.882  1.00  0.00     0.015 C 
HETATM   15  C   UNL     1     -24.101 -12.419  -1.154  1.00  0.00     0.015 C 
ENDROOT
TORSDOF 0
ENDMDL
MODEL 5
REMARK VINA RESULT:      -6.5     18.458     20.686
REMARK  0 active torsions:
REMARK  status: ('A' for Active; 'I' for Inactive)
ROOT
HETATM    1  C   UNL     1     -13.033   9.076   5.986  1.00  0.00     0.043 C 
HETATM    2  C   UNL     1     -13.723   8.833   4.668  1.00  0.00    -0.087 C 
HETATM    3  C   UNL     1     -13.328   9.436   3.527  1.00  0.00    -0.024 C 
HETATM    4  C   UNL     1     -13.953   9.256   2.160  1.00  0.00     0.031 C 
HETATM    5  C   UNL     1     -15.158  10.158   1.846  1.00  0.00     0.037 C 
HETATM    6  C   UNL     1     -16.473   9.803   2.530  1.00  0.00    -0.084 C 
HETATM    7  C   UNL     1     -17.326   8.911   2.001  1.00  0.00     0.014 C 
HETATM    8  C   UNL     1     -16.838  10.611   3.730  1.00  0.00     0.019 C 
HETATM    9  C   UNL     1     -18.233  10.552   4.432  1.00  0.00     0.018 C 
HETATM   10  C   UNL     1     -17.480  10.927   5.762  1.00  0.00    -0.043 C 
HETATM   11  C   UNL     1     -16.246  10.175   5.108  1.00  0.00     0.002 C 
HETATM   12  C   UNL     1     -16.122   8.665   5.432  1.00  0.00     0.010 C 
HETATM   13  C   UNL     1     -14.951   7.962   4.739  1.00  0.00     0.034 C 
HETATM   14  C   UNL     1     -17.936  10.325   7.089  1.00  0.00     0.015 C 
HETATM   15  C   UNL     1     -17.300  12.447   5.941  1.00  0.00     0.015 C 
ENDROOT
TORSDOF 0
ENDMDL
MODEL 6
REMARK VINA RESULT:      -6.4     15.908     17.369
REMARK  0 active torsions:
REMARK  status: ('A' for Active; 'I' for Inactive)
ROOT
HETATM    1  C   UNL     1     -21.442   8.714  -4.181  1.00  0.00     0.043 C 
HETATM    2  C   UNL     1     -22.416   8.586  -3.038  1.00  0.00    -0.087 C 
HETATM    3  C   UNL     1     -22.428   7.514  -2.219  1.00  0.00    -0.024 C 
HETATM    4  C   UNL     1     -23.362   7.294  -1.049  1.00  0.00     0.031 C 
HETATM    5  C   UNL     1     -24.722   6.659  -1.381  1.00  0.00     0.037 C 
HETATM    6  C   UNL     1     -25.744   7.554  -2.071  1.00  0.00    -0.084 C 
HETATM    7  C   UNL     1     -26.572   8.348  -1.373  1.00  0.00     0.014 C 
HETATM    8  C   UNL     1     -25.887   7.386  -3.547  1.00  0.00     0.019 C 
HETATM    9  C   UNL     1     -27.022   8.044  -4.395  1.00  0.00     0.018 C 
HETATM   10  C   UNL     1     -26.003   8.045  -5.595  1.00  0.00    -0.043 C 
HETATM   11  C   UNL     1     -24.894   8.165  -4.468  1.00  0.00     0.002 C 
HETATM   12  C   UNL     1     -24.477   9.606  -4.078  1.00  0.00     0.010 C 
HETATM   13  C   UNL     1     -23.446   9.683  -2.948  1.00  0.00     0.034 C 
HETATM   14  C   UNL     1     -26.000   9.203  -6.590  1.00  0.00     0.015 C 
HETATM   15  C   UNL     1     -25.997   6.717  -6.378  1.00  0.00     0.015 C 
ENDROOT
TORSDOF 0
ENDMDL
MODEL 7
REMARK VINA RESULT:      -6.4      1.652      3.747
REMARK  0 active torsions:
REMARK  status: ('A' for Active; 'I' for Inactive)
ROOT
HETATM    1  C   UNL     1     -22.166  -8.221   0.414  1.00  0.00     0.043 C 
HETATM    2  C   UNL     1     -21.600  -7.588  -0.831  1.00  0.00    -0.087 C 
HETATM    3  C   UNL     1     -22.292  -6.688  -1.559  1.00  0.00    -0.024 C 
HETATM    4  C   UNL     1     -21.811  -5.999  -2.819  1.00  0.00     0.031 C 
HETATM    5  C   UNL     1     -22.037  -6.763  -4.133  1.00  0.00     0.037 C 
HETATM    6  C   UNL     1     -21.123  -7.954  -4.397  1.00  0.00    -0.084 C 
HETATM    7  C   UNL     1     -19.924  -7.807  -4.984  1.00  0.00     0.014 C 
HETATM    8  C   UNL     1     -21.692  -9.304  -4.116  1.00  0.00     0.019 C 
HETATM    9  C   UNL     1     -21.002 -10.645  -4.525  1.00  0.00     0.018 C 
HETATM   10  C   UNL     1     -21.714 -11.289  -3.278  1.00  0.00    -0.043 C 
HETATM   11  C   UNL     1     -21.614  -9.837  -2.650  1.00  0.00     0.002 C 
HETATM   12  C   UNL     1     -20.344  -9.548  -1.809  1.00  0.00     0.010 C 
HETATM   13  C   UNL     1     -20.257  -8.118  -1.265  1.00  0.00     0.034 C 
HETATM   14  C   UNL     1     -20.998 -12.364  -2.464  1.00  0.00     0.015 C 
HETATM   15  C   UNL     1     -23.146 -11.770  -3.587  1.00  0.00     0.015 C 
ENDROOT
TORSDOF 0
ENDMDL
MODEL 8
REMARK VINA RESULT:      -6.3      1.968      2.975
REMARK  0 active torsions:
REMARK  status: ('A' for Active; 'I' for Inactive)
ROOT
HETATM    1  C   UNL     1     -19.600  -8.524  -3.921  1.00  0.00     0.043 C 
HETATM    2  C   UNL     1     -20.820  -8.398  -3.046  1.00  0.00    -0.087 C 
HETATM    3  C   UNL     1     -20.955  -7.410  -2.137  1.00  0.00    -0.024 C 
HETATM    4  C   UNL     1     -22.138  -7.200  -1.216  1.00  0.00     0.031 C 
HETATM    5  C   UNL     1     -22.109  -7.982   0.107  1.00  0.00     0.037 C 
HETATM    6  C   UNL     1     -22.399  -9.476   0.024  1.00  0.00    -0.084 C 
HETATM    7  C   UNL     1     -23.652  -9.955   0.062  1.00  0.00     0.014 C 
HETATM    8  C   UNL     1     -21.216 -10.385   0.059  1.00  0.00     0.019 C 
HETATM    9  C   UNL     1     -21.312 -11.937   0.208  1.00  0.00     0.018 C 
HETATM   10  C   UNL     1     -19.968 -12.009  -0.610  1.00  0.00    -0.043 C 
HETATM   11  C   UNL     1     -20.474 -10.667  -1.286  1.00  0.00     0.002 C 
HETATM   12  C   UNL     1     -21.304 -10.832  -2.584  1.00  0.00     0.010 C 
HETATM   13  C   UNL     1     -21.821  -9.517  -3.177  1.00  0.00     0.034 C 
HETATM   14  C   UNL     1     -19.740 -13.150  -1.598  1.00  0.00     0.015 C 
HETATM   15  C   UNL     1     -18.718 -11.863   0.280  1.00  0.00     0.015 C 
ENDROOT
TORSDOF 0
ENDMDL
MODEL 9
REMARK VINA RESULT:      -6.3      4.158      7.161
REMARK  0 active torsions:
REMARK  status: ('A' for Active; 'I' for Inactive)
ROOT
HETATM    1  C   UNL     1     -24.377  -5.113  -9.685  1.00  0.00     0.043 C 
HETATM    2  C   UNL     1     -23.026  -4.448  -9.746  1.00  0.00    -0.087 C 
HETATM    3  C   UNL     1     -22.122  -4.742 -10.703  1.00  0.00    -0.024 C 
HETATM    4  C   UNL     1     -20.744  -4.131 -10.848  1.00  0.00     0.031 C 
HETATM    5  C   UNL     1     -19.624  -4.794 -10.030  1.00  0.00     0.037 C 
HETATM    6  C   UNL     1     -19.621  -4.524  -8.530  1.00  0.00    -0.084 C 
HETATM    7  C   UNL     1     -19.017  -3.445  -8.008  1.00  0.00     0.014 C 
HETATM    8  C   UNL     1     -20.184  -5.598  -7.660  1.00  0.00     0.019 C 
HETATM    9  C   UNL     1     -20.071  -5.608  -6.102  1.00  0.00     0.018 C 
HETATM   10  C   UNL     1     -21.427  -6.408  -6.098  1.00  0.00    -0.043 C 
HETATM   11  C   UNL     1     -21.730  -5.621  -7.441  1.00  0.00     0.002 C 
HETATM   12  C   UNL     1     -22.490  -4.279  -7.285  1.00  0.00     0.010 C 
HETATM   13  C   UNL     1     -22.716  -3.522  -8.598  1.00  0.00     0.034 C 
HETATM   14  C   UNL     1     -22.452  -6.161  -4.994  1.00  0.00     0.015 C 
HETATM   15  C   UNL     1     -21.227  -7.927  -6.261  1.00  0.00     0.015 C 
ENDROOT
TORSDOF 0
ENDMDL
