MODEL 1
REMARK VINA RESULT:      -7.9      0.000      0.000
REMARK  4 active torsions:
REMARK  status: ('A' for Active; 'I' for Inactive)
REMARK    1  A    between atoms: C_2  and  C_4 
REMARK    2  A    between atoms: C_7  and  C_31 
REMARK    3  A    between atoms: C_16  and  O_29 
REMARK    4  A    between atoms: C_31  and  O_32 
ROOT
HETATM    1  C   UNL     1     -20.972  -8.787  -0.490  1.00  0.00     0.018 C 
HETATM    2  C   UNL     1     -20.761 -10.042   0.440  1.00  0.00     0.010 C 
HETATM    3  C   UNL     1     -21.535 -11.264  -0.169  1.00  0.00     0.012 C 
HETATM    4  C   UNL     1     -22.406 -10.569  -1.243  1.00  0.00    -0.014 C 
HETATM    5  C   UNL     1     -21.366  -9.525  -1.774  1.00  0.00     0.009 C 
HETATM    6  C   UNL     1     -20.182 -10.276  -2.451  1.00  0.00    -0.000 C 
HETATM    7  C   UNL     1     -18.931  -9.445  -2.647  1.00  0.00     0.006 C 
HETATM    8  C   UNL     1     -17.791 -10.422  -2.471  1.00  0.00     0.006 C 
HETATM    9  C   UNL     1     -17.870 -11.492  -3.569  1.00  0.00     0.003 C 
HETATM   10  C   UNL     1     -16.632 -12.468  -3.519  1.00  0.00    -0.035 C 
HETATM   11  C   UNL     1     -15.287 -11.648  -3.332  1.00  0.00     0.012 C 
HETATM   12  C   UNL     1     -14.018 -12.308  -3.863  1.00  0.00     0.033 C 
HETATM   13  C   UNL     1     -14.243 -12.747  -5.309  1.00  0.00     0.126 C 
HETATM   14  C   UNL     1     -15.328 -13.881  -5.372  1.00  0.00    -0.017 C 
HETATM   15  C   UNL     1     -16.639 -13.139  -4.967  1.00  0.00     0.004 C 
HETATM   16  C   UNL     1     -17.965 -13.765  -5.443  1.00  0.00     0.007 C 
HETATM   17  C   UNL     1     -19.124 -12.733  -5.362  1.00  0.00     0.011 C 
HETATM   18  C   UNL     1     -19.306 -12.187  -3.907  1.00  0.00    -0.032 C 
HETATM   19  C   UNL     1     -20.543 -11.133  -3.704  1.00  0.00    -0.032 C 
HETATM   20  C   UNL     1     -21.917 -11.860  -3.431  1.00  0.00     0.011 C 
HETATM   21  C   UNL     1     -22.948 -11.183  -2.539  1.00  0.00     0.013 C 
HETATM   22  C   UNL     1     -20.719 -10.206  -4.940  1.00  0.00     0.016 C 
HETATM   23  C   UNL     1     -19.689 -13.499  -3.138  1.00  0.00     0.016 C 
HETATM   24  C   UNL     1     -15.356 -14.423  -6.817  1.00  0.00     0.018 C 
HETATM   25  C   UNL     1     -15.063 -15.112  -4.481  1.00  0.00     0.018 C 
HETATM   26  C   UNL     1     -16.701 -13.312  -2.212  1.00  0.00     0.016 C 
ENDROOT
BRANCH   1  27
HETATM   27  C   UNL     1     -22.020  -7.670  -0.225  1.00  0.00    -0.089 C 
HETATM   28  C   UNL     1     -22.325  -6.683  -1.313  1.00  0.00     0.043 C 
HETATM   29  C   UNL     1     -22.695  -7.520   0.939  1.00  0.00     0.014 C 
ENDBRANCH   1  27
BRANCH   4  30
HETATM   30  C   UNL     1     -23.644 -10.118  -0.399  1.00  0.00     0.173 C 
BRANCH  30  31
HETATM   31  O   UNL     1     -24.200 -11.222   0.351  1.00  0.00    -0.400 OA
HETATM   32  H   UNL     1     -24.724 -10.875   1.089  1.00  0.00     0.209 HD
ENDBRANCH  30  31
ENDBRANCH   4  30
BRANCH  13  33
HETATM   33  O   UNL     1     -13.037 -13.038  -5.956  1.00  0.00    -0.395 OA
HETATM   34  H   UNL     1     -12.774 -13.930  -5.650  1.00  0.00     0.210 HD
ENDBRANCH  13  33
TORSDOF 4
ENDMDL
MODEL 2
REMARK VINA RESULT:      -7.8      1.394      8.147
REMARK  4 active torsions:
REMARK  status: ('A' for Active; 'I' for Inactive)
REMARK    1  A    between atoms: C_2  and  C_4 
REMARK    2  A    between atoms: C_7  and  C_31 
REMARK    3  A    between atoms: C_16  and  O_29 
REMARK    4  A    between atoms: C_31  and  O_32 
ROOT
HETATM    1  C   UNL     1     -17.073 -14.443  -5.411  1.00  0.00     0.018 C 
HETATM    2  C   UNL     1     -16.235 -14.401  -4.076  1.00  0.00     0.010 C 
HETATM    3  C   UNL     1     -15.492 -13.023  -3.983  1.00  0.00     0.012 C 
HETATM    4  C   UNL     1     -15.688 -12.472  -5.416  1.00  0.00    -0.014 C 
HETATM    5  C   UNL     1     -17.165 -12.934  -5.662  1.00  0.00     0.009 C 
HETATM    6  C   UNL     1     -18.109 -12.192  -4.672  1.00  0.00    -0.000 C 
HETATM    7  C   UNL     1     -19.480 -12.815  -4.512  1.00  0.00     0.006 C 
HETATM    8  C   UNL     1     -19.848 -12.566  -3.067  1.00  0.00     0.006 C 
HETATM    9  C   UNL     1     -19.943 -11.054  -2.824  1.00  0.00     0.003 C 
HETATM   10  C   UNL     1     -20.452 -10.731  -1.366  1.00  0.00    -0.035 C 
HETATM   11  C   UNL     1     -21.686 -11.654  -0.992  1.00  0.00     0.012 C 
HETATM   12  C   UNL     1     -22.652 -11.097   0.049  1.00  0.00     0.033 C 
HETATM   13  C   UNL     1     -23.075  -9.687  -0.358  1.00  0.00     0.126 C 
HETATM   14  C   UNL     1     -21.845  -8.711  -0.309  1.00  0.00    -0.017 C 
HETATM   15  C   UNL     1     -20.947  -9.217  -1.481  1.00  0.00     0.004 C 
HETATM   16  C   UNL     1     -19.959  -8.201  -2.086  1.00  0.00     0.007 C 
HETATM   17  C   UNL     1     -19.462  -8.674  -3.480  1.00  0.00     0.011 C 
HETATM   18  C   UNL     1     -18.772 -10.075  -3.398  1.00  0.00    -0.032 C 
HETATM   19  C   UNL     1     -18.161 -10.638  -4.810  1.00  0.00    -0.032 C 
HETATM   20  C   UNL     1     -16.700 -10.113  -5.088  1.00  0.00     0.011 C 
HETATM   21  C   UNL     1     -15.726 -11.002  -5.849  1.00  0.00     0.013 C 
HETATM   22  C   UNL     1     -19.057 -10.251  -6.020  1.00  0.00     0.016 C 
HETATM   23  C   UNL     1     -17.553  -9.758  -2.464  1.00  0.00     0.016 C 
HETATM   24  C   UNL     1     -22.375  -7.278  -0.524  1.00  0.00     0.018 C 
HETATM   25  C   UNL     1     -21.078  -8.667   1.027  1.00  0.00     0.018 C 
HETATM   26  C   UNL     1     -19.369 -11.174  -0.339  1.00  0.00     0.016 C 
ENDROOT
BRANCH   1  27
HETATM   27  C   UNL     1     -16.596 -15.130  -6.722  1.00  0.00    -0.089 C 
HETATM   28  C   UNL     1     -17.221 -14.729  -8.024  1.00  0.00     0.043 C 
HETATM   29  C   UNL     1     -15.635 -16.082  -6.775  1.00  0.00     0.014 C 
ENDBRANCH   1  27
BRANCH   4  30
HETATM   30  C   UNL     1     -14.496 -13.141  -6.176  1.00  0.00     0.173 C 
BRANCH  30  31
HETATM   31  O   UNL     1     -13.278 -12.378  -6.020  1.00  0.00    -0.400 OA
HETATM   32  H   UNL     1     -13.195 -12.094  -5.098  1.00  0.00     0.209 HD
ENDBRANCH  30  31
ENDBRANCH   4  30
BRANCH  13  33
HETATM   33  O   UNL     1     -24.204  -9.259   0.351  1.00  0.00    -0.395 OA
HETATM   34  H   UNL     1     -23.919  -9.167   1.283  1.00  0.00     0.210 HD
ENDBRANCH  13  33
TORSDOF 4
ENDMDL
MODEL 3
REMARK VINA RESULT:      -7.5     20.323     22.626
REMARK  4 active torsions:
REMARK  status: ('A' for Active; 'I' for Inactive)
REMARK    1  A    between atoms: C_2  and  C_4 
REMARK    2  A    between atoms: C_7  and  C_31 
REMARK    3  A    between atoms: C_16  and  O_29 
REMARK    4  A    between atoms: C_31  and  O_32 
ROOT
HETATM    1  C   UNL     1     -24.956   8.265  -3.269  1.00  0.00     0.018 C 
HETATM    2  C   UNL     1     -24.208   9.638  -3.473  1.00  0.00     0.010 C 
HETATM    3  C   UNL     1     -25.079  10.789  -2.860  1.00  0.00     0.012 C 
HETATM    4  C   UNL     1     -26.424  10.060  -2.619  1.00  0.00    -0.014 C 
HETATM    5  C   UNL     1     -25.875   8.682  -2.116  1.00  0.00     0.009 C 
HETATM    6  C   UNL     1     -25.129   8.886  -0.765  1.00  0.00    -0.000 C 
HETATM    7  C   UNL     1     -24.215   7.747  -0.365  1.00  0.00     0.006 C 
HETATM    8  C   UNL     1     -23.063   8.413   0.352  1.00  0.00     0.006 C 
HETATM    9  C   UNL     1     -23.590   9.111   1.613  1.00  0.00     0.003 C 
HETATM   10  C   UNL     1     -22.416   9.716   2.476  1.00  0.00    -0.035 C 
HETATM   11  C   UNL     1     -21.229   8.672   2.607  1.00  0.00     0.012 C 
HETATM   12  C   UNL     1     -20.344   8.812   3.842  1.00  0.00     0.033 C 
HETATM   13  C   UNL     1     -21.222   8.865   5.090  1.00  0.00     0.126 C 
HETATM   14  C   UNL     1     -22.098  10.169   5.089  1.00  0.00    -0.017 C 
HETATM   15  C   UNL     1     -23.089   9.927   3.908  1.00  0.00     0.004 C 
HETATM   16  C   UNL     1     -24.419  10.704   3.950  1.00  0.00     0.007 C 
HETATM   17  C   UNL     1     -25.464  10.065   2.994  1.00  0.00     0.011 C 
HETATM   18  C   UNL     1     -24.941  10.019   1.520  1.00  0.00    -0.032 C 
HETATM   19  C   UNL     1     -25.995   9.414   0.422  1.00  0.00    -0.032 C 
HETATM   20  C   UNL     1     -26.985  10.509  -0.133  1.00  0.00     0.011 C 
HETATM   21  C   UNL     1     -27.486  10.396  -1.566  1.00  0.00     0.013 C 
HETATM   22  C   UNL     1     -26.837   8.249   1.014  1.00  0.00     0.016 C 
HETATM   23  C   UNL     1     -24.781  11.548   1.209  1.00  0.00     0.016 C 
HETATM   24  C   UNL     1     -22.798  10.266   6.461  1.00  0.00     0.018 C 
HETATM   25  C   UNL     1     -21.325  11.494   4.931  1.00  0.00     0.018 C 
HETATM   26  C   UNL     1     -21.756  10.887   1.688  1.00  0.00     0.016 C 
ENDROOT
BRANCH   1  27
HETATM   27  C   UNL     1     -25.821   7.570  -4.359  1.00  0.00    -0.089 C 
HETATM   28  C   UNL     1     -27.012   6.763  -3.939  1.00  0.00     0.043 C 
HETATM   29  C   UNL     1     -25.573   7.645  -5.688  1.00  0.00     0.014 C 
ENDBRANCH   1  27
BRANCH   4  30
HETATM   30  C   UNL     1     -27.109  10.195  -4.019  1.00  0.00     0.173 C 
BRANCH  30  31
HETATM   31  O   UNL     1     -28.545  10.066  -3.917  1.00  0.00    -0.400 OA
HETATM   32  H   UNL     1     -28.913   9.891  -4.796  1.00  0.00     0.209 HD
ENDBRANCH  30  31
ENDBRANCH   4  30
BRANCH  13  33
HETATM   33  O   UNL     1     -20.479   8.646   6.256  1.00  0.00    -0.395 OA
HETATM   34  H   UNL     1     -20.312   7.683   6.294  1.00  0.00     0.210 HD
ENDBRANCH  13  33
TORSDOF 4
ENDMDL
MODEL 4
REMARK VINA RESULT:      -7.3      1.418      1.723
REMARK  4 active torsions:
REMARK  status: ('A' for Active; 'I' for Inactive)
REMARK    1  A    between atoms: C_2  and  C_4 
REMARK    2  A    between atoms: C_7  and  C_31 
REMARK    3  A    between atoms: C_16  and  O_29 
REMARK    4  A    between atoms: C_31  and  O_32 
ROOT
HETATM    1  C   UNL     1     -20.424  -7.906  -2.815  1.00  0.00     0.018 C 
HETATM    2  C   UNL     1     -19.853  -8.438  -1.444  1.00  0.00     0.010 C 
HETATM    3  C   UNL     1     -20.446  -9.863  -1.164  1.00  0.00     0.012 C 
HETATM    4  C   UNL     1     -21.569  -9.942  -2.227  1.00  0.00    -0.014 C 
HETATM    5  C   UNL     1     -20.830  -9.253  -3.424  1.00  0.00     0.009 C 
HETATM    6  C   UNL     1     -19.621 -10.131  -3.859  1.00  0.00    -0.000 C 
HETATM    7  C   UNL     1     -18.592  -9.420  -4.713  1.00  0.00     0.006 C 
HETATM    8  C   UNL     1     -17.270 -10.034  -4.312  1.00  0.00     0.006 C 
HETATM    9  C   UNL     1     -17.281 -11.528  -4.664  1.00  0.00     0.003 C 
HETATM   10  C   UNL     1     -15.881 -12.200  -4.390  1.00  0.00    -0.035 C 
HETATM   11  C   UNL     1     -14.709 -11.283  -4.940  1.00  0.00     0.012 C 
HETATM   12  C   UNL     1     -13.415 -11.999  -5.317  1.00  0.00     0.033 C 
HETATM   13  C   UNL     1     -13.736 -13.165  -6.249  1.00  0.00     0.126 C 
HETATM   14  C   UNL     1     -14.578 -14.254  -5.493  1.00  0.00    -0.017 C 
HETATM   15  C   UNL     1     -15.945 -13.541  -5.253  1.00  0.00     0.004 C 
HETATM   16  C   UNL     1     -17.174 -14.448  -5.047  1.00  0.00     0.007 C 
HETATM   17  C   UNL     1     -18.491 -13.652  -5.258  1.00  0.00     0.011 C 
HETATM   18  C   UNL     1     -18.585 -12.431  -4.285  1.00  0.00    -0.032 C 
HETATM   19  C   UNL     1     -19.967 -11.558  -4.389  1.00  0.00    -0.032 C 
HETATM   20  C   UNL     1     -21.125 -12.152  -3.498  1.00  0.00     0.011 C 
HETATM   21  C   UNL     1     -22.144 -11.205  -2.878  1.00  0.00     0.013 C 
HETATM   22  C   UNL     1     -20.479 -11.462  -5.854  1.00  0.00     0.016 C 
HETATM   23  C   UNL     1     -18.602 -13.153  -2.894  1.00  0.00     0.016 C 
HETATM   24  C   UNL     1     -14.688 -15.487  -6.415  1.00  0.00     0.018 C 
HETATM   25  C   UNL     1     -13.965 -14.781  -4.179  1.00  0.00     0.018 C 
HETATM   26  C   UNL     1     -15.613 -12.212  -2.856  1.00  0.00     0.016 C 
ENDROOT
BRANCH   1  27
HETATM   27  C   UNL     1     -21.627  -6.929  -2.940  1.00  0.00    -0.089 C 
HETATM   28  C   UNL     1     -22.301  -6.769  -4.269  1.00  0.00     0.043 C 
HETATM   29  C   UNL     1     -22.122  -6.198  -1.914  1.00  0.00     0.014 C 
ENDBRANCH   1  27
BRANCH   4  30
HETATM   30  C   UNL     1     -22.750  -9.230  -1.489  1.00  0.00     0.173 C 
BRANCH  30  31
HETATM   31  O   UNL     1     -22.981  -9.809  -0.185  1.00  0.00    -0.400 OA
HETATM   32  H   UNL     1     -22.132  -9.936   0.263  1.00  0.00     0.209 HD
ENDBRANCH  30  31
ENDBRANCH   4  30
BRANCH  13  33
HETATM   33  O   UNL     1     -12.591 -13.641  -6.898  1.00  0.00    -0.395 OA
HETATM   34  H   UNL     1     -12.199 -12.869  -7.355  1.00  0.00     0.210 HD
ENDBRANCH  13  33
TORSDOF 4
ENDMDL
MODEL 5
REMARK VINA RESULT:      -7.3     20.121     23.349
REMARK  4 active torsions:
REMARK  status: ('A' for Active; 'I' for Inactive)
REMARK    1  A    between atoms: C_2  and  C_4 
REMARK    2  A    between atoms: C_7  and  C_31 
REMARK    3  A    between atoms: C_16  and  O_29 
REMARK    4  A    between atoms: C_31  and  O_32 
ROOT
HETATM    1  C   UNL     1     -22.238  10.209  -2.284  1.00  0.00     0.018 C 
HETATM    2  C   UNL     1     -22.821  11.667  -2.142  1.00  0.00     0.010 C 
HETATM    3  C   UNL     1     -24.317  11.666  -2.615  1.00  0.00     0.012 C 
HETATM    4  C   UNL     1     -24.420  10.282  -3.301  1.00  0.00    -0.014 C 
HETATM    5  C   UNL     1     -23.563   9.440  -2.296  1.00  0.00     0.009 C 
HETATM    6  C   UNL     1     -24.277   9.404  -0.913  1.00  0.00    -0.000 C 
HETATM    7  C   UNL     1     -23.399   8.983   0.246  1.00  0.00     0.006 C 
HETATM    8  C   UNL     1     -23.908   9.783   1.423  1.00  0.00     0.006 C 
HETATM    9  C   UNL     1     -25.361   9.383   1.713  1.00  0.00     0.003 C 
HETATM   10  C   UNL     1     -25.909  10.088   3.014  1.00  0.00    -0.035 C 
HETATM   11  C   UNL     1     -24.838  10.011   4.180  1.00  0.00     0.012 C 
HETATM   12  C   UNL     1     -25.387  10.065   5.603  1.00  0.00     0.033 C 
HETATM   13  C   UNL     1     -26.499   9.029   5.756  1.00  0.00     0.126 C 
HETATM   14  C   UNL     1     -27.725   9.406   4.850  1.00  0.00    -0.017 C 
HETATM   15  C   UNL     1     -27.175   9.197   3.405  1.00  0.00     0.004 C 
HETATM   16  C   UNL     1     -28.215   8.932   2.299  1.00  0.00     0.007 C 
HETATM   17  C   UNL     1     -27.540   8.321   1.040  1.00  0.00     0.011 C 
HETATM   18  C   UNL     1     -26.419   9.256   0.478  1.00  0.00    -0.032 C 
HETATM   19  C   UNL     1     -25.683   8.726  -0.886  1.00  0.00    -0.032 C 
HETATM   20  C   UNL     1     -26.462   9.143  -2.193  1.00  0.00     0.011 C 
HETATM   21  C   UNL     1     -25.676   9.419  -3.467  1.00  0.00     0.013 C 
HETATM   22  C   UNL     1     -25.518   7.180  -0.888  1.00  0.00     0.016 C 
HETATM   23  C   UNL     1     -27.251  10.526   0.088  1.00  0.00     0.016 C 
HETATM   24  C   UNL     1     -28.882   8.449   5.206  1.00  0.00     0.018 C 
HETATM   25  C   UNL     1     -28.295  10.825   5.050  1.00  0.00     0.018 C 
HETATM   26  C   UNL     1     -26.022  11.620   2.754  1.00  0.00     0.016 C 
ENDROOT
BRANCH   1  27
HETATM   27  C   UNL     1     -21.379   9.725  -3.486  1.00  0.00    -0.089 C 
HETATM   28  C   UNL     1     -21.563   8.327  -3.998  1.00  0.00     0.043 C 
HETATM   29  C   UNL     1     -20.460  10.489  -4.121  1.00  0.00     0.014 C 
ENDBRANCH   1  27
BRANCH   4  30
HETATM   30  C   UNL     1     -23.894  10.604  -4.738  1.00  0.00     0.173 C 
BRANCH  30  31
HETATM   31  O   UNL     1     -24.953  10.521  -5.718  1.00  0.00    -0.400 OA
HETATM   32  H   UNL     1     -25.446   9.697  -5.586  1.00  0.00     0.209 HD
ENDBRANCH  30  31
ENDBRANCH   4  30
BRANCH  13  33
HETATM   33  O   UNL     1     -26.801   8.789   7.101  1.00  0.00    -0.395 OA
HETATM   34  H   UNL     1     -26.674   9.642   7.563  1.00  0.00     0.210 HD
ENDBRANCH  13  33
TORSDOF 4
ENDMDL
MODEL 6
REMARK VINA RESULT:      -7.1      2.200      8.148
REMARK  4 active torsions:
REMARK  status: ('A' for Active; 'I' for Inactive)
REMARK    1  A    between atoms: C_2  and  C_4 
REMARK    2  A    between atoms: C_7  and  C_31 
REMARK    3  A    between atoms: C_16  and  O_29 
REMARK    4  A    between atoms: C_31  and  O_32 
ROOT
HETATM    1  C   UNL     1     -15.082 -13.797  -3.882  1.00  0.00     0.018 C 
HETATM    2  C   UNL     1     -16.348 -14.588  -4.389  1.00  0.00     0.010 C 
HETATM    3  C   UNL     1     -16.985 -15.360  -3.181  1.00  0.00     0.012 C 
HETATM    4  C   UNL     1     -15.872 -15.228  -2.113  1.00  0.00    -0.014 C 
HETATM    5  C   UNL     1     -15.432 -13.751  -2.391  1.00  0.00     0.009 C 
HETATM    6  C   UNL     1     -16.610 -12.790  -2.056  1.00  0.00    -0.000 C 
HETATM    7  C   UNL     1     -16.483 -11.399  -2.642  1.00  0.00     0.006 C 
HETATM    8  C   UNL     1     -17.903 -10.986  -2.958  1.00  0.00     0.006 C 
HETATM    9  C   UNL     1     -18.709 -10.918  -1.654  1.00  0.00     0.003 C 
HETATM   10  C   UNL     1     -20.166 -10.365  -1.901  1.00  0.00    -0.035 C 
HETATM   11  C   UNL     1     -20.125  -9.097  -2.853  1.00  0.00     0.012 C 
HETATM   12  C   UNL     1     -21.277  -8.107  -2.706  1.00  0.00     0.033 C 
HETATM   13  C   UNL     1     -21.437  -7.733  -1.234  1.00  0.00     0.126 C 
HETATM   14  C   UNL     1     -21.889  -8.983  -0.398  1.00  0.00    -0.017 C 
HETATM   15  C   UNL     1     -20.634  -9.911  -0.444  1.00  0.00     0.004 C 
HETATM   16  C   UNL     1     -20.494 -10.944   0.691  1.00  0.00     0.007 C 
HETATM   17  C   UNL     1     -19.038 -11.478   0.776  1.00  0.00     0.011 C 
HETATM   18  C   UNL     1     -18.587 -12.132  -0.572  1.00  0.00    -0.032 C 
HETATM   19  C   UNL     1     -17.082 -12.779  -0.568  1.00  0.00    -0.032 C 
HETATM   20  C   UNL     1     -17.064 -14.262  -0.029  1.00  0.00     0.011 C 
HETATM   21  C   UNL     1     -16.042 -15.241  -0.589  1.00  0.00     0.013 C 
HETATM   22  C   UNL     1     -16.095 -11.937   0.288  1.00  0.00     0.016 C 
HETATM   23  C   UNL     1     -19.599 -13.324  -0.684  1.00  0.00     0.016 C 
HETATM   24  C   UNL     1     -22.234  -8.496   1.025  1.00  0.00     0.018 C 
HETATM   25  C   UNL     1     -23.156  -9.703  -0.901  1.00  0.00     0.018 C 
HETATM   26  C   UNL     1     -20.968 -11.400  -2.745  1.00  0.00     0.016 C 
ENDROOT
BRANCH   1  27
HETATM   27  C   UNL     1     -13.619 -14.305  -4.026  1.00  0.00    -0.089 C 
HETATM   28  C   UNL     1     -12.604 -13.906  -2.997  1.00  0.00     0.043 C 
HETATM   29  C   UNL     1     -13.185 -15.099  -5.033  1.00  0.00     0.014 C 
ENDBRANCH   1  27
BRANCH   4  30
HETATM   30  C   UNL     1     -14.941 -16.431  -2.479  1.00  0.00     0.173 C 
BRANCH  30  31
HETATM   31  O   UNL     1     -14.020 -16.729  -1.406  1.00  0.00    -0.400 OA
HETATM   32  H   UNL     1     -13.115 -16.729  -1.753  1.00  0.00     0.209 HD
ENDBRANCH  30  31
ENDBRANCH   4  30
BRANCH  13  33
HETATM   33  O   UNL     1     -22.229  -6.590  -1.074  1.00  0.00    -0.395 OA
HETATM   34  H   UNL     1     -22.036  -6.017  -1.843  1.00  0.00     0.210 HD
ENDBRANCH  13  33
TORSDOF 4
ENDMDL
MODEL 7
REMARK VINA RESULT:      -6.9      1.954      3.317
REMARK  4 active torsions:
REMARK  status: ('A' for Active; 'I' for Inactive)
REMARK    1  A    between atoms: C_2  and  C_4 
REMARK    2  A    between atoms: C_7  and  C_31 
REMARK    3  A    between atoms: C_16  and  O_29 
REMARK    4  A    between atoms: C_31  and  O_32 
ROOT
HETATM    1  C   UNL     1     -20.896 -10.433  -1.668  1.00  0.00     0.018 C 
HETATM    2  C   UNL     1     -21.682 -11.264  -2.753  1.00  0.00     0.010 C 
HETATM    3  C   UNL     1     -21.375 -10.669  -4.172  1.00  0.00     0.012 C 
HETATM    4  C   UNL     1     -20.682  -9.335  -3.801  1.00  0.00    -0.014 C 
HETATM    5  C   UNL     1     -19.828  -9.826  -2.584  1.00  0.00     0.009 C 
HETATM    6  C   UNL     1     -18.770 -10.856  -3.078  1.00  0.00    -0.000 C 
HETATM    7  C   UNL     1     -18.152 -11.707  -1.989  1.00  0.00     0.006 C 
HETATM    8  C   UNL     1     -17.908 -13.048  -2.642  1.00  0.00     0.006 C 
HETATM    9  C   UNL     1     -16.900 -12.874  -3.786  1.00  0.00     0.003 C 
HETATM   10  C   UNL     1     -16.502 -14.261  -4.425  1.00  0.00    -0.035 C 
HETATM   11  C   UNL     1     -16.209 -15.330  -3.291  1.00  0.00     0.012 C 
HETATM   12  C   UNL     1     -15.260 -16.465  -3.665  1.00  0.00     0.033 C 
HETATM   13  C   UNL     1     -13.983 -15.878  -4.264  1.00  0.00     0.126 C 
HETATM   14  C   UNL     1     -14.296 -15.167  -5.629  1.00  0.00    -0.017 C 
HETATM   15  C   UNL     1     -15.144 -13.930  -5.196  1.00  0.00     0.004 C 
HETATM   16  C   UNL     1     -15.161 -12.729  -6.161  1.00  0.00     0.007 C 
HETATM   17  C   UNL     1     -15.654 -11.445  -5.438  1.00  0.00     0.011 C 
HETATM   18  C   UNL     1     -17.083 -11.639  -4.835  1.00  0.00    -0.032 C 
HETATM   19  C   UNL     1     -17.718 -10.320  -4.099  1.00  0.00    -0.032 C 
HETATM   20  C   UNL     1     -18.452  -9.358  -5.111  1.00  0.00     0.011 C 
HETATM   21  C   UNL     1     -19.656  -8.559  -4.634  1.00  0.00     0.013 C 
HETATM   22  C   UNL     1     -16.631  -9.501  -3.348  1.00  0.00     0.016 C 
HETATM   23  C   UNL     1     -17.928 -11.892  -6.131  1.00  0.00     0.016 C 
HETATM   24  C   UNL     1     -12.950 -14.784  -6.279  1.00  0.00     0.018 C 
HETATM   25  C   UNL     1     -15.027 -16.026  -6.680  1.00  0.00     0.018 C 
HETATM   26  C   UNL     1     -17.742 -14.862  -5.150  1.00  0.00     0.016 C 
ENDROOT
BRANCH   1  27
HETATM   27  C   UNL     1     -21.522  -9.290  -0.821  1.00  0.00    -0.089 C 
HETATM   28  C   UNL     1     -22.952  -9.404  -0.384  1.00  0.00     0.043 C 
HETATM   29  C   UNL     1     -20.856  -8.175  -0.437  1.00  0.00     0.014 C 
ENDBRANCH   1  27
BRANCH   4  30
HETATM   30  C   UNL     1     -21.912  -8.390  -3.596  1.00  0.00     0.173 C 
BRANCH  30  31
HETATM   31  O   UNL     1     -21.539  -7.001  -3.739  1.00  0.00    -0.400 OA
HETATM   32  H   UNL     1     -22.024  -6.615  -4.483  1.00  0.00     0.209 HD
ENDBRANCH  30  31
ENDBRANCH   4  30
BRANCH  13  33
HETATM   33  O   UNL     1     -12.950 -16.821  -4.307  1.00  0.00    -0.395 OA
HETATM   34  H   UNL     1     -12.206 -16.430  -3.805  1.00  0.00     0.210 HD
ENDBRANCH  13  33
TORSDOF 4
ENDMDL
MODEL 8
REMARK VINA RESULT:      -6.6     19.835     22.502
REMARK  4 active torsions:
REMARK  status: ('A' for Active; 'I' for Inactive)
REMARK    1  A    between atoms: C_2  and  C_4 
REMARK    2  A    between atoms: C_7  and  C_31 
REMARK    3  A    between atoms: C_16  and  O_29 
REMARK    4  A    between atoms: C_31  and  O_32 
ROOT
HETATM    1  C   UNL     1     -25.928   9.907  -3.839  1.00  0.00     0.018 C 
HETATM    2  C   UNL     1     -26.396  11.214  -3.090  1.00  0.00     0.010 C 
HETATM    3  C   UNL     1     -26.916  10.824  -1.662  1.00  0.00     0.012 C 
HETATM    4  C   UNL     1     -27.015   9.284  -1.782  1.00  0.00    -0.014 C 
HETATM    5  C   UNL     1     -25.715   9.013  -2.613  1.00  0.00     0.009 C 
HETATM    6  C   UNL     1     -24.470   9.403  -1.764  1.00  0.00    -0.000 C 
HETATM    7  C   UNL     1     -23.190   9.578  -2.555  1.00  0.00     0.006 C 
HETATM    8  C   UNL     1     -22.447  10.684  -1.840  1.00  0.00     0.006 C 
HETATM    9  C   UNL     1     -22.107  10.224  -0.416  1.00  0.00     0.003 C 
HETATM   10  C   UNL     1     -21.216  11.284   0.339  1.00  0.00    -0.035 C 
HETATM   11  C   UNL     1     -20.052  11.804  -0.604  1.00  0.00     0.012 C 
HETATM   12  C   UNL     1     -18.796  12.315   0.095  1.00  0.00     0.033 C 
HETATM   13  C   UNL     1     -18.316  11.268   1.099  1.00  0.00     0.126 C 
HETATM   14  C   UNL     1     -19.364  11.099   2.256  1.00  0.00    -0.017 C 
HETATM   15  C   UNL     1     -20.581  10.439   1.536  1.00  0.00     0.004 C 
HETATM   16  C   UNL     1     -21.555   9.633   2.418  1.00  0.00     0.007 C 
HETATM   17  C   UNL     1     -22.437   8.692   1.551  1.00  0.00     0.011 C 
HETATM   18  C   UNL     1     -23.253   9.493   0.484  1.00  0.00    -0.032 C 
HETATM   19  C   UNL     1     -24.261   8.595  -0.444  1.00  0.00    -0.032 C 
HETATM   20  C   UNL     1     -25.669   8.374   0.232  1.00  0.00     0.011 C 
HETATM   21  C   UNL     1     -26.904   8.256  -0.651  1.00  0.00     0.013 C 
HETATM   22  C   UNL     1     -23.653   7.203  -0.774  1.00  0.00     0.016 C 
HETATM   23  C   UNL     1     -24.153  10.391   1.403  1.00  0.00     0.016 C 
HETATM   24  C   UNL     1     -18.731  10.195   3.334  1.00  0.00     0.018 C 
HETATM   25  C   UNL     1     -19.764  12.394   2.993  1.00  0.00     0.018 C 
HETATM   26  C   UNL     1     -22.056  12.572   0.587  1.00  0.00     0.016 C 
ENDROOT
BRANCH   1  27
HETATM   27  C   UNL     1     -26.797   9.130  -4.867  1.00  0.00    -0.089 C 
HETATM   28  C   UNL     1     -27.840   9.872  -5.649  1.00  0.00     0.043 C 
HETATM   29  C   UNL     1     -26.678   7.805  -5.116  1.00  0.00     0.014 C 
ENDBRANCH   1  27
BRANCH   4  30
HETATM   30  C   UNL     1     -28.432   9.110  -2.420  1.00  0.00     0.173 C 
BRANCH  30  31
HETATM   31  O   UNL     1     -29.104   7.941  -1.899  1.00  0.00    -0.400 OA
HETATM   32  H   UNL     1     -28.733   7.719  -1.032  1.00  0.00     0.209 HD
ENDBRANCH  30  31
ENDBRANCH   4  30
BRANCH  13  33
HETATM   33  O   UNL     1     -17.002  11.514   1.515  1.00  0.00    -0.395 OA
HETATM   34  H   UNL     1     -17.069  11.881   2.420  1.00  0.00     0.210 HD
ENDBRANCH  13  33
TORSDOF 4
ENDMDL
MODEL 9
REMARK VINA RESULT:      -6.6      3.491      6.601
REMARK  4 active torsions:
REMARK  status: ('A' for Active; 'I' for Inactive)
REMARK    1  A    between atoms: C_2  and  C_4 
REMARK    2  A    between atoms: C_7  and  C_31 
REMARK    3  A    between atoms: C_16  and  O_29 
REMARK    4  A    between atoms: C_31  and  O_32 
ROOT
HETATM    1  C   UNL     1     -22.144 -12.670  -0.525  1.00  0.00     0.018 C 
HETATM    2  C   UNL     1     -21.571 -11.549   0.424  1.00  0.00     0.010 C 
HETATM    3  C   UNL     1     -20.026 -11.420   0.184  1.00  0.00     0.012 C 
HETATM    4  C   UNL     1     -19.739 -12.686  -0.658  1.00  0.00    -0.014 C 
HETATM    5  C   UNL     1     -21.017 -12.680  -1.564  1.00  0.00     0.009 C 
HETATM    6  C   UNL     1     -20.997 -11.418  -2.475  1.00  0.00    -0.000 C 
HETATM    7  C   UNL     1     -22.330 -11.065  -3.102  1.00  0.00     0.006 C 
HETATM    8  C   UNL     1     -22.335  -9.554  -3.165  1.00  0.00     0.006 C 
HETATM    9  C   UNL     1     -21.199  -9.085  -4.084  1.00  0.00     0.003 C 
HETATM   10  C   UNL     1     -21.231  -7.522  -4.296  1.00  0.00    -0.035 C 
HETATM   11  C   UNL     1     -22.712  -7.032  -4.583  1.00  0.00     0.012 C 
HETATM   12  C   UNL     1     -22.850  -5.743  -5.388  1.00  0.00     0.033 C 
HETATM   13  C   UNL     1     -22.008  -5.848  -6.658  1.00  0.00     0.126 C 
HETATM   14  C   UNL     1     -20.481  -5.921  -6.298  1.00  0.00    -0.017 C 
HETATM   15  C   UNL     1     -20.347  -7.314  -5.608  1.00  0.00     0.004 C 
HETATM   16  C   UNL     1     -18.948  -7.962  -5.621  1.00  0.00     0.007 C 
HETATM   17  C   UNL     1     -19.040  -9.482  -5.313  1.00  0.00     0.011 C 
HETATM   18  C   UNL     1     -19.716  -9.747  -3.927  1.00  0.00    -0.032 C 
HETATM   19  C   UNL     1     -19.809 -11.321  -3.482  1.00  0.00    -0.032 C 
HETATM   20  C   UNL     1     -18.500 -11.821  -2.758  1.00  0.00     0.011 C 
HETATM   21  C   UNL     1     -18.613 -12.888  -1.678  1.00  0.00     0.013 C 
HETATM   22  C   UNL     1     -20.078 -12.249  -4.700  1.00  0.00     0.016 C 
HETATM   23  C   UNL     1     -18.699  -9.054  -2.956  1.00  0.00     0.016 C 
HETATM   24  C   UNL     1     -19.682  -5.813  -7.614  1.00  0.00     0.018 C 
HETATM   25  C   UNL     1     -19.949  -4.782  -5.404  1.00  0.00     0.018 C 
HETATM   26  C   UNL     1     -20.894  -6.818  -2.948  1.00  0.00     0.016 C 
ENDROOT
BRANCH   1  27
HETATM   27  C   UNL     1     -22.415 -14.136  -0.082  1.00  0.00    -0.089 C 
HETATM   28  C   UNL     1     -22.796 -14.409   1.342  1.00  0.00     0.043 C 
HETATM   29  C   UNL     1     -22.332 -15.207  -0.906  1.00  0.00     0.014 C 
ENDBRANCH   1  27
BRANCH   4  30
HETATM   30  C   UNL     1     -19.545 -13.767   0.457  1.00  0.00     0.173 C 
BRANCH  30  31
HETATM   31  O   UNL     1     -18.771 -14.888  -0.026  1.00  0.00    -0.400 OA
HETATM   32  H   UNL     1     -18.785 -14.893  -0.994  1.00  0.00     0.209 HD
ENDBRANCH  30  31
ENDBRANCH   4  30
BRANCH  13  33
HETATM   33  O   UNL     1     -22.354  -4.865  -7.592  1.00  0.00    -0.395 OA
HETATM   34  H   UNL     1     -23.059  -5.255  -8.147  1.00  0.00     0.210 HD
ENDBRANCH  13  33
TORSDOF 4
ENDMDL
