MODEL 1
REMARK VINA RESULT:      -7.1      0.000      0.000
REMARK  6 active torsions:
REMARK  status: ('A' for Active; 'I' for Inactive)
REMARK    1  A    between atoms: C_2  and  O_3 
REMARK    2  A    between atoms: O_3  and  C_4 
REMARK    3  A    between atoms: C_4  and  C_6 
REMARK    4  A    between atoms: C_7  and  C_8 
REMARK    5  A    between atoms: C_10  and  O_15 
REMARK    6  A    between atoms: C_11  and  O_14 
ROOT
HETATM    1  C   UNL     1     -22.040  -3.754 -10.509  1.00  0.00    -0.033 A 
HETATM    2  C   UNL     1     -21.921  -3.531 -11.887  1.00  0.00     0.051 A 
HETATM    3  C   UNL     1     -23.027  -3.215 -12.699  1.00  0.00     0.102 A 
HETATM    4  C   UNL     1     -24.284  -3.141 -12.097  1.00  0.00     0.099 A 
HETATM    5  C   UNL     1     -24.420  -3.386 -10.725  1.00  0.00     0.040 A 
HETATM    6  C   UNL     1     -23.314  -3.698  -9.939  1.00  0.00     0.014 A 
ENDROOT
BRANCH   1   7
HETATM    7  C   UNL     1     -20.891  -4.055  -9.645  1.00  0.00     0.017 C 
HETATM    8  C   UNL     1     -21.003  -4.578  -8.415  1.00  0.00     0.083 C 
BRANCH   8   9
HETATM    9  C   UNL     1     -19.792  -5.006  -7.688  1.00  0.00     0.282 C 
HETATM   10  O   UNL     1     -18.751  -4.377  -7.615  1.00  0.00    -0.260 OA
BRANCH   9  11
HETATM   11  O   UNL     1     -20.021  -6.265  -7.241  1.00  0.00    -0.319 OA
BRANCH  11  12
HETATM   12  C   UNL     1     -21.141  -6.405  -6.358  1.00  0.00     0.174 C 
HETATM   13  C   UNL     1     -20.804  -5.700  -5.056  1.00  0.00     0.034 C 
ENDBRANCH  11  12
ENDBRANCH   9  11
ENDBRANCH   8   9
ENDBRANCH   1   7
BRANCH   3  14
HETATM   14  O   UNL     1     -22.638  -3.019 -13.992  1.00  0.00    -0.353 OA
HETATM   15  C   UNL     1     -23.172  -1.979 -14.781  1.00  0.00     0.210 C 
ENDBRANCH   3  14
BRANCH   4  16
HETATM   16  O   UNL     1     -25.466  -2.834 -12.704  1.00  0.00    -0.358 OA
HETATM   17  H   UNL     1     -25.950  -2.182 -12.188  1.00  0.00     0.217 HD
ENDBRANCH   4  16
TORSDOF 6
ENDMDL
MODEL 2
REMARK VINA RESULT:      -7.0      1.750      3.028
REMARK  6 active torsions:
REMARK  status: ('A' for Active; 'I' for Inactive)
REMARK    1  A    between atoms: C_2  and  O_3 
REMARK    2  A    between atoms: O_3  and  C_4 
REMARK    3  A    between atoms: C_4  and  C_6 
REMARK    4  A    between atoms: C_7  and  C_8 
REMARK    5  A    between atoms: C_10  and  O_15 
REMARK    6  A    between atoms: C_11  and  O_14 
ROOT
HETATM    1  C   UNL     1     -21.321  -4.044  -9.035  1.00  0.00    -0.033 A 
HETATM    2  C   UNL     1     -22.603  -3.647  -9.435  1.00  0.00     0.051 A 
HETATM    3  C   UNL     1     -22.949  -3.460 -10.787  1.00  0.00     0.102 A 
HETATM    4  C   UNL     1     -21.962  -3.669 -11.752  1.00  0.00     0.099 A 
HETATM    5  C   UNL     1     -20.669  -4.043 -11.364  1.00  0.00     0.040 A 
HETATM    6  C   UNL     1     -20.348  -4.220 -10.021  1.00  0.00     0.014 A 
ENDROOT
BRANCH   1   7
HETATM    7  C   UNL     1     -20.955  -4.271  -7.630  1.00  0.00     0.017 C 
HETATM    8  C   UNL     1     -21.690  -5.000  -6.779  1.00  0.00     0.083 C 
BRANCH   8   9
HETATM    9  C   UNL     1     -21.161  -5.317  -5.439  1.00  0.00     0.282 C 
HETATM   10  O   UNL     1     -20.027  -5.090  -5.054  1.00  0.00    -0.260 OA
BRANCH   9  11
HETATM   11  O   UNL     1     -22.124  -6.011  -4.784  1.00  0.00    -0.319 OA
BRANCH  11  12
HETATM   12  C   UNL     1     -21.653  -6.864  -3.733  1.00  0.00     0.174 C 
HETATM   13  C   UNL     1     -22.009  -6.215  -2.407  1.00  0.00     0.034 C 
ENDBRANCH  11  12
ENDBRANCH   9  11
ENDBRANCH   8   9
ENDBRANCH   1   7
BRANCH   3  14
HETATM   14  O   UNL     1     -24.260  -3.103 -10.907  1.00  0.00    -0.353 OA
HETATM   15  C   UNL     1     -25.163  -3.210  -9.829  1.00  0.00     0.210 C 
ENDBRANCH   3  14
BRANCH   4  16
HETATM   16  O   UNL     1     -22.101  -3.558 -13.104  1.00  0.00    -0.358 OA
HETATM   17  H   UNL     1     -22.375  -4.398 -13.484  1.00  0.00     0.217 HD
ENDBRANCH   4  16
TORSDOF 6
ENDMDL
MODEL 3
REMARK VINA RESULT:      -6.9      1.201      7.004
REMARK  6 active torsions:
REMARK  status: ('A' for Active; 'I' for Inactive)
REMARK    1  A    between atoms: C_2  and  O_3 
REMARK    2  A    between atoms: O_3  and  C_4 
REMARK    3  A    between atoms: C_4  and  C_6 
REMARK    4  A    between atoms: C_7  and  C_8 
REMARK    5  A    between atoms: C_10  and  O_15 
REMARK    6  A    between atoms: C_11  and  O_14 
ROOT
HETATM    1  C   UNL     1     -22.437  -4.004  -9.581  1.00  0.00    -0.033 A 
HETATM    2  C   UNL     1     -22.724  -4.341  -8.252  1.00  0.00     0.051 A 
HETATM    3  C   UNL     1     -21.722  -4.697  -7.329  1.00  0.00     0.102 A 
HETATM    4  C   UNL     1     -20.400  -4.725  -7.774  1.00  0.00     0.099 A 
HETATM    5  C   UNL     1     -20.101  -4.414  -9.106  1.00  0.00     0.040 A 
HETATM    6  C   UNL     1     -21.107  -4.065 -10.004  1.00  0.00     0.014 A 
ENDROOT
BRANCH   1   7
HETATM    7  C   UNL     1     -23.469  -3.602 -10.546  1.00  0.00     0.017 C 
HETATM    8  C   UNL     1     -23.236  -3.433 -11.856  1.00  0.00     0.083 C 
BRANCH   8   9
HETATM    9  C   UNL     1     -24.365  -3.197 -12.776  1.00  0.00     0.282 C 
HETATM   10  O   UNL     1     -25.498  -2.895 -12.443  1.00  0.00    -0.260 OA
BRANCH   9  11
HETATM   11  O   UNL     1     -23.933  -3.505 -14.024  1.00  0.00    -0.319 OA
BRANCH  11  12
HETATM   12  C   UNL     1     -22.916  -2.641 -14.547  1.00  0.00     0.174 C 
HETATM   13  C   UNL     1     -23.577  -1.344 -14.978  1.00  0.00     0.034 C 
ENDBRANCH  11  12
ENDBRANCH   9  11
ENDBRANCH   8   9
ENDBRANCH   1   7
BRANCH   3  14
HETATM   14  O   UNL     1     -22.262  -4.950  -6.102  1.00  0.00    -0.353 OA
HETATM   15  C   UNL     1     -22.030  -6.164  -5.421  1.00  0.00     0.210 C 
ENDBRANCH   3  14
BRANCH   4  16
HETATM   16  O   UNL     1     -19.293  -5.026  -7.036  1.00  0.00    -0.358 OA
HETATM   17  H   UNL     1     -19.514  -5.067  -6.101  1.00  0.00     0.217 HD
ENDBRANCH   4  16
TORSDOF 6
ENDMDL
MODEL 4
REMARK VINA RESULT:      -6.9      2.082      3.471
REMARK  6 active torsions:
REMARK  status: ('A' for Active; 'I' for Inactive)
REMARK    1  A    between atoms: C_2  and  O_3 
REMARK    2  A    between atoms: O_3  and  C_4 
REMARK    3  A    between atoms: C_4  and  C_6 
REMARK    4  A    between atoms: C_7  and  C_8 
REMARK    5  A    between atoms: C_10  and  O_15 
REMARK    6  A    between atoms: C_11  and  O_14 
ROOT
HETATM    1  C   UNL     1     -21.055  -4.843  -8.674  1.00  0.00    -0.033 A 
HETATM    2  C   UNL     1     -22.379  -4.672  -9.098  1.00  0.00     0.051 A 
HETATM    3  C   UNL     1     -22.708  -4.316 -10.421  1.00  0.00     0.102 A 
HETATM    4  C   UNL     1     -21.664  -4.117 -11.326  1.00  0.00     0.099 A 
HETATM    5  C   UNL     1     -20.336  -4.261 -10.908  1.00  0.00     0.040 A 
HETATM    6  C   UNL     1     -20.032  -4.612  -9.595  1.00  0.00     0.014 A 
ENDROOT
BRANCH   1   7
HETATM    7  C   UNL     1     -20.699  -5.242  -7.305  1.00  0.00     0.017 C 
HETATM    8  C   UNL     1     -21.485  -5.995  -6.522  1.00  0.00     0.083 C 
BRANCH   8   9
HETATM    9  C   UNL     1     -20.974  -6.490  -5.230  1.00  0.00     0.282 C 
HETATM   10  O   UNL     1     -20.069  -7.294  -5.087  1.00  0.00    -0.260 OA
BRANCH   9  11
HETATM   11  O   UNL     1     -21.778  -5.983  -4.263  1.00  0.00    -0.319 OA
BRANCH  11  12
HETATM   12  C   UNL     1     -21.205  -5.945  -2.950  1.00  0.00     0.174 C 
HETATM   13  C   UNL     1     -22.291  -6.305  -1.952  1.00  0.00     0.034 C 
ENDBRANCH  11  12
ENDBRANCH   9  11
ENDBRANCH   8   9
ENDBRANCH   1   7
BRANCH   3  14
HETATM   14  O   UNL     1     -24.060  -4.242 -10.580  1.00  0.00    -0.353 OA
HETATM   15  C   UNL     1     -24.849  -3.332  -9.843  1.00  0.00     0.210 C 
ENDBRANCH   3  14
BRANCH   4  16
HETATM   16  O   UNL     1     -21.776  -3.788 -12.645  1.00  0.00    -0.358 OA
HETATM   17  H   UNL     1     -20.905  -3.714 -13.047  1.00  0.00     0.217 HD
ENDBRANCH   4  16
TORSDOF 6
ENDMDL
MODEL 5
REMARK VINA RESULT:      -6.2      4.015      9.494
REMARK  6 active torsions:
REMARK  status: ('A' for Active; 'I' for Inactive)
REMARK    1  A    between atoms: C_2  and  O_3 
REMARK    2  A    between atoms: O_3  and  C_4 
REMARK    3  A    between atoms: C_4  and  C_6 
REMARK    4  A    between atoms: C_7  and  C_8 
REMARK    5  A    between atoms: C_10  and  O_15 
REMARK    6  A    between atoms: C_11  and  O_14 
ROOT
HETATM    1  C   UNL     1     -21.438  -6.801  -2.994  1.00  0.00    -0.033 A 
HETATM    2  C   UNL     1     -20.734  -7.979  -2.708  1.00  0.00     0.051 A 
HETATM    3  C   UNL     1     -20.808  -8.618  -1.456  1.00  0.00     0.102 A 
HETATM    4  C   UNL     1     -21.605  -8.036  -0.468  1.00  0.00     0.099 A 
HETATM    5  C   UNL     1     -22.294  -6.846  -0.733  1.00  0.00     0.040 A 
HETATM    6  C   UNL     1     -22.206  -6.229  -1.978  1.00  0.00     0.014 A 
ENDROOT
BRANCH   1   7
HETATM    7  C   UNL     1     -21.393  -6.141  -4.305  1.00  0.00     0.017 C 
HETATM    8  C   UNL     1     -20.597  -6.536  -5.310  1.00  0.00     0.083 C 
BRANCH   8   9
HETATM    9  C   UNL     1     -20.742  -5.923  -6.644  1.00  0.00     0.282 C 
HETATM   10  O   UNL     1     -20.035  -6.153  -7.610  1.00  0.00    -0.260 OA
BRANCH   9  11
HETATM   11  O   UNL     1     -21.711  -4.979  -6.545  1.00  0.00    -0.319 OA
BRANCH  11  12
HETATM   12  C   UNL     1     -21.591  -3.884  -7.462  1.00  0.00     0.174 C 
HETATM   13  C   UNL     1     -22.683  -4.025  -8.508  1.00  0.00     0.034 C 
ENDBRANCH  11  12
ENDBRANCH   9  11
ENDBRANCH   8   9
ENDBRANCH   1   7
BRANCH   3  14
HETATM   14  O   UNL     1     -20.056  -9.755  -1.447  1.00  0.00    -0.353 OA
HETATM   15  C   UNL     1     -19.067 -10.002  -2.423  1.00  0.00     0.210 C 
ENDBRANCH   3  14
BRANCH   4  16
HETATM   16  O   UNL     1     -21.819  -8.507   0.794  1.00  0.00    -0.358 OA
HETATM   17  H   UNL     1     -21.991  -9.454   0.775  1.00  0.00     0.217 HD
ENDBRANCH   4  16
TORSDOF 6
ENDMDL
MODEL 6
REMARK VINA RESULT:      -6.1      4.436      9.446
REMARK  6 active torsions:
REMARK  status: ('A' for Active; 'I' for Inactive)
REMARK    1  A    between atoms: C_2  and  O_3 
REMARK    2  A    between atoms: O_3  and  C_4 
REMARK    3  A    between atoms: C_4  and  C_6 
REMARK    4  A    between atoms: C_7  and  C_8 
REMARK    5  A    between atoms: C_10  and  O_15 
REMARK    6  A    between atoms: C_11  and  O_14 
ROOT
HETATM    1  C   UNL     1     -21.502  -6.884  -3.159  1.00  0.00    -0.033 A 
HETATM    2  C   UNL     1     -21.151  -8.226  -2.963  1.00  0.00     0.051 A 
HETATM    3  C   UNL     1     -21.405  -8.905  -1.756  1.00  0.00     0.102 A 
HETATM    4  C   UNL     1     -22.017  -8.196  -0.721  1.00  0.00     0.099 A 
HETATM    5  C   UNL     1     -22.352  -6.847  -0.895  1.00  0.00     0.040 A 
HETATM    6  C   UNL     1     -22.090  -6.194  -2.098  1.00  0.00     0.014 A 
ENDROOT
BRANCH   1   7
HETATM    7  C   UNL     1     -21.269  -6.173  -4.423  1.00  0.00     0.017 C 
HETATM    8  C   UNL     1     -22.014  -6.350  -5.524  1.00  0.00     0.083 C 
BRANCH   8   9
HETATM    9  C   UNL     1     -21.817  -5.470  -6.692  1.00  0.00     0.282 C 
HETATM   10  O   UNL     1     -22.480  -4.481  -6.954  1.00  0.00    -0.260 OA
BRANCH   9  11
HETATM   11  O   UNL     1     -20.861  -6.042  -7.464  1.00  0.00    -0.319 OA
BRANCH  11  12
HETATM   12  C   UNL     1     -20.090  -5.129  -8.256  1.00  0.00     0.174 C 
HETATM   13  C   UNL     1     -19.031  -4.510  -7.361  1.00  0.00     0.034 C 
ENDBRANCH  11  12
ENDBRANCH   9  11
ENDBRANCH   8   9
ENDBRANCH   1   7
BRANCH   3  14
HETATM   14  O   UNL     1     -20.994 -10.202  -1.834  1.00  0.00    -0.353 OA
HETATM   15  C   UNL     1     -19.677 -10.588  -1.504  1.00  0.00     0.210 C 
ENDBRANCH   3  14
BRANCH   4  16
HETATM   16  O   UNL     1     -22.361  -8.675   0.509  1.00  0.00    -0.358 OA
HETATM   17  H   UNL     1     -22.777  -7.985   1.035  1.00  0.00     0.217 HD
ENDBRANCH   4  16
TORSDOF 6
ENDMDL
MODEL 7
REMARK VINA RESULT:      -6.1      2.893      4.816
REMARK  6 active torsions:
REMARK  status: ('A' for Active; 'I' for Inactive)
REMARK    1  A    between atoms: C_2  and  O_3 
REMARK    2  A    between atoms: O_3  and  C_4 
REMARK    3  A    between atoms: C_4  and  C_6 
REMARK    4  A    between atoms: C_7  and  C_8 
REMARK    5  A    between atoms: C_10  and  O_15 
REMARK    6  A    between atoms: C_11  and  O_14 
ROOT
HETATM    1  C   UNL     1     -21.083  -4.955  -6.729  1.00  0.00    -0.033 A 
HETATM    2  C   UNL     1     -22.180  -4.389  -7.392  1.00  0.00     0.051 A 
HETATM    3  C   UNL     1     -22.159  -4.090  -8.767  1.00  0.00     0.102 A 
HETATM    4  C   UNL     1     -20.990  -4.361  -9.480  1.00  0.00     0.099 A 
HETATM    5  C   UNL     1     -19.878  -4.904  -8.825  1.00  0.00     0.040 A 
HETATM    6  C   UNL     1     -19.919  -5.191  -7.463  1.00  0.00     0.014 A 
ENDROOT
BRANCH   1   7
HETATM    7  C   UNL     1     -21.101  -5.299  -5.301  1.00  0.00     0.017 C 
HETATM    8  C   UNL     1     -21.937  -6.199  -4.763  1.00  0.00     0.083 C 
BRANCH   8   9
HETATM    9  C   UNL     1     -21.770  -6.606  -3.355  1.00  0.00     0.282 C 
HETATM   10  O   UNL     1     -22.176  -5.988  -2.386  1.00  0.00    -0.260 OA
BRANCH   9  11
HETATM   11  O   UNL     1     -20.979  -7.707  -3.351  1.00  0.00    -0.319 OA
BRANCH  11  12
HETATM   12  C   UNL     1     -20.418  -8.050  -2.077  1.00  0.00     0.174 C 
HETATM   13  C   UNL     1     -21.133  -9.289  -1.567  1.00  0.00     0.034 C 
ENDBRANCH  11  12
ENDBRANCH   9  11
ENDBRANCH   8   9
ENDBRANCH   1   7
BRANCH   3  14
HETATM   14  O   UNL     1     -23.357  -3.576  -9.169  1.00  0.00    -0.353 OA
HETATM   15  C   UNL     1     -24.281  -4.334  -9.919  1.00  0.00     0.210 C 
ENDBRANCH   3  14
BRANCH   4  16
HETATM   16  O   UNL     1     -20.779  -4.161 -10.813  1.00  0.00    -0.358 OA
HETATM   17  H   UNL     1     -20.690  -5.003 -11.269  1.00  0.00     0.217 HD
ENDBRANCH   4  16
TORSDOF 6
ENDMDL
MODEL 8
REMARK VINA RESULT:      -5.8      3.548      6.396
REMARK  6 active torsions:
REMARK  status: ('A' for Active; 'I' for Inactive)
REMARK    1  A    between atoms: C_2  and  O_3 
REMARK    2  A    between atoms: O_3  and  C_4 
REMARK    3  A    between atoms: C_4  and  C_6 
REMARK    4  A    between atoms: C_7  and  C_8 
REMARK    5  A    between atoms: C_10  and  O_15 
REMARK    6  A    between atoms: C_11  and  O_14 
ROOT
HETATM    1  C   UNL     1     -21.315  -6.641  -5.536  1.00  0.00    -0.033 A 
HETATM    2  C   UNL     1     -22.269  -5.762  -6.065  1.00  0.00     0.051 A 
HETATM    3  C   UNL     1     -21.969  -4.856  -7.100  1.00  0.00     0.102 A 
HETATM    4  C   UNL     1     -20.664  -4.834  -7.596  1.00  0.00     0.099 A 
HETATM    5  C   UNL     1     -19.695  -5.690  -7.059  1.00  0.00     0.040 A 
HETATM    6  C   UNL     1     -20.012  -6.578  -6.034  1.00  0.00     0.014 A 
ENDROOT
BRANCH   1   7
HETATM    7  C   UNL     1     -21.621  -7.611  -4.476  1.00  0.00     0.017 C 
HETATM    8  C   UNL     1     -20.925  -7.711  -3.335  1.00  0.00     0.083 C 
BRANCH   8   9
HETATM    9  C   UNL     1     -21.407  -8.594  -2.257  1.00  0.00     0.282 C 
HETATM   10  O   UNL     1     -21.941  -9.679  -2.415  1.00  0.00    -0.260 OA
BRANCH   9  11
HETATM   11  O   UNL     1     -21.261  -7.917  -1.092  1.00  0.00    -0.319 OA
BRANCH  11  12
HETATM   12  C   UNL     1     -22.428  -7.216  -0.643  1.00  0.00     0.174 C 
HETATM   13  C   UNL     1     -23.059  -8.023   0.478  1.00  0.00     0.034 C 
ENDBRANCH  11  12
ENDBRANCH   9  11
ENDBRANCH   8   9
ENDBRANCH   1   7
BRANCH   3  14
HETATM   14  O   UNL     1     -23.075  -4.139  -7.451  1.00  0.00    -0.353 OA
HETATM   15  C   UNL     1     -23.552  -4.107  -8.778  1.00  0.00     0.210 C 
ENDBRANCH   3  14
BRANCH   4  16
HETATM   16  O   UNL     1     -20.183  -4.047  -8.601  1.00  0.00    -0.358 OA
HETATM   17  H   UNL     1     -20.776  -4.068  -9.358  1.00  0.00     0.217 HD
ENDBRANCH   4  16
TORSDOF 6
ENDMDL
MODEL 9
REMARK VINA RESULT:      -5.7      6.096      8.992
REMARK  6 active torsions:
REMARK  status: ('A' for Active; 'I' for Inactive)
REMARK    1  A    between atoms: C_2  and  O_3 
REMARK    2  A    between atoms: O_3  and  C_4 
REMARK    3  A    between atoms: C_4  and  C_6 
REMARK    4  A    between atoms: C_7  and  C_8 
REMARK    5  A    between atoms: C_10  and  O_15 
REMARK    6  A    between atoms: C_11  and  O_14 
ROOT
HETATM    1  C   UNL     1     -21.020  -7.639  -3.121  1.00  0.00    -0.033 A 
HETATM    2  C   UNL     1     -20.168  -8.344  -3.981  1.00  0.00     0.051 A 
HETATM    3  C   UNL     1     -19.943  -7.949  -5.313  1.00  0.00     0.102 A 
HETATM    4  C   UNL     1     -20.613  -6.819  -5.784  1.00  0.00     0.099 A 
HETATM    5  C   UNL     1     -21.487  -6.119  -4.943  1.00  0.00     0.040 A 
HETATM    6  C   UNL     1     -21.696  -6.527  -3.628  1.00  0.00     0.014 A 
ENDROOT
BRANCH   1   7
HETATM    7  C   UNL     1     -21.241  -8.023  -1.720  1.00  0.00     0.017 C 
HETATM    8  C   UNL     1     -22.255  -7.562  -0.974  1.00  0.00     0.083 C 
BRANCH   8   9
HETATM    9  C   UNL     1     -22.498  -8.132   0.365  1.00  0.00     0.282 C 
HETATM   10  O   UNL     1     -21.863  -7.870   1.372  1.00  0.00    -0.260 OA
BRANCH   9  11
HETATM   11  O   UNL     1     -23.459  -9.079   0.226  1.00  0.00    -0.319 OA
BRANCH  11  12
HETATM   12  C   UNL     1     -22.975 -10.413   0.025  1.00  0.00     0.174 C 
HETATM   13  C   UNL     1     -24.101 -11.236  -0.575  1.00  0.00     0.034 C 
ENDBRANCH  11  12
ENDBRANCH   9  11
ENDBRANCH   8   9
ENDBRANCH   1   7
BRANCH   3  14
HETATM   14  O   UNL     1     -19.054  -8.784  -5.923  1.00  0.00    -0.353 OA
HETATM   15  C   UNL     1     -18.569  -9.948  -5.289  1.00  0.00     0.210 C 
ENDBRANCH   3  14
BRANCH   4  16
HETATM   16  O   UNL     1     -20.517  -6.269  -7.029  1.00  0.00    -0.358 OA
HETATM   17  H   UNL     1     -21.316  -5.776  -7.242  1.00  0.00     0.217 HD
ENDBRANCH   4  16
TORSDOF 6
ENDMDL
