MODEL 1
REMARK VINA RESULT:      -7.8      0.000      0.000
REMARK  7 active torsions:
REMARK  status: ('A' for Active; 'I' for Inactive)
REMARK    1  A    between atoms: C_2  and  C_3 
REMARK    2  A    between atoms: C_3  and  C_4 
REMARK    3  A    between atoms: C_3  and  C_28 
REMARK    4  A    between atoms: C_4  and  C_5 
REMARK    5  A    between atoms: C_5  and  C_6 
REMARK    6  A    between atoms: C_6  and  C_8 
REMARK    7  A    between atoms: C_23  and  O_25 
ROOT
HETATM    1  C   UNL     1     -22.771 -10.153  -0.892  1.00  0.00    -0.002 C 
HETATM    2  C   UNL     1     -23.417  -9.247   0.219  1.00  0.00     0.006 C 
HETATM    3  C   UNL     1     -22.273  -8.443   0.855  1.00  0.00     0.006 C 
HETATM    4  C   UNL     1     -21.111  -8.630  -0.115  1.00  0.00    -0.001 C 
HETATM    5  C   UNL     1     -21.250 -10.175  -0.435  1.00  0.00    -0.036 C 
HETATM    6  C   UNL     1     -19.992 -10.430  -1.293  1.00  0.00     0.010 C 
HETATM    7  C   UNL     1     -19.896  -9.705  -2.616  1.00  0.00     0.007 C 
HETATM    8  C   UNL     1     -20.292  -8.203  -2.646  1.00  0.00     0.003 C 
HETATM    9  C   UNL     1     -21.267  -7.831  -1.482  1.00  0.00    -0.001 C 
HETATM   10  C   UNL     1     -21.642  -6.357  -1.449  1.00  0.00     0.033 C 
HETATM   11  C   UNL     1     -22.271  -6.035  -2.791  1.00  0.00    -0.023 C 
HETATM   12  C   UNL     1     -22.002  -6.696  -3.931  1.00  0.00    -0.072 C 
HETATM   13  C   UNL     1     -20.910  -7.765  -4.087  1.00  0.00    -0.017 C 
HETATM   14  C   UNL     1     -19.845  -7.087  -5.007  1.00  0.00     0.016 C 
HETATM   15  C   UNL     1     -20.452  -6.594  -6.345  1.00  0.00     0.033 C 
HETATM   16  C   UNL     1     -21.635  -5.640  -6.118  1.00  0.00     0.122 C 
HETATM   17  C   UNL     1     -22.700  -6.270  -5.208  1.00  0.00     0.066 C 
HETATM   18  C   UNL     1     -21.425  -9.007  -4.876  1.00  0.00     0.020 C 
HETATM   19  C   UNL     1     -21.129 -11.164   0.750  1.00  0.00     0.016 C 
ENDROOT
BRANCH   1  20
HETATM   20  C   UNL     1     -23.727 -11.251  -1.408  1.00  0.00    -0.014 C 
HETATM   21  C   UNL     1     -23.800 -12.382  -0.384  1.00  0.00     0.010 C 
BRANCH  20  22
HETATM   22  C   UNL     1     -23.121 -11.809  -2.778  1.00  0.00     0.005 C 
BRANCH  22  23
HETATM   23  C   UNL     1     -22.661 -13.271  -2.755  1.00  0.00     0.005 C 
BRANCH  23  24
HETATM   24  C   UNL     1     -21.378 -13.622  -3.575  1.00  0.00    -0.012 C 
BRANCH  24  25
HETATM   25  C   UNL     1     -20.117 -13.881  -2.704  1.00  0.00     0.000 C 
HETATM   26  C   UNL     1     -20.390 -14.185  -1.239  1.00  0.00     0.005 C 
ENDBRANCH  24  25
BRANCH  24  27
HETATM   27  C   UNL     1     -21.048 -12.612  -4.724  1.00  0.00    -0.019 C 
HETATM   28  C   UNL     1     -19.538 -12.532  -5.011  1.00  0.00     0.010 C 
HETATM   29  C   UNL     1     -21.754 -12.964  -6.039  1.00  0.00     0.010 C 
ENDBRANCH  24  27
ENDBRANCH  23  24
ENDBRANCH  22  23
ENDBRANCH  20  22
ENDBRANCH   1  20
BRANCH  16  30
HETATM   30  O   UNL     1     -22.201  -5.248  -7.363  1.00  0.00    -0.395 OA
HETATM   31  H   UNL     1     -22.407  -6.061  -7.869  1.00  0.00     0.210 HD
ENDBRANCH  16  30
TORSDOF 7
ENDMDL
MODEL 2
REMARK VINA RESULT:      -7.4      2.069      4.318
REMARK  7 active torsions:
REMARK  status: ('A' for Active; 'I' for Inactive)
REMARK    1  A    between atoms: C_2  and  C_3 
REMARK    2  A    between atoms: C_3  and  C_4 
REMARK    3  A    between atoms: C_3  and  C_28 
REMARK    4  A    between atoms: C_4  and  C_5 
REMARK    5  A    between atoms: C_5  and  C_6 
REMARK    6  A    between atoms: C_6  and  C_8 
REMARK    7  A    between atoms: C_23  and  O_25 
ROOT
HETATM    1  C   UNL     1     -20.085 -12.657  -1.273  1.00  0.00    -0.002 C 
HETATM    2  C   UNL     1     -20.758 -13.675  -2.265  1.00  0.00     0.006 C 
HETATM    3  C   UNL     1     -22.271 -13.610  -2.005  1.00  0.00     0.006 C 
HETATM    4  C   UNL     1     -22.446 -12.346  -1.169  1.00  0.00    -0.001 C 
HETATM    5  C   UNL     1     -21.220 -12.488  -0.175  1.00  0.00    -0.036 C 
HETATM    6  C   UNL     1     -21.459 -11.304   0.785  1.00  0.00     0.010 C 
HETATM    7  C   UNL     1     -21.402  -9.912   0.198  1.00  0.00     0.007 C 
HETATM    8  C   UNL     1     -22.111  -9.673  -1.163  1.00  0.00     0.003 C 
HETATM    9  C   UNL     1     -22.259 -10.993  -1.986  1.00  0.00    -0.001 C 
HETATM   10  C   UNL     1     -22.991 -10.809  -3.307  1.00  0.00     0.033 C 
HETATM   11  C   UNL     1     -22.213  -9.775  -4.098  1.00  0.00    -0.023 C 
HETATM   12  C   UNL     1     -21.449  -8.816  -3.545  1.00  0.00    -0.072 C 
HETATM   13  C   UNL     1     -21.370  -8.518  -2.040  1.00  0.00    -0.017 C 
HETATM   14  C   UNL     1     -22.064  -7.126  -1.893  1.00  0.00     0.016 C 
HETATM   15  C   UNL     1     -21.413  -6.046  -2.792  1.00  0.00     0.033 C 
HETATM   16  C   UNL     1     -21.391  -6.469  -4.269  1.00  0.00     0.122 C 
HETATM   17  C   UNL     1     -20.724  -7.841  -4.452  1.00  0.00     0.066 C 
HETATM   18  C   UNL     1     -19.900  -8.312  -1.567  1.00  0.00     0.020 C 
HETATM   19  C   UNL     1     -21.182 -13.738   0.737  1.00  0.00     0.016 C 
ENDROOT
BRANCH   1  20
HETATM   20  C   UNL     1     -18.553 -12.828  -1.180  1.00  0.00    -0.014 C 
HETATM   21  C   UNL     1     -18.014 -11.962  -0.043  1.00  0.00     0.010 C 
BRANCH  20  22
HETATM   22  C   UNL     1     -17.930 -12.336  -2.567  1.00  0.00     0.005 C 
BRANCH  22  23
HETATM   23  C   UNL     1     -18.731 -11.266  -3.315  1.00  0.00     0.005 C 
BRANCH  23  24
HETATM   24  C   UNL     1     -17.917 -10.228  -4.153  1.00  0.00    -0.012 C 
BRANCH  24  25
HETATM   25  C   UNL     1     -18.241 -10.242  -5.672  1.00  0.00     0.000 C 
HETATM   26  C   UNL     1     -19.113 -11.397  -6.141  1.00  0.00     0.005 C 
ENDBRANCH  24  25
BRANCH  24  27
HETATM   27  C   UNL     1     -16.370 -10.284  -3.925  1.00  0.00    -0.019 C 
HETATM   28  C   UNL     1     -15.584  -9.873  -5.183  1.00  0.00     0.010 C 
HETATM   29  C   UNL     1     -15.910  -9.383  -2.773  1.00  0.00     0.010 C 
ENDBRANCH  24  27
ENDBRANCH  23  24
ENDBRANCH  22  23
ENDBRANCH  20  22
ENDBRANCH   1  20
BRANCH  16  30
HETATM   30  O   UNL     1     -20.741  -5.481  -5.059  1.00  0.00    -0.395 OA
HETATM   31  H   UNL     1     -21.160  -4.617  -4.864  1.00  0.00     0.210 HD
ENDBRANCH  16  30
TORSDOF 7
ENDMDL
MODEL 3
REMARK VINA RESULT:      -7.4      1.633      3.126
REMARK  7 active torsions:
REMARK  status: ('A' for Active; 'I' for Inactive)
REMARK    1  A    between atoms: C_2  and  C_3 
REMARK    2  A    between atoms: C_3  and  C_4 
REMARK    3  A    between atoms: C_3  and  C_28 
REMARK    4  A    between atoms: C_4  and  C_5 
REMARK    5  A    between atoms: C_5  and  C_6 
REMARK    6  A    between atoms: C_6  and  C_8 
REMARK    7  A    between atoms: C_23  and  O_25 
ROOT
HETATM    1  C   UNL     1     -22.108 -10.302  -1.305  1.00  0.00    -0.002 C 
HETATM    2  C   UNL     1     -22.841  -9.565  -0.125  1.00  0.00     0.006 C 
HETATM    3  C   UNL     1     -21.812  -8.620   0.512  1.00  0.00     0.006 C 
HETATM    4  C   UNL     1     -20.677  -8.572  -0.507  1.00  0.00    -0.001 C 
HETATM    5  C   UNL     1     -20.584 -10.103  -0.904  1.00  0.00    -0.036 C 
HETATM    6  C   UNL     1     -19.341 -10.113  -1.818  1.00  0.00     0.010 C 
HETATM    7  C   UNL     1     -19.418  -9.320  -3.103  1.00  0.00     0.007 C 
HETATM    8  C   UNL     1     -20.046  -7.901  -3.038  1.00  0.00     0.003 C 
HETATM    9  C   UNL     1     -21.016  -7.745  -1.823  1.00  0.00    -0.001 C 
HETATM   10  C   UNL     1     -21.617  -6.353  -1.698  1.00  0.00     0.033 C 
HETATM   11  C   UNL     1     -22.347  -6.073  -2.998  1.00  0.00    -0.023 C 
HETATM   12  C   UNL     1     -22.027  -6.628  -4.181  1.00  0.00    -0.072 C 
HETATM   13  C   UNL     1     -20.787  -7.501  -4.432  1.00  0.00    -0.017 C 
HETATM   14  C   UNL     1     -19.883  -6.619  -5.351  1.00  0.00     0.016 C 
HETATM   15  C   UNL     1     -20.618  -6.166  -6.638  1.00  0.00     0.033 C 
HETATM   16  C   UNL     1     -21.925  -5.425  -6.320  1.00  0.00     0.122 C 
HETATM   17  C   UNL     1     -22.837  -6.259  -5.407  1.00  0.00     0.066 C 
HETATM   18  C   UNL     1     -21.133  -8.769  -5.267  1.00  0.00     0.020 C 
HETATM   19  C   UNL     1     -20.258 -11.115   0.221  1.00  0.00     0.016 C 
ENDROOT
BRANCH   1  20
HETATM   20  C   UNL     1     -22.901 -11.513  -1.846  1.00  0.00    -0.014 C 
HETATM   21  C   UNL     1     -23.345 -11.230  -3.280  1.00  0.00     0.010 C 
BRANCH  20  22
HETATM   22  C   UNL     1     -24.188 -11.697  -0.916  1.00  0.00     0.005 C 
BRANCH  22  23
HETATM   23  C   UNL     1     -23.919 -12.221   0.498  1.00  0.00     0.005 C 
BRANCH  23  24
HETATM   24  C   UNL     1     -23.121 -13.559   0.618  1.00  0.00    -0.012 C 
BRANCH  24  25
HETATM   25  C   UNL     1     -23.787 -14.764  -0.101  1.00  0.00     0.000 C 
HETATM   26  C   UNL     1     -23.084 -15.238  -1.365  1.00  0.00     0.005 C 
ENDBRANCH  24  25
BRANCH  24  27
HETATM   27  C   UNL     1     -22.727 -13.948   2.082  1.00  0.00    -0.019 C 
HETATM   28  C   UNL     1     -23.920 -14.517   2.871  1.00  0.00     0.010 C 
HETATM   29  C   UNL     1     -21.598 -14.984   2.134  1.00  0.00     0.010 C 
ENDBRANCH  24  27
ENDBRANCH  23  24
ENDBRANCH  22  23
ENDBRANCH  20  22
ENDBRANCH   1  20
BRANCH  16  30
HETATM   30  O   UNL     1     -22.599  -5.069  -7.521  1.00  0.00    -0.395 OA
HETATM   31  H   UNL     1     -23.243  -4.363  -7.305  1.00  0.00     0.210 HD
ENDBRANCH  16  30
TORSDOF 7
ENDMDL
MODEL 4
REMARK VINA RESULT:      -7.1      2.743      4.743
REMARK  7 active torsions:
REMARK  status: ('A' for Active; 'I' for Inactive)
REMARK    1  A    between atoms: C_2  and  C_3 
REMARK    2  A    between atoms: C_3  and  C_4 
REMARK    3  A    between atoms: C_3  and  C_28 
REMARK    4  A    between atoms: C_4  and  C_5 
REMARK    5  A    between atoms: C_5  and  C_6 
REMARK    6  A    between atoms: C_6  and  C_8 
REMARK    7  A    between atoms: C_23  and  O_25 
ROOT
HETATM    1  C   UNL     1     -21.578 -10.566  -0.143  1.00  0.00    -0.002 C 
HETATM    2  C   UNL     1     -22.598 -11.756  -0.269  1.00  0.00     0.006 C 
HETATM    3  C   UNL     1     -23.630 -11.343  -1.329  1.00  0.00     0.006 C 
HETATM    4  C   UNL     1     -22.990 -10.139  -2.014  1.00  0.00    -0.001 C 
HETATM    5  C   UNL     1     -22.417  -9.365  -0.756  1.00  0.00    -0.036 C 
HETATM    6  C   UNL     1     -21.899  -8.063  -1.402  1.00  0.00     0.010 C 
HETATM    7  C   UNL     1     -20.774  -8.185  -2.405  1.00  0.00     0.007 C 
HETATM    8  C   UNL     1     -20.865  -9.326  -3.455  1.00  0.00     0.003 C 
HETATM    9  C   UNL     1     -21.767 -10.503  -2.964  1.00  0.00    -0.001 C 
HETATM   10  C   UNL     1     -21.919 -11.621  -3.985  1.00  0.00     0.033 C 
HETATM   11  C   UNL     1     -20.521 -12.119  -4.300  1.00  0.00    -0.023 C 
HETATM   12  C   UNL     1     -19.409 -11.370  -4.195  1.00  0.00    -0.072 C 
HETATM   13  C   UNL     1     -19.393  -9.863  -3.898  1.00  0.00    -0.017 C 
HETATM   14  C   UNL     1     -18.904  -9.219  -5.234  1.00  0.00     0.016 C 
HETATM   15  C   UNL     1     -17.543  -9.792  -5.701  1.00  0.00     0.033 C 
HETATM   16  C   UNL     1     -17.585 -11.321  -5.839  1.00  0.00     0.122 C 
HETATM   17  C   UNL     1     -18.071 -11.991  -4.544  1.00  0.00     0.066 C 
HETATM   18  C   UNL     1     -18.318  -9.496  -2.831  1.00  0.00     0.020 C 
HETATM   19  C   UNL     1     -23.428  -8.900   0.319  1.00  0.00     0.016 C 
ENDROOT
BRANCH   1  20
HETATM   20  C   UNL     1     -20.666 -10.682   1.099  1.00  0.00    -0.014 C 
HETATM   21  C   UNL     1     -20.582  -9.324   1.795  1.00  0.00     0.010 C 
BRANCH  20  22
HETATM   22  C   UNL     1     -19.213 -11.110   0.589  1.00  0.00     0.005 C 
BRANCH  22  23
HETATM   23  C   UNL     1     -19.173 -12.271  -0.411  1.00  0.00     0.005 C 
BRANCH  23  24
HETATM   24  C   UNL     1     -17.765 -12.837  -0.784  1.00  0.00    -0.012 C 
BRANCH  24  25
HETATM   25  C   UNL     1     -17.432 -14.202  -0.122  1.00  0.00     0.000 C 
HETATM   26  C   UNL     1     -18.520 -14.772   0.776  1.00  0.00     0.005 C 
ENDBRANCH  24  25
BRANCH  24  27
HETATM   27  C   UNL     1     -16.587 -11.828  -0.575  1.00  0.00    -0.019 C 
HETATM   28  C   UNL     1     -15.743 -12.172   0.665  1.00  0.00     0.010 C 
HETATM   29  C   UNL     1     -15.642 -11.767  -1.780  1.00  0.00     0.010 C 
ENDBRANCH  24  27
ENDBRANCH  23  24
ENDBRANCH  22  23
ENDBRANCH  20  22
ENDBRANCH   1  20
BRANCH  16  30
HETATM   30  O   UNL     1     -16.307 -11.821  -6.217  1.00  0.00    -0.395 OA
HETATM   31  H   UNL     1     -15.628 -11.233  -5.827  1.00  0.00     0.210 HD
ENDBRANCH  16  30
TORSDOF 7
ENDMDL
MODEL 5
REMARK VINA RESULT:      -7.0      2.305      5.109
REMARK  7 active torsions:
REMARK  status: ('A' for Active; 'I' for Inactive)
REMARK    1  A    between atoms: C_2  and  C_3 
REMARK    2  A    between atoms: C_3  and  C_4 
REMARK    3  A    between atoms: C_3  and  C_28 
REMARK    4  A    between atoms: C_4  and  C_5 
REMARK    5  A    between atoms: C_5  and  C_6 
REMARK    6  A    between atoms: C_6  and  C_8 
REMARK    7  A    between atoms: C_23  and  O_25 
ROOT
HETATM    1  C   UNL     1     -19.609 -12.332  -4.833  1.00  0.00    -0.002 C 
HETATM    2  C   UNL     1     -18.889 -13.447  -3.989  1.00  0.00     0.006 C 
HETATM    3  C   UNL     1     -17.597 -12.821  -3.441  1.00  0.00     0.006 C 
HETATM    4  C   UNL     1     -17.790 -11.325  -3.669  1.00  0.00    -0.001 C 
HETATM    5  C   UNL     1     -18.410 -11.334  -5.127  1.00  0.00    -0.036 C 
HETATM    6  C   UNL     1     -18.472  -9.826  -5.449  1.00  0.00     0.010 C 
HETATM    7  C   UNL     1     -19.369  -8.969  -4.586  1.00  0.00     0.007 C 
HETATM    8  C   UNL     1     -19.335  -9.206  -3.051  1.00  0.00     0.003 C 
HETATM    9  C   UNL     1     -18.848 -10.647  -2.693  1.00  0.00    -0.001 C 
HETATM   10  C   UNL     1     -18.756 -10.905  -1.196  1.00  0.00     0.033 C 
HETATM   11  C   UNL     1     -20.139 -10.654  -0.624  1.00  0.00    -0.023 C 
HETATM   12  C   UNL     1     -21.045  -9.823  -1.170  1.00  0.00    -0.072 C 
HETATM   13  C   UNL     1     -20.772  -8.886  -2.355  1.00  0.00    -0.017 C 
HETATM   14  C   UNL     1     -20.819  -7.457  -1.726  1.00  0.00     0.016 C 
HETATM   15  C   UNL     1     -22.154  -7.182  -0.989  1.00  0.00     0.033 C 
HETATM   16  C   UNL     1     -22.440  -8.240   0.087  1.00  0.00     0.122 C 
HETATM   17  C   UNL     1     -22.392  -9.662  -0.494  1.00  0.00     0.066 C 
HETATM   18  C   UNL     1     -21.924  -8.927  -3.403  1.00  0.00     0.020 C 
HETATM   19  C   UNL     1     -17.555 -11.948  -6.263  1.00  0.00     0.016 C 
ENDROOT
BRANCH   1  20
HETATM   20  C   UNL     1     -20.754 -12.885  -5.711  1.00  0.00    -0.014 C 
HETATM   21  C   UNL     1     -21.324 -11.757  -6.569  1.00  0.00     0.010 C 
BRANCH  20  22
HETATM   22  C   UNL     1     -21.889 -13.435  -4.730  1.00  0.00     0.005 C 
BRANCH  22  23
HETATM   23  C   UNL     1     -22.257 -12.519  -3.557  1.00  0.00     0.005 C 
BRANCH  23  24
HETATM   24  C   UNL     1     -22.238 -13.154  -2.130  1.00  0.00    -0.012 C 
BRANCH  24  25
HETATM   25  C   UNL     1     -21.543 -14.541  -2.059  1.00  0.00     0.000 C 
HETATM   26  C   UNL     1     -20.489 -14.686  -0.972  1.00  0.00     0.005 C 
ENDBRANCH  24  25
BRANCH  24  27
HETATM   27  C   UNL     1     -23.636 -13.208  -1.428  1.00  0.00    -0.019 C 
HETATM   28  C   UNL     1     -24.308 -14.584  -1.580  1.00  0.00     0.010 C 
HETATM   29  C   UNL     1     -23.556 -12.892   0.070  1.00  0.00     0.010 C 
ENDBRANCH  24  27
ENDBRANCH  23  24
ENDBRANCH  22  23
ENDBRANCH  20  22
ENDBRANCH   1  20
BRANCH  16  30
HETATM   30  O   UNL     1     -23.696  -7.989   0.708  1.00  0.00    -0.395 OA
HETATM   31  H   UNL     1     -24.084  -7.194   0.288  1.00  0.00     0.210 HD
ENDBRANCH  16  30
TORSDOF 7
ENDMDL
MODEL 6
REMARK VINA RESULT:      -7.0      2.259      5.154
REMARK  7 active torsions:
REMARK  status: ('A' for Active; 'I' for Inactive)
REMARK    1  A    between atoms: C_2  and  C_3 
REMARK    2  A    between atoms: C_3  and  C_4 
REMARK    3  A    between atoms: C_3  and  C_28 
REMARK    4  A    between atoms: C_4  and  C_5 
REMARK    5  A    between atoms: C_5  and  C_6 
REMARK    6  A    between atoms: C_6  and  C_8 
REMARK    7  A    between atoms: C_23  and  O_25 
ROOT
HETATM    1  C   UNL     1     -19.769 -13.505  -1.318  1.00  0.00    -0.002 C 
HETATM    2  C   UNL     1     -19.913 -13.926  -2.827  1.00  0.00     0.006 C 
HETATM    3  C   UNL     1     -21.389 -14.293  -3.043  1.00  0.00     0.006 C 
HETATM    4  C   UNL     1     -22.090 -13.744  -1.804  1.00  0.00    -0.001 C 
HETATM    5  C   UNL     1     -21.060 -14.173  -0.679  1.00  0.00    -0.036 C 
HETATM    6  C   UNL     1     -21.816 -13.769   0.604  1.00  0.00     0.010 C 
HETATM    7  C   UNL     1     -22.111 -12.300   0.803  1.00  0.00     0.007 C 
HETATM    8  C   UNL     1     -22.629 -11.496  -0.421  1.00  0.00     0.003 C 
HETATM    9  C   UNL     1     -22.214 -12.158  -1.774  1.00  0.00    -0.001 C 
HETATM   10  C   UNL     1     -22.743 -11.426  -2.999  1.00  0.00     0.033 C 
HETATM   11  C   UNL     1     -22.218 -10.005  -2.919  1.00  0.00    -0.023 C 
HETATM   12  C   UNL     1     -21.899  -9.378  -1.772  1.00  0.00    -0.072 C 
HETATM   13  C   UNL     1     -22.164  -9.937  -0.366  1.00  0.00    -0.017 C 
HETATM   14  C   UNL     1     -23.279  -9.006   0.208  1.00  0.00     0.016 C 
HETATM   15  C   UNL     1     -22.869  -7.512   0.181  1.00  0.00     0.033 C 
HETATM   16  C   UNL     1     -22.476  -7.053  -1.231  1.00  0.00     0.122 C 
HETATM   17  C   UNL     1     -21.386  -7.953  -1.834  1.00  0.00     0.066 C 
HETATM   18  C   UNL     1     -20.932  -9.753   0.570  1.00  0.00     0.020 C 
HETATM   19  C   UNL     1     -20.774 -15.685  -0.512  1.00  0.00     0.016 C 
ENDROOT
BRANCH   1  20
HETATM   20  C   UNL     1     -18.298 -13.412  -0.855  1.00  0.00    -0.014 C 
HETATM   21  C   UNL     1     -18.136 -14.151   0.472  1.00  0.00     0.010 C 
BRANCH  20  22
HETATM   22  C   UNL     1     -17.957 -11.865  -0.649  1.00  0.00     0.005 C 
BRANCH  22  23
HETATM   23  C   UNL     1     -18.647 -10.895  -1.614  1.00  0.00     0.005 C 
BRANCH  23  24
HETATM   24  C   UNL     1     -18.014 -10.739  -3.034  1.00  0.00    -0.012 C 
BRANCH  24  25
HETATM   25  C   UNL     1     -16.897  -9.663  -3.118  1.00  0.00     0.000 C 
HETATM   26  C   UNL     1     -15.682 -10.049  -3.949  1.00  0.00     0.005 C 
ENDBRANCH  24  25
BRANCH  24  27
HETATM   27  C   UNL     1     -19.053 -10.537  -4.187  1.00  0.00    -0.019 C 
HETATM   28  C   UNL     1     -19.112  -9.075  -4.664  1.00  0.00     0.010 C 
HETATM   29  C   UNL     1     -18.756 -11.414  -5.409  1.00  0.00     0.010 C 
ENDBRANCH  24  27
ENDBRANCH  23  24
ENDBRANCH  22  23
ENDBRANCH  20  22
ENDBRANCH   1  20
BRANCH  16  30
HETATM   30  O   UNL     1     -22.056  -5.694  -1.212  1.00  0.00    -0.395 OA
HETATM   31  H   UNL     1     -22.837  -5.135  -1.406  1.00  0.00     0.210 HD
ENDBRANCH  16  30
TORSDOF 7
ENDMDL
MODEL 7
REMARK VINA RESULT:      -6.8      2.856      7.067
REMARK  7 active torsions:
REMARK  status: ('A' for Active; 'I' for Inactive)
REMARK    1  A    between atoms: C_2  and  C_3 
REMARK    2  A    between atoms: C_3  and  C_4 
REMARK    3  A    between atoms: C_3  and  C_28 
REMARK    4  A    between atoms: C_4  and  C_5 
REMARK    5  A    between atoms: C_5  and  C_6 
REMARK    6  A    between atoms: C_6  and  C_8 
REMARK    7  A    between atoms: C_23  and  O_25 
ROOT
HETATM    1  C   UNL     1     -19.254 -10.349  -4.109  1.00  0.00    -0.002 C 
HETATM    2  C   UNL     1     -20.338  -9.623  -4.987  1.00  0.00     0.006 C 
HETATM    3  C   UNL     1     -20.977 -10.698  -5.879  1.00  0.00     0.006 C 
HETATM    4  C   UNL     1     -20.520 -12.012  -5.254  1.00  0.00    -0.001 C 
HETATM    5  C   UNL     1     -19.003 -11.673  -4.950  1.00  0.00    -0.036 C 
HETATM    6  C   UNL     1     -18.472 -13.036  -4.459  1.00  0.00     0.010 C 
HETATM    7  C   UNL     1     -19.069 -13.598  -3.189  1.00  0.00     0.007 C 
HETATM    8  C   UNL     1     -20.610 -13.509  -3.016  1.00  0.00     0.003 C 
HETATM    9  C   UNL     1     -21.230 -12.359  -3.872  1.00  0.00    -0.001 C 
HETATM   10  C   UNL     1     -22.745 -12.269  -3.766  1.00  0.00     0.033 C 
HETATM   11  C   UNL     1     -23.070 -12.072  -2.297  1.00  0.00    -0.023 C 
HETATM   12  C   UNL     1     -22.289 -12.492  -1.286  1.00  0.00    -0.072 C 
HETATM   13  C   UNL     1     -21.039 -13.369  -1.451  1.00  0.00    -0.017 C 
HETATM   14  C   UNL     1     -21.452 -14.739  -0.825  1.00  0.00     0.016 C 
HETATM   15  C   UNL     1     -21.942 -14.594   0.638  1.00  0.00     0.033 C 
HETATM   16  C   UNL     1     -23.099 -13.591   0.755  1.00  0.00     0.122 C 
HETATM   17  C   UNL     1     -22.733 -12.232   0.140  1.00  0.00     0.066 C 
HETATM   18  C   UNL     1     -19.850 -12.849  -0.589  1.00  0.00     0.020 C 
HETATM   19  C   UNL     1     -18.099 -11.304  -6.151  1.00  0.00     0.016 C 
ENDROOT
BRANCH   1  20
HETATM   20  C   UNL     1     -18.303  -9.368  -3.390  1.00  0.00    -0.014 C 
HETATM   21  C   UNL     1     -17.245 -10.158  -2.622  1.00  0.00     0.010 C 
BRANCH  20  22
HETATM   22  C   UNL     1     -19.181  -8.514  -2.363  1.00  0.00     0.005 C 
BRANCH  22  23
HETATM   23  C   UNL     1     -20.206  -9.306  -1.544  1.00  0.00     0.005 C 
BRANCH  23  24
HETATM   24  C   UNL     1     -21.631  -8.682  -1.399  1.00  0.00    -0.012 C 
BRANCH  24  25
HETATM   25  C   UNL     1     -21.931  -7.539  -2.406  1.00  0.00     0.000 C 
HETATM   26  C   UNL     1     -22.107  -6.159  -1.790  1.00  0.00     0.005 C 
ENDBRANCH  24  25
BRANCH  24  27
HETATM   27  C   UNL     1     -21.996  -8.237   0.056  1.00  0.00    -0.019 C 
HETATM   28  C   UNL     1     -23.445  -8.599   0.427  1.00  0.00     0.010 C 
HETATM   29  C   UNL     1     -21.076  -8.860   1.113  1.00  0.00     0.010 C 
ENDBRANCH  24  27
ENDBRANCH  23  24
ENDBRANCH  22  23
ENDBRANCH  20  22
ENDBRANCH   1  20
BRANCH  16  30
HETATM   30  O   UNL     1     -23.490 -13.442   2.115  1.00  0.00    -0.395 OA
HETATM   31  H   UNL     1     -22.880 -12.800   2.534  1.00  0.00     0.210 HD
ENDBRANCH  16  30
TORSDOF 7
ENDMDL
MODEL 8
REMARK VINA RESULT:      -6.8      3.589      6.546
REMARK  7 active torsions:
REMARK  status: ('A' for Active; 'I' for Inactive)
REMARK    1  A    between atoms: C_2  and  C_3 
REMARK    2  A    between atoms: C_3  and  C_4 
REMARK    3  A    between atoms: C_3  and  C_28 
REMARK    4  A    between atoms: C_4  and  C_5 
REMARK    5  A    between atoms: C_5  and  C_6 
REMARK    6  A    between atoms: C_6  and  C_8 
REMARK    7  A    between atoms: C_23  and  O_25 
ROOT
HETATM    1  C   UNL     1     -19.585 -10.067  -2.763  1.00  0.00    -0.002 C 
HETATM    2  C   UNL     1     -19.642  -8.672  -2.038  1.00  0.00     0.006 C 
HETATM    3  C   UNL     1     -21.003  -8.051  -2.384  1.00  0.00     0.006 C 
HETATM    4  C   UNL     1     -21.800  -9.213  -2.968  1.00  0.00    -0.001 C 
HETATM    5  C   UNL     1     -20.696  -9.886  -3.884  1.00  0.00    -0.036 C 
HETATM    6  C   UNL     1     -21.515 -10.974  -4.609  1.00  0.00     0.010 C 
HETATM    7  C   UNL     1     -22.121 -12.068  -3.760  1.00  0.00     0.007 C 
HETATM    8  C   UNL     1     -22.809 -11.652  -2.431  1.00  0.00     0.003 C 
HETATM    9  C   UNL     1     -22.267 -10.289  -1.893  1.00  0.00    -0.001 C 
HETATM   10  C   UNL     1     -22.949  -9.823  -0.615  1.00  0.00     0.033 C 
HETATM   11  C   UNL     1     -22.745 -10.919   0.414  1.00  0.00    -0.023 C 
HETATM   12  C   UNL     1     -22.565 -12.217   0.112  1.00  0.00    -0.072 C 
HETATM   13  C   UNL     1     -22.694 -12.815  -1.297  1.00  0.00    -0.017 C 
HETATM   14  C   UNL     1     -23.981 -13.696  -1.218  1.00  0.00     0.016 C 
HETATM   15  C   UNL     1     -23.907 -14.747  -0.083  1.00  0.00     0.033 C 
HETATM   16  C   UNL     1     -23.631 -14.096   1.281  1.00  0.00     0.122 C 
HETATM   17  C   UNL     1     -22.374 -13.213   1.240  1.00  0.00     0.066 C 
HETATM   18  C   UNL     1     -21.527 -13.797  -1.618  1.00  0.00     0.020 C 
HETATM   19  C   UNL     1     -20.087  -9.026  -5.017  1.00  0.00     0.016 C 
ENDROOT
BRANCH   1  20
HETATM   20  C   UNL     1     -18.167 -10.680  -2.782  1.00  0.00    -0.014 C 
HETATM   21  C   UNL     1     -17.942 -11.477  -1.498  1.00  0.00     0.010 C 
BRANCH  20  22
HETATM   22  C   UNL     1     -17.123  -9.472  -2.849  1.00  0.00     0.005 C 
BRANCH  22  23
HETATM   23  C   UNL     1     -15.924  -9.678  -3.780  1.00  0.00     0.005 C 
BRANCH  23  24
HETATM   24  C   UNL     1     -15.820 -11.058  -4.506  1.00  0.00    -0.012 C 
BRANCH  24  25
HETATM   25  C   UNL     1     -14.508 -11.835  -4.210  1.00  0.00     0.000 C 
HETATM   26  C   UNL     1     -14.573 -12.798  -3.034  1.00  0.00     0.005 C 
ENDBRANCH  24  25
BRANCH  24  27
HETATM   27  C   UNL     1     -16.084 -11.000  -6.047  1.00  0.00    -0.019 C 
HETATM   28  C   UNL     1     -15.122 -11.908  -6.834  1.00  0.00     0.010 C 
HETATM   29  C   UNL     1     -17.515 -11.406  -6.416  1.00  0.00     0.010 C 
ENDBRANCH  24  27
ENDBRANCH  23  24
ENDBRANCH  22  23
ENDBRANCH  20  22
ENDBRANCH   1  20
BRANCH  16  30
HETATM   30  O   UNL     1     -23.516 -15.091   2.292  1.00  0.00    -0.395 OA
HETATM   31  H   UNL     1     -24.385 -15.536   2.374  1.00  0.00     0.210 HD
ENDBRANCH  16  30
TORSDOF 7
ENDMDL
MODEL 9
REMARK VINA RESULT:      -6.7      4.470      7.642
REMARK  7 active torsions:
REMARK  status: ('A' for Active; 'I' for Inactive)
REMARK    1  A    between atoms: C_2  and  C_3 
REMARK    2  A    between atoms: C_3  and  C_4 
REMARK    3  A    between atoms: C_3  and  C_28 
REMARK    4  A    between atoms: C_4  and  C_5 
REMARK    5  A    between atoms: C_5  and  C_6 
REMARK    6  A    between atoms: C_6  and  C_8 
REMARK    7  A    between atoms: C_23  and  O_25 
ROOT
HETATM    1  C   UNL     1     -18.957 -11.191  -3.559  1.00  0.00    -0.002 C 
HETATM    2  C   UNL     1     -19.602 -11.301  -4.989  1.00  0.00     0.006 C 
HETATM    3  C   UNL     1     -18.756 -10.420  -5.922  1.00  0.00     0.006 C 
HETATM    4  C   UNL     1     -17.493 -10.138  -5.116  1.00  0.00    -0.001 C 
HETATM    5  C   UNL     1     -18.121  -9.847  -3.691  1.00  0.00    -0.036 C 
HETATM    6  C   UNL     1     -16.880  -9.406  -2.887  1.00  0.00     0.010 C 
HETATM    7  C   UNL     1     -15.780 -10.424  -2.693  1.00  0.00     0.007 C 
HETATM    8  C   UNL     1     -15.368 -11.284  -3.920  1.00  0.00     0.003 C 
HETATM    9  C   UNL     1     -16.517 -11.386  -4.974  1.00  0.00    -0.001 C 
HETATM   10  C   UNL     1     -16.136 -12.183  -6.214  1.00  0.00     0.033 C 
HETATM   11  C   UNL     1     -15.728 -13.564  -5.738  1.00  0.00    -0.023 C 
HETATM   12  C   UNL     1     -15.228 -13.827  -4.517  1.00  0.00    -0.072 C 
HETATM   13  C   UNL     1     -14.847 -12.762  -3.479  1.00  0.00    -0.017 C 
HETATM   14  C   UNL     1     -13.288 -12.843  -3.408  1.00  0.00     0.016 C 
HETATM   15  C   UNL     1     -12.789 -14.271  -3.072  1.00  0.00     0.033 C 
HETATM   16  C   UNL     1     -13.325 -15.312  -4.065  1.00  0.00     0.122 C 
HETATM   17  C   UNL     1     -14.857 -15.255  -4.169  1.00  0.00     0.066 C 
HETATM   18  C   UNL     1     -15.357 -13.134  -2.054  1.00  0.00     0.020 C 
HETATM   19  C   UNL     1     -19.111  -8.664  -3.574  1.00  0.00     0.016 C 
ENDROOT
BRANCH   1  20
HETATM   20  C   UNL     1     -19.864 -11.757  -2.443  1.00  0.00    -0.014 C 
HETATM   21  C   UNL     1     -19.514 -13.224  -2.200  1.00  0.00     0.010 C 
BRANCH  20  22
HETATM   22  C   UNL     1     -21.375 -11.647  -2.952  1.00  0.00     0.005 C 
BRANCH  22  23
HETATM   23  C   UNL     1     -22.185 -10.476  -2.385  1.00  0.00     0.005 C 
BRANCH  23  24
HETATM   24  C   UNL     1     -21.883 -10.054  -0.911  1.00  0.00    -0.012 C 
BRANCH  24  25
HETATM   25  C   UNL     1     -22.375 -11.071   0.156  1.00  0.00     0.000 C 
HETATM   26  C   UNL     1     -23.774 -11.624  -0.069  1.00  0.00     0.005 C 
ENDBRANCH  24  25
BRANCH  24  27
HETATM   27  C   UNL     1     -22.355  -8.608  -0.543  1.00  0.00    -0.019 C 
HETATM   28  C   UNL     1     -21.938  -8.208   0.884  1.00  0.00     0.010 C 
HETATM   29  C   UNL     1     -21.805  -7.547  -1.503  1.00  0.00     0.010 C 
ENDBRANCH  24  27
ENDBRANCH  23  24
ENDBRANCH  22  23
ENDBRANCH  20  22
ENDBRANCH   1  20
BRANCH  16  30
HETATM   30  O   UNL     1     -12.891 -16.617  -3.699  1.00  0.00    -0.395 OA
HETATM   31  H   UNL     1     -12.198 -16.521  -3.014  1.00  0.00     0.210 HD
ENDBRANCH  16  30
TORSDOF 7
ENDMDL
