MODEL 1
REMARK VINA RESULT:      -6.7      0.000      0.000
REMARK  16 active torsions:
REMARK  status: ('A' for Active; 'I' for Inactive)
REMARK    1  A    between atoms: C_2  and  C_3 
REMARK    2  A    between atoms: C_3  and  C_4 
REMARK    3  A    between atoms: C_4  and  C_5 
REMARK    4  A    between atoms: C_5  and  C_6 
REMARK    5  A    between atoms: C_6  and  C_7 
REMARK    6  A    between atoms: C_7  and  C_8 
REMARK    7  A    between atoms: C_8  and  C_9 
REMARK    8  A    between atoms: C_9  and  C_10 
REMARK    9  A    between atoms: C_10  and  C_11 
REMARK   10  A    between atoms: C_11  and  C_12 
REMARK       I    between atoms: C_12  and  N_14 
REMARK   11  A    between atoms: N_14  and  C_15 
REMARK   12  A    between atoms: N_14  and  C_18 
REMARK   13  A    between atoms: C_15  and  C_16 
REMARK   14  A    between atoms: C_16  and  O_17 
REMARK   15  A    between atoms: C_18  and  C_19 
REMARK   16  A    between atoms: C_19  and  O_20 
ROOT
HETATM    1  C   UNL     1     -21.013  -4.707  -9.457  1.00  0.00     0.103 C 
ENDROOT
BRANCH   1   2
HETATM    2  C   UNL     1     -21.031  -3.930  -8.147  1.00  0.00     0.009 C 
BRANCH   2   3
HETATM    3  C   UNL     1     -19.801  -4.350  -7.336  1.00  0.00     0.000 C 
BRANCH   3   4
HETATM    4  C   UNL     1     -20.203  -5.133  -6.099  1.00  0.00     0.000 C 
BRANCH   4   5
HETATM    5  C   UNL     1     -21.714  -5.328  -6.041  1.00  0.00     0.000 C 
BRANCH   5   6
HETATM    6  C   UNL     1     -22.032  -6.550  -5.188  1.00  0.00     0.000 C 
BRANCH   6   7
HETATM    7  C   UNL     1     -20.903  -6.857  -4.216  1.00  0.00     0.000 C 
BRANCH   7   8
HETATM    8  C   UNL     1     -21.466  -7.474  -2.940  1.00  0.00     0.000 C 
BRANCH   8   9
HETATM    9  C   UNL     1     -22.043  -6.398  -2.030  1.00  0.00    -0.000 C 
BRANCH   9  10
HETATM   10  C   UNL     1     -22.418  -6.976  -0.669  1.00  0.00    -0.005 C 
HETATM   11  C   UNL     1     -22.257  -8.486  -0.660  1.00  0.00     0.005 C 
ENDBRANCH   9  10
ENDBRANCH   8   9
ENDBRANCH   7   8
ENDBRANCH   6   7
ENDBRANCH   5   6
ENDBRANCH   4   5
ENDBRANCH   3   4
ENDBRANCH   2   3
ENDBRANCH   1   2
BRANCH   1  12
HETATM   12  C   UNL     1     -21.314  -3.897 -10.696  1.00  0.00     0.219 C 
HETATM   13  O   UNL     1     -20.367  -3.310 -11.262  1.00  0.00    -0.273 OA
HETATM   14  N   UNL     1     -22.619  -3.818 -11.165  1.00  0.00    -0.348 N 
BRANCH  14  15
HETATM   15  C   UNL     1     -23.848  -4.353 -10.496  1.00  0.00     0.151 C 
BRANCH  15  16
HETATM   16  C   UNL     1     -24.552  -3.463  -9.454  1.00  0.00     0.183 C 
BRANCH  16  17
HETATM   17  O   UNL     1     -25.916  -3.245  -9.790  1.00  0.00    -0.399 OA
HETATM   18  H   UNL     1     -25.919  -2.780 -10.651  1.00  0.00     0.209 HD
ENDBRANCH  16  17
ENDBRANCH  15  16
ENDBRANCH  14  15
BRANCH  14  19
HETATM   19  C   UNL     1     -22.819  -2.957 -12.341  1.00  0.00     0.151 C 
BRANCH  19  20
HETATM   20  C   UNL     1     -23.987  -3.393 -13.241  1.00  0.00     0.183 C 
BRANCH  20  21
HETATM   21  O   UNL     1     -23.579  -3.455 -14.609  1.00  0.00    -0.399 OA
HETATM   22  H   UNL     1     -22.643  -3.201 -14.617  1.00  0.00     0.209 HD
ENDBRANCH  20  21
ENDBRANCH  19  20
ENDBRANCH  14  19
ENDBRANCH   1  12
TORSDOF 16
ENDMDL
MODEL 2
REMARK VINA RESULT:      -6.6      1.042      1.578
REMARK  16 active torsions:
REMARK  status: ('A' for Active; 'I' for Inactive)
REMARK    1  A    between atoms: C_2  and  C_3 
REMARK    2  A    between atoms: C_3  and  C_4 
REMARK    3  A    between atoms: C_4  and  C_5 
REMARK    4  A    between atoms: C_5  and  C_6 
REMARK    5  A    between atoms: C_6  and  C_7 
REMARK    6  A    between atoms: C_7  and  C_8 
REMARK    7  A    between atoms: C_8  and  C_9 
REMARK    8  A    between atoms: C_9  and  C_10 
REMARK    9  A    between atoms: C_10  and  C_11 
REMARK   10  A    between atoms: C_11  and  C_12 
REMARK       I    between atoms: C_12  and  N_14 
REMARK   11  A    between atoms: N_14  and  C_15 
REMARK   12  A    between atoms: N_14  and  C_18 
REMARK   13  A    between atoms: C_15  and  C_16 
REMARK   14  A    between atoms: C_16  and  O_17 
REMARK   15  A    between atoms: C_18  and  C_19 
REMARK   16  A    between atoms: C_19  and  O_20 
ROOT
HETATM    1  C   UNL     1     -20.902  -4.056  -7.993  1.00  0.00     0.103 C 
ENDROOT
BRANCH   1   2
HETATM    2  C   UNL     1     -19.654  -4.541  -7.268  1.00  0.00     0.009 C 
BRANCH   2   3
HETATM    3  C   UNL     1     -20.102  -5.224  -5.970  1.00  0.00     0.000 C 
BRANCH   3   4
HETATM    4  C   UNL     1     -21.000  -6.412  -6.259  1.00  0.00     0.000 C 
BRANCH   4   5
HETATM    5  C   UNL     1     -22.040  -6.593  -5.159  1.00  0.00     0.000 C 
BRANCH   5   6
HETATM    6  C   UNL     1     -21.427  -6.213  -3.818  1.00  0.00     0.000 C 
BRANCH   6   7
HETATM    7  C   UNL     1     -21.269  -7.427  -2.915  1.00  0.00     0.000 C 
BRANCH   7   8
HETATM    8  C   UNL     1     -21.654  -7.067  -1.484  1.00  0.00     0.000 C 
BRANCH   8   9
HETATM    9  C   UNL     1     -21.142  -8.119  -0.508  1.00  0.00    -0.000 C 
BRANCH   9  10
HETATM   10  C   UNL     1     -21.935  -8.087   0.795  1.00  0.00    -0.005 C 
HETATM   11  C   UNL     1     -23.395  -8.422   0.548  1.00  0.00     0.005 C 
ENDBRANCH   9  10
ENDBRANCH   8   9
ENDBRANCH   7   8
ENDBRANCH   6   7
ENDBRANCH   5   6
ENDBRANCH   4   5
ENDBRANCH   3   4
ENDBRANCH   2   3
ENDBRANCH   1   2
BRANCH   1  12
HETATM   12  C   UNL     1     -20.923  -4.302  -9.484  1.00  0.00     0.219 C 
HETATM   13  O   UNL     1     -19.891  -4.759 -10.022  1.00  0.00    -0.273 OA
HETATM   14  N   UNL     1     -22.068  -4.009 -10.212  1.00  0.00    -0.348 N 
BRANCH  14  15
HETATM   15  C   UNL     1     -23.304  -3.328  -9.709  1.00  0.00     0.151 C 
BRANCH  15  16
HETATM   16  C   UNL     1     -24.611  -4.143  -9.659  1.00  0.00     0.183 C 
BRANCH  16  17
HETATM   17  O   UNL     1     -25.753  -3.307  -9.793  1.00  0.00    -0.399 OA
HETATM   18  H   UNL     1     -25.957  -3.268 -10.749  1.00  0.00     0.209 HD
ENDBRANCH  16  17
ENDBRANCH  15  16
ENDBRANCH  14  15
BRANCH  14  19
HETATM   19  C   UNL     1     -21.969  -4.225 -11.664  1.00  0.00     0.151 C 
BRANCH  19  20
HETATM   20  C   UNL     1     -22.530  -3.068 -12.507  1.00  0.00     0.183 C 
BRANCH  20  21
HETATM   21  O   UNL     1     -22.213  -3.245 -13.889  1.00  0.00    -0.399 OA
HETATM   22  H   UNL     1     -23.035  -3.543 -14.311  1.00  0.00     0.209 HD
ENDBRANCH  20  21
ENDBRANCH  19  20
ENDBRANCH  14  19
ENDBRANCH   1  12
TORSDOF 16
ENDMDL
MODEL 3
REMARK VINA RESULT:      -6.1      1.833      4.139
REMARK  16 active torsions:
REMARK  status: ('A' for Active; 'I' for Inactive)
REMARK    1  A    between atoms: C_2  and  C_3 
REMARK    2  A    between atoms: C_3  and  C_4 
REMARK    3  A    between atoms: C_4  and  C_5 
REMARK    4  A    between atoms: C_5  and  C_6 
REMARK    5  A    between atoms: C_6  and  C_7 
REMARK    6  A    between atoms: C_7  and  C_8 
REMARK    7  A    between atoms: C_8  and  C_9 
REMARK    8  A    between atoms: C_9  and  C_10 
REMARK    9  A    between atoms: C_10  and  C_11 
REMARK   10  A    between atoms: C_11  and  C_12 
REMARK       I    between atoms: C_12  and  N_14 
REMARK   11  A    between atoms: N_14  and  C_15 
REMARK   12  A    between atoms: N_14  and  C_18 
REMARK   13  A    between atoms: C_15  and  C_16 
REMARK   14  A    between atoms: C_16  and  O_17 
REMARK   15  A    between atoms: C_18  and  C_19 
REMARK   16  A    between atoms: C_19  and  O_20 
ROOT
HETATM    1  C   UNL     1     -21.142  -5.239  -6.505  1.00  0.00     0.103 C 
ENDROOT
BRANCH   1   2
HETATM    2  C   UNL     1     -21.614  -6.481  -5.761  1.00  0.00     0.009 C 
BRANCH   2   3
HETATM    3  C   UNL     1     -20.792  -6.596  -4.472  1.00  0.00     0.000 C 
BRANCH   3   4
HETATM    4  C   UNL     1     -21.617  -6.204  -3.260  1.00  0.00     0.000 C 
BRANCH   4   5
HETATM    5  C   UNL     1     -21.550  -7.278  -2.180  1.00  0.00     0.000 C 
BRANCH   5   6
HETATM    6  C   UNL     1     -22.335  -6.816  -0.960  1.00  0.00     0.000 C 
BRANCH   6   7
HETATM    7  C   UNL     1     -22.138  -7.759   0.217  1.00  0.00     0.000 C 
BRANCH   7   8
HETATM    8  C   UNL     1     -23.191  -8.861   0.186  1.00  0.00     0.000 C 
BRANCH   8   9
HETATM    9  C   UNL     1     -22.538 -10.225   0.007  1.00  0.00    -0.000 C 
BRANCH   9  10
HETATM   10  C   UNL     1     -23.581 -11.338   0.034  1.00  0.00    -0.005 C 
HETATM   11  C   UNL     1     -24.154 -11.576  -1.352  1.00  0.00     0.005 C 
ENDBRANCH   9  10
ENDBRANCH   8   9
ENDBRANCH   7   8
ENDBRANCH   6   7
ENDBRANCH   5   6
ENDBRANCH   4   5
ENDBRANCH   3   4
ENDBRANCH   2   3
ENDBRANCH   1   2
BRANCH   1  12
HETATM   12  C   UNL     1     -22.165  -4.600  -7.414  1.00  0.00     0.219 C 
HETATM   13  O   UNL     1     -23.355  -4.564  -7.032  1.00  0.00    -0.273 OA
HETATM   14  N   UNL     1     -21.767  -4.083  -8.640  1.00  0.00    -0.348 N 
BRANCH  14  15
HETATM   15  C   UNL     1     -20.411  -4.197  -9.265  1.00  0.00     0.151 C 
BRANCH  15  16
HETATM   16  C   UNL     1     -20.321  -4.709 -10.716  1.00  0.00     0.183 C 
BRANCH  16  17
HETATM   17  O   UNL     1     -20.041  -3.654 -11.626  1.00  0.00    -0.399 OA
HETATM   18  H   UNL     1     -19.107  -3.762 -11.897  1.00  0.00     0.209 HD
ENDBRANCH  16  17
ENDBRANCH  15  16
ENDBRANCH  14  15
BRANCH  14  19
HETATM   19  C   UNL     1     -22.846  -3.537  -9.479  1.00  0.00     0.151 C 
BRANCH  19  20
HETATM   20  C   UNL     1     -23.792  -4.605 -10.052  1.00  0.00     0.183 C 
BRANCH  20  21
HETATM   21  O   UNL     1     -25.129  -4.398  -9.592  1.00  0.00    -0.399 OA
HETATM   22  H   UNL     1     -25.578  -3.909 -10.300  1.00  0.00     0.209 HD
ENDBRANCH  20  21
ENDBRANCH  19  20
ENDBRANCH  14  19
ENDBRANCH   1  12
TORSDOF 16
ENDMDL
MODEL 4
REMARK VINA RESULT:      -6.0      1.596      2.905
REMARK  16 active torsions:
REMARK  status: ('A' for Active; 'I' for Inactive)
REMARK    1  A    between atoms: C_2  and  C_3 
REMARK    2  A    between atoms: C_3  and  C_4 
REMARK    3  A    between atoms: C_4  and  C_5 
REMARK    4  A    between atoms: C_5  and  C_6 
REMARK    5  A    between atoms: C_6  and  C_7 
REMARK    6  A    between atoms: C_7  and  C_8 
REMARK    7  A    between atoms: C_8  and  C_9 
REMARK    8  A    between atoms: C_9  and  C_10 
REMARK    9  A    between atoms: C_10  and  C_11 
REMARK   10  A    between atoms: C_11  and  C_12 
REMARK       I    between atoms: C_12  and  N_14 
REMARK   11  A    between atoms: N_14  and  C_15 
REMARK   12  A    between atoms: N_14  and  C_18 
REMARK   13  A    between atoms: C_15  and  C_16 
REMARK   14  A    between atoms: C_16  and  O_17 
REMARK   15  A    between atoms: C_18  and  C_19 
REMARK   16  A    between atoms: C_19  and  O_20 
ROOT
HETATM    1  C   UNL     1     -21.778  -4.543  -6.995  1.00  0.00     0.103 C 
ENDROOT
BRANCH   1   2
HETATM    2  C   UNL     1     -21.405  -5.881  -6.371  1.00  0.00     0.009 C 
BRANCH   2   3
HETATM    3  C   UNL     1     -20.853  -5.607  -4.967  1.00  0.00     0.000 C 
BRANCH   3   4
HETATM    4  C   UNL     1     -21.147  -6.763  -4.029  1.00  0.00     0.000 C 
BRANCH   4   5
HETATM    5  C   UNL     1     -21.639  -6.260  -2.676  1.00  0.00     0.000 C 
BRANCH   5   6
HETATM    6  C   UNL     1     -21.920  -7.449  -1.768  1.00  0.00     0.000 C 
BRANCH   6   7
HETATM    7  C   UNL     1     -22.405  -7.000  -0.398  1.00  0.00     0.000 C 
BRANCH   7   8
HETATM    8  C   UNL     1     -22.957  -8.191   0.378  1.00  0.00     0.000 C 
BRANCH   8   9
HETATM    9  C   UNL     1     -22.232  -9.472  -0.013  1.00  0.00    -0.000 C 
BRANCH   9  10
HETATM   10  C   UNL     1     -21.064  -9.749   0.929  1.00  0.00    -0.005 C 
HETATM   11  C   UNL     1     -20.311 -10.996   0.505  1.00  0.00     0.005 C 
ENDBRANCH   9  10
ENDBRANCH   8   9
ENDBRANCH   7   8
ENDBRANCH   6   7
ENDBRANCH   5   6
ENDBRANCH   4   5
ENDBRANCH   3   4
ENDBRANCH   2   3
ENDBRANCH   1   2
BRANCH   1  12
HETATM   12  C   UNL     1     -21.036  -4.188  -8.261  1.00  0.00     0.219 C 
HETATM   13  O   UNL     1     -19.863  -3.766  -8.161  1.00  0.00    -0.273 OA
HETATM   14  N   UNL     1     -21.669  -4.327  -9.490  1.00  0.00    -0.348 N 
BRANCH  14  15
HETATM   15  C   UNL     1     -23.105  -4.680  -9.726  1.00  0.00     0.151 C 
BRANCH  15  16
HETATM   16  C   UNL     1     -24.169  -3.594  -9.478  1.00  0.00     0.183 C 
BRANCH  16  17
HETATM   17  O   UNL     1     -24.558  -2.958 -10.688  1.00  0.00    -0.399 OA
HETATM   18  H   UNL     1     -25.520  -2.790 -10.617  1.00  0.00     0.209 HD
ENDBRANCH  16  17
ENDBRANCH  15  16
ENDBRANCH  14  15
BRANCH  14  19
HETATM   19  C   UNL     1     -20.885  -3.898 -10.659  1.00  0.00     0.151 C 
BRANCH  19  20
HETATM   20  C   UNL     1     -21.611  -4.090 -12.001  1.00  0.00     0.183 C 
BRANCH  20  21
HETATM   21  O   UNL     1     -22.064  -2.838 -12.518  1.00  0.00    -0.399 OA
HETATM   22  H   UNL     1     -21.287  -2.426 -12.928  1.00  0.00     0.209 HD
ENDBRANCH  20  21
ENDBRANCH  19  20
ENDBRANCH  14  19
ENDBRANCH   1  12
TORSDOF 16
ENDMDL
MODEL 5
REMARK VINA RESULT:      -5.8      1.804      3.315
REMARK  16 active torsions:
REMARK  status: ('A' for Active; 'I' for Inactive)
REMARK    1  A    between atoms: C_2  and  C_3 
REMARK    2  A    between atoms: C_3  and  C_4 
REMARK    3  A    between atoms: C_4  and  C_5 
REMARK    4  A    between atoms: C_5  and  C_6 
REMARK    5  A    between atoms: C_6  and  C_7 
REMARK    6  A    between atoms: C_7  and  C_8 
REMARK    7  A    between atoms: C_8  and  C_9 
REMARK    8  A    between atoms: C_9  and  C_10 
REMARK    9  A    between atoms: C_10  and  C_11 
REMARK   10  A    between atoms: C_11  and  C_12 
REMARK       I    between atoms: C_12  and  N_14 
REMARK   11  A    between atoms: N_14  and  C_15 
REMARK   12  A    between atoms: N_14  and  C_18 
REMARK   13  A    between atoms: C_15  and  C_16 
REMARK   14  A    between atoms: C_16  and  O_17 
REMARK   15  A    between atoms: C_18  and  C_19 
REMARK   16  A    between atoms: C_19  and  O_20 
ROOT
HETATM    1  C   UNL     1     -21.099  -4.814  -6.930  1.00  0.00     0.103 C 
ENDROOT
BRANCH   1   2
HETATM    2  C   UNL     1     -20.819  -6.305  -6.802  1.00  0.00     0.009 C 
BRANCH   2   3
HETATM    3  C   UNL     1     -20.573  -6.611  -5.320  1.00  0.00     0.000 C 
BRANCH   3   4
HETATM    4  C   UNL     1     -20.918  -8.052  -4.994  1.00  0.00     0.000 C 
BRANCH   4   5
HETATM    5  C   UNL     1     -19.665  -8.921  -4.955  1.00  0.00     0.000 C 
BRANCH   5   6
HETATM    6  C   UNL     1     -19.273  -9.175  -3.506  1.00  0.00     0.000 C 
BRANCH   6   7
HETATM    7  C   UNL     1     -20.481  -9.110  -2.584  1.00  0.00     0.000 C 
BRANCH   7   8
HETATM    8  C   UNL     1     -20.276  -8.030  -1.528  1.00  0.00     0.000 C 
BRANCH   8   9
HETATM    9  C   UNL     1     -21.394  -8.067  -0.494  1.00  0.00    -0.000 C 
BRANCH   9  10
HETATM   10  C   UNL     1     -22.522  -7.113  -0.874  1.00  0.00    -0.005 C 
HETATM   11  C   UNL     1     -21.995  -5.957  -1.705  1.00  0.00     0.005 C 
ENDBRANCH   9  10
ENDBRANCH   8   9
ENDBRANCH   7   8
ENDBRANCH   6   7
ENDBRANCH   5   6
ENDBRANCH   4   5
ENDBRANCH   3   4
ENDBRANCH   2   3
ENDBRANCH   1   2
BRANCH   1  12
HETATM   12  C   UNL     1     -22.280  -4.447  -7.797  1.00  0.00     0.219 C 
HETATM   13  O   UNL     1     -23.413  -4.421  -7.272  1.00  0.00    -0.273 OA
HETATM   14  N   UNL     1     -22.081  -4.161  -9.142  1.00  0.00    -0.348 N 
BRANCH  14  15
HETATM   15  C   UNL     1     -20.804  -4.299  -9.912  1.00  0.00     0.151 C 
BRANCH  15  16
HETATM   16  C   UNL     1     -20.552  -3.327 -11.080  1.00  0.00     0.183 C 
BRANCH  16  17
HETATM   17  O   UNL     1     -20.982  -3.875 -12.318  1.00  0.00    -0.399 OA
HETATM   18  H   UNL     1     -20.489  -3.402 -13.018  1.00  0.00     0.209 HD
ENDBRANCH  16  17
ENDBRANCH  15  16
ENDBRANCH  14  15
BRANCH  14  19
HETATM   19  C   UNL     1     -23.300  -3.874  -9.916  1.00  0.00     0.151 C 
BRANCH  19  20
HETATM   20  C   UNL     1     -23.865  -5.093 -10.663  1.00  0.00     0.183 C 
BRANCH  20  21
HETATM   21  O   UNL     1     -23.563  -5.019 -12.058  1.00  0.00    -0.399 OA
HETATM   22  H   UNL     1     -23.879  -5.853 -12.441  1.00  0.00     0.209 HD
ENDBRANCH  20  21
ENDBRANCH  19  20
ENDBRANCH  14  19
ENDBRANCH   1  12
TORSDOF 16
ENDMDL
MODEL 6
REMARK VINA RESULT:      -5.7      4.829      9.507
REMARK  16 active torsions:
REMARK  status: ('A' for Active; 'I' for Inactive)
REMARK    1  A    between atoms: C_2  and  C_3 
REMARK    2  A    between atoms: C_3  and  C_4 
REMARK    3  A    between atoms: C_4  and  C_5 
REMARK    4  A    between atoms: C_5  and  C_6 
REMARK    5  A    between atoms: C_6  and  C_7 
REMARK    6  A    between atoms: C_7  and  C_8 
REMARK    7  A    between atoms: C_8  and  C_9 
REMARK    8  A    between atoms: C_9  and  C_10 
REMARK    9  A    between atoms: C_10  and  C_11 
REMARK   10  A    between atoms: C_11  and  C_12 
REMARK       I    between atoms: C_12  and  N_14 
REMARK   11  A    between atoms: N_14  and  C_15 
REMARK   12  A    between atoms: N_14  and  C_18 
REMARK   13  A    between atoms: C_15  and  C_16 
REMARK   14  A    between atoms: C_16  and  O_17 
REMARK   15  A    between atoms: C_18  and  C_19 
REMARK   16  A    between atoms: C_19  and  O_20 
ROOT
HETATM    1  C   UNL     1     -20.925  -7.071  -4.136  1.00  0.00     0.103 C 
ENDROOT
BRANCH   1   2
HETATM    2  C   UNL     1     -21.356  -6.136  -5.258  1.00  0.00     0.009 C 
BRANCH   2   3
HETATM    3  C   UNL     1     -20.169  -5.971  -6.213  1.00  0.00     0.000 C 
BRANCH   3   4
HETATM    4  C   UNL     1     -20.165  -4.592  -6.847  1.00  0.00     0.000 C 
BRANCH   4   5
HETATM    5  C   UNL     1     -21.582  -4.136  -7.177  1.00  0.00     0.000 C 
BRANCH   5   6
HETATM    6  C   UNL     1     -21.772  -4.136  -8.688  1.00  0.00     0.000 C 
BRANCH   6   7
HETATM    7  C   UNL     1     -20.437  -4.119  -9.416  1.00  0.00     0.000 C 
BRANCH   7   8
HETATM    8  C   UNL     1     -20.659  -4.252 -10.919  1.00  0.00     0.000 C 
BRANCH   8   9
HETATM    9  C   UNL     1     -22.136  -4.107 -11.260  1.00  0.00    -0.000 C 
BRANCH   9  10
HETATM   10  C   UNL     1     -22.404  -2.789 -11.980  1.00  0.00    -0.005 C 
HETATM   11  C   UNL     1     -23.765  -2.807 -12.652  1.00  0.00     0.005 C 
ENDBRANCH   9  10
ENDBRANCH   8   9
ENDBRANCH   7   8
ENDBRANCH   6   7
ENDBRANCH   5   6
ENDBRANCH   4   5
ENDBRANCH   3   4
ENDBRANCH   2   3
ENDBRANCH   1   2
BRANCH   1  12
HETATM   12  C   UNL     1     -21.603  -6.844  -2.805  1.00  0.00     0.219 C 
HETATM   13  O   UNL     1     -21.987  -5.688  -2.527  1.00  0.00    -0.273 OA
HETATM   14  N   UNL     1     -21.771  -7.910  -1.930  1.00  0.00    -0.348 N 
BRANCH  14  15
HETATM   15  C   UNL     1     -21.228  -9.297  -2.088  1.00  0.00     0.151 C 
BRANCH  15  16
HETATM   16  C   UNL     1     -22.011 -10.286  -2.973  1.00  0.00     0.183 C 
BRANCH  16  17
HETATM   17  O   UNL     1     -23.065 -10.911  -2.252  1.00  0.00    -0.399 OA
HETATM   18  H   UNL     1     -23.777 -10.245  -2.169  1.00  0.00     0.209 HD
ENDBRANCH  16  17
ENDBRANCH  15  16
ENDBRANCH  14  15
BRANCH  14  19
HETATM   19  C   UNL     1     -22.387  -7.576  -0.636  1.00  0.00     0.151 C 
BRANCH  19  20
HETATM   20  C   UNL     1     -22.434  -8.752   0.353  1.00  0.00     0.183 C 
BRANCH  20  21
HETATM   21  O   UNL     1     -23.691  -9.429   0.279  1.00  0.00    -0.399 OA
HETATM   22  H   UNL     1     -24.334  -8.760  -0.006  1.00  0.00     0.209 HD
ENDBRANCH  20  21
ENDBRANCH  19  20
ENDBRANCH  14  19
ENDBRANCH   1  12
TORSDOF 16
ENDMDL
MODEL 7
REMARK VINA RESULT:      -5.6      5.037      8.071
REMARK  16 active torsions:
REMARK  status: ('A' for Active; 'I' for Inactive)
REMARK    1  A    between atoms: C_2  and  C_3 
REMARK    2  A    between atoms: C_3  and  C_4 
REMARK    3  A    between atoms: C_4  and  C_5 
REMARK    4  A    between atoms: C_5  and  C_6 
REMARK    5  A    between atoms: C_6  and  C_7 
REMARK    6  A    between atoms: C_7  and  C_8 
REMARK    7  A    between atoms: C_8  and  C_9 
REMARK    8  A    between atoms: C_9  and  C_10 
REMARK    9  A    between atoms: C_10  and  C_11 
REMARK   10  A    between atoms: C_11  and  C_12 
REMARK       I    between atoms: C_12  and  N_14 
REMARK   11  A    between atoms: N_14  and  C_15 
REMARK   12  A    between atoms: N_14  and  C_18 
REMARK   13  A    between atoms: C_15  and  C_16 
REMARK   14  A    between atoms: C_16  and  O_17 
REMARK   15  A    between atoms: C_18  and  C_19 
REMARK   16  A    between atoms: C_19  and  O_20 
ROOT
HETATM    1  C   UNL     1     -21.206  -7.397  -1.467  1.00  0.00     0.103 C 
ENDROOT
BRANCH   1   2
HETATM    2  C   UNL     1     -22.367  -7.406  -0.481  1.00  0.00     0.009 C 
BRANCH   2   3
HETATM    3  C   UNL     1     -22.164  -8.591   0.470  1.00  0.00     0.000 C 
BRANCH   3   4
HETATM    4  C   UNL     1     -20.937  -9.398   0.086  1.00  0.00     0.000 C 
BRANCH   4   5
HETATM    5  C   UNL     1     -20.771 -10.610   0.996  1.00  0.00     0.000 C 
BRANCH   5   6
HETATM    6  C   UNL     1     -20.543 -11.852   0.144  1.00  0.00     0.000 C 
BRANCH   6   7
HETATM    7  C   UNL     1     -21.407 -13.013   0.612  1.00  0.00     0.000 C 
BRANCH   7   8
HETATM    8  C   UNL     1     -22.853 -12.556   0.774  1.00  0.00     0.000 C 
BRANCH   8   9
HETATM    9  C   UNL     1     -23.627 -12.750  -0.524  1.00  0.00    -0.000 C 
BRANCH   9  10
HETATM   10  C   UNL     1     -24.018 -11.407  -1.133  1.00  0.00    -0.005 C 
HETATM   11  C   UNL     1     -23.117 -11.062  -2.305  1.00  0.00     0.005 C 
ENDBRANCH   9  10
ENDBRANCH   8   9
ENDBRANCH   7   8
ENDBRANCH   6   7
ENDBRANCH   5   6
ENDBRANCH   4   5
ENDBRANCH   3   4
ENDBRANCH   2   3
ENDBRANCH   1   2
BRANCH   1  12
HETATM   12  C   UNL     1     -21.538  -6.903  -2.856  1.00  0.00     0.219 C 
HETATM   13  O   UNL     1     -22.378  -5.985  -2.971  1.00  0.00    -0.273 OA
HETATM   14  N   UNL     1     -20.919  -7.481  -3.956  1.00  0.00    -0.348 N 
BRANCH  14  15
HETATM   15  C   UNL     1     -20.014  -8.674  -3.955  1.00  0.00     0.151 C 
BRANCH  15  16
HETATM   16  C   UNL     1     -20.192  -9.721  -5.072  1.00  0.00     0.183 C 
BRANCH  16  17
HETATM   17  O   UNL     1     -19.088  -9.723  -5.966  1.00  0.00    -0.399 OA
HETATM   18  H   UNL     1     -19.081 -10.601  -6.398  1.00  0.00     0.209 HD
ENDBRANCH  16  17
ENDBRANCH  15  16
ENDBRANCH  14  15
BRANCH  14  19
HETATM   19  C   UNL     1     -21.353  -6.973  -5.268  1.00  0.00     0.151 C 
BRANCH  19  20
HETATM   20  C   UNL     1     -20.323  -6.063  -5.956  1.00  0.00     0.183 C 
BRANCH  20  21
HETATM   21  O   UNL     1     -19.721  -6.728  -7.069  1.00  0.00    -0.399 OA
HETATM   22  H   UNL     1     -19.021  -6.133  -7.384  1.00  0.00     0.209 HD
ENDBRANCH  20  21
ENDBRANCH  19  20
ENDBRANCH  14  19
ENDBRANCH   1  12
TORSDOF 16
ENDMDL
MODEL 8
REMARK VINA RESULT:      -5.5      4.901      9.328
REMARK  16 active torsions:
REMARK  status: ('A' for Active; 'I' for Inactive)
REMARK    1  A    between atoms: C_2  and  C_3 
REMARK    2  A    between atoms: C_3  and  C_4 
REMARK    3  A    between atoms: C_4  and  C_5 
REMARK    4  A    between atoms: C_5  and  C_6 
REMARK    5  A    between atoms: C_6  and  C_7 
REMARK    6  A    between atoms: C_7  and  C_8 
REMARK    7  A    between atoms: C_8  and  C_9 
REMARK    8  A    between atoms: C_9  and  C_10 
REMARK    9  A    between atoms: C_10  and  C_11 
REMARK   10  A    between atoms: C_11  and  C_12 
REMARK       I    between atoms: C_12  and  N_14 
REMARK   11  A    between atoms: N_14  and  C_15 
REMARK   12  A    between atoms: N_14  and  C_18 
REMARK   13  A    between atoms: C_15  and  C_16 
REMARK   14  A    between atoms: C_16  and  O_17 
REMARK   15  A    between atoms: C_18  and  C_19 
REMARK   16  A    between atoms: C_19  and  O_20 
ROOT
HETATM    1  C   UNL     1     -20.527  -7.802  -4.418  1.00  0.00     0.103 C 
ENDROOT
BRANCH   1   2
HETATM    2  C   UNL     1     -21.258  -7.243  -5.631  1.00  0.00     0.009 C 
BRANCH   2   3
HETATM    3  C   UNL     1     -21.445  -5.738  -5.413  1.00  0.00     0.000 C 
BRANCH   3   4
HETATM    4  C   UNL     1     -20.235  -4.960  -5.898  1.00  0.00     0.000 C 
BRANCH   4   5
HETATM    5  C   UNL     1     -19.843  -5.382  -7.311  1.00  0.00     0.000 C 
BRANCH   5   6
HETATM    6  C   UNL     1     -20.883  -4.865  -8.297  1.00  0.00     0.000 C 
BRANCH   6   7
HETATM    7  C   UNL     1     -20.231  -4.343  -9.568  1.00  0.00     0.000 C 
BRANCH   7   8
HETATM    8  C   UNL     1     -21.300  -3.959 -10.585  1.00  0.00     0.000 C 
BRANCH   8   9
HETATM    9  C   UNL     1     -22.692  -4.112  -9.986  1.00  0.00    -0.000 C 
BRANCH   9  10
HETATM   10  C   UNL     1     -23.767  -3.985 -11.062  1.00  0.00    -0.005 C 
HETATM   11  C   UNL     1     -23.466  -2.824 -11.992  1.00  0.00     0.005 C 
ENDBRANCH   9  10
ENDBRANCH   8   9
ENDBRANCH   7   8
ENDBRANCH   6   7
ENDBRANCH   5   6
ENDBRANCH   4   5
ENDBRANCH   3   4
ENDBRANCH   2   3
ENDBRANCH   1   2
BRANCH   1  12
HETATM   12  C   UNL     1     -21.227  -8.933  -3.702  1.00  0.00     0.219 C 
HETATM   13  O   UNL     1     -21.630  -9.903  -4.380  1.00  0.00    -0.273 OA
HETATM   14  N   UNL     1     -21.413  -8.864  -2.328  1.00  0.00    -0.348 N 
BRANCH  14  15
HETATM   15  C   UNL     1     -21.109  -7.699  -1.436  1.00  0.00     0.151 C 
BRANCH  15  16
HETATM   16  C   UNL     1     -22.274  -6.783  -1.016  1.00  0.00     0.183 C 
BRANCH  16  17
HETATM   17  O   UNL     1     -22.580  -5.831  -2.026  1.00  0.00    -0.399 OA
HETATM   18  H   UNL     1     -22.526  -6.305  -2.880  1.00  0.00     0.209 HD
ENDBRANCH  16  17
ENDBRANCH  15  16
ENDBRANCH  14  15
BRANCH  14  19
HETATM   19  C   UNL     1     -22.159  -9.984  -1.732  1.00  0.00     0.151 C 
BRANCH  19  20
HETATM   20  C   UNL     1     -21.325 -10.846  -0.769  1.00  0.00     0.183 C 
BRANCH  20  21
HETATM   21  O   UNL     1     -22.162 -11.478   0.202  1.00  0.00    -0.399 OA
HETATM   22  H   UNL     1     -21.707 -11.369   1.052  1.00  0.00     0.209 HD
ENDBRANCH  20  21
ENDBRANCH  19  20
ENDBRANCH  14  19
ENDBRANCH   1  12
TORSDOF 16
ENDMDL
MODEL 9
REMARK VINA RESULT:      -5.4      4.432      9.147
REMARK  16 active torsions:
REMARK  status: ('A' for Active; 'I' for Inactive)
REMARK    1  A    between atoms: C_2  and  C_3 
REMARK    2  A    between atoms: C_3  and  C_4 
REMARK    3  A    between atoms: C_4  and  C_5 
REMARK    4  A    between atoms: C_5  and  C_6 
REMARK    5  A    between atoms: C_6  and  C_7 
REMARK    6  A    between atoms: C_7  and  C_8 
REMARK    7  A    between atoms: C_8  and  C_9 
REMARK    8  A    between atoms: C_9  and  C_10 
REMARK    9  A    between atoms: C_10  and  C_11 
REMARK   10  A    between atoms: C_11  and  C_12 
REMARK       I    between atoms: C_12  and  N_14 
REMARK   11  A    between atoms: N_14  and  C_15 
REMARK   12  A    between atoms: N_14  and  C_18 
REMARK   13  A    between atoms: C_15  and  C_16 
REMARK   14  A    between atoms: C_16  and  O_17 
REMARK   15  A    between atoms: C_18  and  C_19 
REMARK   16  A    between atoms: C_19  and  O_20 
ROOT
HETATM    1  C   UNL     1     -21.119  -5.622  -5.213  1.00  0.00     0.103 C 
ENDROOT
BRANCH   1   2
HETATM    2  C   UNL     1     -19.946  -4.762  -5.665  1.00  0.00     0.009 C 
BRANCH   2   3
HETATM    3  C   UNL     1     -20.119  -4.483  -7.162  1.00  0.00     0.000 C 
BRANCH   3   4
HETATM    4  C   UNL     1     -21.563  -4.150  -7.494  1.00  0.00     0.000 C 
BRANCH   4   5
HETATM    5  C   UNL     1     -21.707  -3.728  -8.952  1.00  0.00     0.000 C 
BRANCH   5   6
HETATM    6  C   UNL     1     -20.681  -4.473  -9.796  1.00  0.00     0.000 C 
BRANCH   6   7
HETATM    7  C   UNL     1     -20.489  -3.807 -11.150  1.00  0.00     0.000 C 
BRANCH   7   8
HETATM    8  C   UNL     1     -21.677  -2.905 -11.463  1.00  0.00     0.000 C 
BRANCH   8   9
HETATM    9  C   UNL     1     -22.705  -3.643 -12.311  1.00  0.00    -0.000 C 
BRANCH   9  10
HETATM   10  C   UNL     1     -23.428  -2.684 -13.251  1.00  0.00    -0.005 C 
HETATM   11  C   UNL     1     -22.864  -2.777 -14.658  1.00  0.00     0.005 C 
ENDBRANCH   9  10
ENDBRANCH   8   9
ENDBRANCH   7   8
ENDBRANCH   6   7
ENDBRANCH   5   6
ENDBRANCH   4   5
ENDBRANCH   3   4
ENDBRANCH   2   3
ENDBRANCH   1   2
BRANCH   1  12
HETATM   12  C   UNL     1     -20.823  -7.095  -5.062  1.00  0.00     0.219 C 
HETATM   13  O   UNL     1     -20.718  -7.786  -6.099  1.00  0.00    -0.273 OA
HETATM   14  N   UNL     1     -20.687  -7.642  -3.793  1.00  0.00    -0.348 N 
BRANCH  14  15
HETATM   15  C   UNL     1     -20.933  -6.953  -2.486  1.00  0.00     0.151 C 
BRANCH  15  16
HETATM   16  C   UNL     1     -22.390  -6.805  -2.007  1.00  0.00     0.183 C 
BRANCH  16  17
HETATM   17  O   UNL     1     -22.455  -6.483  -0.625  1.00  0.00    -0.399 OA
HETATM   18  H   UNL     1     -21.585  -6.105  -0.386  1.00  0.00     0.209 HD
ENDBRANCH  16  17
ENDBRANCH  15  16
ENDBRANCH  14  15
BRANCH  14  19
HETATM   19  C   UNL     1     -20.461  -9.096  -3.749  1.00  0.00     0.151 C 
BRANCH  19  20
HETATM   20  C   UNL     1     -19.772  -9.581  -2.463  1.00  0.00     0.183 C 
BRANCH  20  21
HETATM   21  O   UNL     1     -20.678 -10.332  -1.654  1.00  0.00    -0.399 OA
HETATM   22  H   UNL     1     -20.124 -10.854  -1.051  1.00  0.00     0.209 HD
ENDBRANCH  20  21
ENDBRANCH  19  20
ENDBRANCH  14  19
ENDBRANCH   1  12
TORSDOF 16
ENDMDL
