MODEL 1
REMARK VINA RESULT:      -6.7      0.000      0.000
REMARK  3 active torsions:
REMARK  status: ('A' for Active; 'I' for Inactive)
REMARK       I    between atoms: C_2  and  N_4 
REMARK    1  A    between atoms: C_6  and  O_12 
REMARK    2  A    between atoms: C_8  and  C_9 
REMARK    3  A    between atoms: C_9  and  O_11 
ROOT
HETATM    1  C   UNL     1     -19.989  -4.060  -8.910  1.00  0.00     0.117 C 
HETATM    2  C   UNL     1     -21.393  -4.566  -9.098  1.00  0.00     0.216 C 
HETATM    3  O   UNL     1     -21.961  -5.243  -8.237  1.00  0.00    -0.274 OA
HETATM    4  N   UNL     1     -22.070  -4.188 -10.225  1.00  0.00    -0.335 N 
HETATM    5  C   UNL     1     -21.672  -3.176 -11.194  1.00  0.00     0.158 C 
HETATM    6  C   UNL     1     -22.729  -3.233 -12.306  1.00  0.00     0.138 C 
HETATM    7  C   UNL     1     -23.593  -4.454 -11.975  1.00  0.00     0.069 C 
HETATM    8  C   UNL     1     -23.447  -4.619 -10.471  1.00  0.00     0.187 C 
ENDROOT
BRANCH   8   9
HETATM    9  C   UNL     1     -24.438  -3.763  -9.668  1.00  0.00     0.163 C 
HETATM   10  O   UNL     1     -25.337  -3.098 -10.161  1.00  0.00    -0.648 OA
BRANCH   9  11
HETATM   11  O   UNL     1     -24.241  -3.827  -8.329  1.00  0.00    -0.775 OA
HETATM   12  H   UNL     1     -23.483  -4.412  -8.081  1.00  0.00     0.167 HD
ENDBRANCH   9  11
ENDBRANCH   8   9
BRANCH   6  13
HETATM   13  O   UNL     1     -22.131  -3.387 -13.587  1.00  0.00    -0.394 OA
HETATM   14  H   UNL     1     -22.795  -3.754 -14.198  1.00  0.00     0.210 HD
ENDBRANCH   6  13
TORSDOF 3
ENDMDL
MODEL 2
REMARK VINA RESULT:      -5.6      1.547      3.379
REMARK  3 active torsions:
REMARK  status: ('A' for Active; 'I' for Inactive)
REMARK       I    between atoms: C_2  and  N_4 
REMARK    1  A    between atoms: C_6  and  O_12 
REMARK    2  A    between atoms: C_8  and  C_9 
REMARK    3  A    between atoms: C_9  and  O_11 
ROOT
HETATM    1  C   UNL     1     -20.011  -4.575  -9.932  1.00  0.00     0.117 C 
HETATM    2  C   UNL     1     -20.808  -3.575 -10.725  1.00  0.00     0.216 C 
HETATM    3  O   UNL     1     -20.264  -2.667 -11.359  1.00  0.00    -0.274 OA
HETATM    4  N   UNL     1     -22.164  -3.742 -10.798  1.00  0.00    -0.335 N 
HETATM    5  C   UNL     1     -22.934  -4.898 -10.362  1.00  0.00     0.158 C 
HETATM    6  C   UNL     1     -24.406  -4.516 -10.574  1.00  0.00     0.138 C 
HETATM    7  C   UNL     1     -24.383  -3.033 -10.957  1.00  0.00     0.069 C 
HETATM    8  C   UNL     1     -23.006  -2.826 -11.568  1.00  0.00     0.187 C 
ENDROOT
BRANCH   8   9
HETATM    9  C   UNL     1     -22.951  -3.162 -13.066  1.00  0.00     0.163 C 
HETATM   10  O   UNL     1     -23.863  -2.963 -13.855  1.00  0.00    -0.648 OA
BRANCH   9  11
HETATM   11  O   UNL     1     -21.766  -3.692 -13.453  1.00  0.00    -0.775 OA
HETATM   12  H   UNL     1     -21.225  -4.020 -12.692  1.00  0.00     0.167 HD
ENDBRANCH   9  11
ENDBRANCH   8   9
BRANCH   6  13
HETATM   13  O   UNL     1     -25.170  -4.705  -9.389  1.00  0.00    -0.394 OA
HETATM   14  H   UNL     1     -25.442  -3.833  -9.052  1.00  0.00     0.210 HD
ENDBRANCH   6  13
TORSDOF 3
ENDMDL
MODEL 3
REMARK VINA RESULT:      -5.3     11.169     12.782
REMARK  3 active torsions:
REMARK  status: ('A' for Active; 'I' for Inactive)
REMARK       I    between atoms: C_2  and  N_4 
REMARK    1  A    between atoms: C_6  and  O_12 
REMARK    2  A    between atoms: C_8  and  C_9 
REMARK    3  A    between atoms: C_9  and  O_11 
ROOT
HETATM    1  C   UNL     1     -35.127  -0.030 -14.232  1.00  0.00     0.117 C 
HETATM    2  C   UNL     1     -35.063  -0.352 -12.764  1.00  0.00     0.216 C 
HETATM    3  O   UNL     1     -35.412   0.461 -11.903  1.00  0.00    -0.274 OA
HETATM    4  N   UNL     1     -34.681  -1.614 -12.396  1.00  0.00    -0.335 N 
HETATM    5  C   UNL     1     -34.514  -2.771 -13.263  1.00  0.00     0.158 C 
HETATM    6  C   UNL     1     -33.972  -3.888 -12.359  1.00  0.00     0.138 C 
HETATM    7  C   UNL     1     -33.676  -3.209 -11.018  1.00  0.00     0.069 C 
HETATM    8  C   UNL     1     -34.614  -2.012 -10.990  1.00  0.00     0.187 C 
ENDROOT
BRANCH   8   9
HETATM    9  C   UNL     1     -36.013  -2.352 -10.452  1.00  0.00     0.163 C 
HETATM   10  O   UNL     1     -36.546  -3.448 -10.550  1.00  0.00    -0.648 OA
BRANCH   9  11
HETATM   11  O   UNL     1     -36.614  -1.312  -9.824  1.00  0.00    -0.775 OA
HETATM   12  H   UNL     1     -37.600  -1.334  -9.904  1.00  0.00     0.167 HD
ENDBRANCH   9  11
ENDBRANCH   8   9
BRANCH   6  13
HETATM   13  O   UNL     1     -32.784  -4.461 -12.891  1.00  0.00    -0.394 OA
HETATM   14  H   UNL     1     -32.578  -4.020 -13.735  1.00  0.00     0.210 HD
ENDBRANCH   6  13
TORSDOF 3
ENDMDL
MODEL 4
REMARK VINA RESULT:      -5.2      1.801      4.391
REMARK  3 active torsions:
REMARK  status: ('A' for Active; 'I' for Inactive)
REMARK       I    between atoms: C_2  and  N_4 
REMARK    1  A    between atoms: C_6  and  O_12 
REMARK    2  A    between atoms: C_8  and  C_9 
REMARK    3  A    between atoms: C_9  and  O_11 
ROOT
HETATM    1  C   UNL     1     -24.237  -1.719 -13.863  1.00  0.00     0.117 C 
HETATM    2  C   UNL     1     -23.316  -2.850 -13.495  1.00  0.00     0.216 C 
HETATM    3  O   UNL     1     -22.409  -3.221 -14.246  1.00  0.00    -0.274 OA
HETATM    4  N   UNL     1     -23.452  -3.417 -12.257  1.00  0.00    -0.335 N 
HETATM    5  C   UNL     1     -24.260  -2.928 -11.149  1.00  0.00     0.158 C 
HETATM    6  C   UNL     1     -24.136  -3.993 -10.049  1.00  0.00     0.138 C 
HETATM    7  C   UNL     1     -23.386  -5.158 -10.702  1.00  0.00     0.069 C 
HETATM    8  C   UNL     1     -22.581  -4.507 -11.816  1.00  0.00     0.187 C 
ENDROOT
BRANCH   8   9
HETATM    9  C   UNL     1     -21.224  -3.963 -11.343  1.00  0.00     0.163 C 
HETATM   10  O   UNL     1     -20.394  -4.613 -10.724  1.00  0.00    -0.648 OA
BRANCH   9  11
HETATM   11  O   UNL     1     -21.009  -2.673 -11.700  1.00  0.00    -0.775 OA
HETATM   12  H   UNL     1     -21.805  -2.101 -11.566  1.00  0.00     0.167 HD
ENDBRANCH   9  11
ENDBRANCH   8   9
BRANCH   6  13
HETATM   13  O   UNL     1     -25.413  -4.424  -9.595  1.00  0.00    -0.394 OA
HETATM   14  H   UNL     1     -25.395  -5.392  -9.490  1.00  0.00     0.210 HD
ENDBRANCH   6  13
TORSDOF 3
ENDMDL
MODEL 5
REMARK VINA RESULT:      -5.1      1.575      3.518
REMARK  3 active torsions:
REMARK  status: ('A' for Active; 'I' for Inactive)
REMARK       I    between atoms: C_2  and  N_4 
REMARK    1  A    between atoms: C_6  and  O_12 
REMARK    2  A    between atoms: C_8  and  C_9 
REMARK    3  A    between atoms: C_9  and  O_11 
ROOT
HETATM    1  C   UNL     1     -20.195  -3.473 -11.569  1.00  0.00     0.117 C 
HETATM    2  C   UNL     1     -21.566  -3.219 -11.005  1.00  0.00     0.216 C 
HETATM    3  O   UNL     1     -22.410  -2.560 -11.619  1.00  0.00    -0.274 OA
HETATM    4  N   UNL     1     -21.895  -3.809  -9.816  1.00  0.00    -0.335 N 
HETATM    5  C   UNL     1     -21.144  -4.834  -9.104  1.00  0.00     0.158 C 
HETATM    6  C   UNL     1     -21.900  -5.056  -7.786  1.00  0.00     0.138 C 
HETATM    7  C   UNL     1     -22.971  -3.962  -7.749  1.00  0.00     0.069 C 
HETATM    8  C   UNL     1     -23.216  -3.629  -9.212  1.00  0.00     0.187 C 
ENDROOT
BRANCH   8   9
HETATM    9  C   UNL     1     -24.250  -4.550  -9.878  1.00  0.00     0.163 C 
HETATM   10  O   UNL     1     -23.972  -5.497 -10.598  1.00  0.00    -0.648 OA
BRANCH   9  11
HETATM   11  O   UNL     1     -25.530  -4.227  -9.573  1.00  0.00    -0.775 OA
HETATM   12  H   UNL     1     -25.657  -4.029  -8.612  1.00  0.00     0.167 HD
ENDBRANCH   9  11
ENDBRANCH   8   9
BRANCH   6  13
HETATM   13  O   UNL     1     -21.035  -4.935  -6.662  1.00  0.00    -0.394 OA
HETATM   14  H   UNL     1     -21.576  -4.945  -5.852  1.00  0.00     0.210 HD
ENDBRANCH   6  13
TORSDOF 3
ENDMDL
MODEL 6
REMARK VINA RESULT:      -4.9      1.501      3.529
REMARK  3 active torsions:
REMARK  status: ('A' for Active; 'I' for Inactive)
REMARK       I    between atoms: C_2  and  N_4 
REMARK    1  A    between atoms: C_6  and  O_12 
REMARK    2  A    between atoms: C_8  and  C_9 
REMARK    3  A    between atoms: C_9  and  O_11 
ROOT
HETATM    1  C   UNL     1     -22.309  -3.136 -13.214  1.00  0.00     0.117 C 
HETATM    2  C   UNL     1     -22.054  -3.982 -11.996  1.00  0.00     0.216 C 
HETATM    3  O   UNL     1     -21.054  -4.699 -11.900  1.00  0.00    -0.274 OA
HETATM    4  N   UNL     1     -22.924  -3.880 -10.945  1.00  0.00    -0.335 N 
HETATM    5  C   UNL     1     -23.979  -2.892 -10.768  1.00  0.00     0.158 C 
HETATM    6  C   UNL     1     -24.713  -3.301  -9.483  1.00  0.00     0.138 C 
HETATM    7  C   UNL     1     -24.123  -4.661  -9.100  1.00  0.00     0.069 C 
HETATM    8  C   UNL     1     -22.733  -4.652  -9.717  1.00  0.00     0.187 C 
ENDROOT
BRANCH   8   9
HETATM    9  C   UNL     1     -21.675  -3.995  -8.818  1.00  0.00     0.163 C 
HETATM   10  O   UNL     1     -21.923  -3.374  -7.795  1.00  0.00    -0.648 OA
BRANCH   9  11
HETATM   11  O   UNL     1     -20.406  -4.186  -9.255  1.00  0.00    -0.775 OA
HETATM   12  H   UNL     1     -19.804  -4.527  -8.548  1.00  0.00     0.167 HD
ENDBRANCH   9  11
ENDBRANCH   8   9
BRANCH   6  13
HETATM   13  O   UNL     1     -26.115  -3.417  -9.699  1.00  0.00    -0.394 OA
HETATM   14  H   UNL     1     -26.285  -3.394 -10.657  1.00  0.00     0.210 HD
ENDBRANCH   6  13
TORSDOF 3
ENDMDL
MODEL 7
REMARK VINA RESULT:      -4.8      8.391     10.241
REMARK  3 active torsions:
REMARK  status: ('A' for Active; 'I' for Inactive)
REMARK       I    between atoms: C_2  and  N_4 
REMARK    1  A    between atoms: C_6  and  O_12 
REMARK    2  A    between atoms: C_8  and  C_9 
REMARK    3  A    between atoms: C_9  and  O_11 
ROOT
HETATM    1  C   UNL     1     -25.845  -6.537 -15.979  1.00  0.00     0.117 C 
HETATM    2  C   UNL     1     -26.523  -6.420 -17.317  1.00  0.00     0.216 C 
HETATM    3  O   UNL     1     -25.883  -6.413 -18.372  1.00  0.00    -0.274 OA
HETATM    4  N   UNL     1     -27.891  -6.401 -17.349  1.00  0.00    -0.335 N 
HETATM    5  C   UNL     1     -28.801  -6.685 -16.248  1.00  0.00     0.158 C 
HETATM    6  C   UNL     1     -30.208  -6.415 -16.799  1.00  0.00     0.138 C 
HETATM    7  C   UNL     1     -29.986  -5.788 -18.178  1.00  0.00     0.069 C 
HETATM    8  C   UNL     1     -28.625  -6.311 -18.611  1.00  0.00     0.187 C 
ENDROOT
BRANCH   8   9
HETATM    9  C   UNL     1     -28.694  -7.682 -19.301  1.00  0.00     0.163 C 
HETATM   10  O   UNL     1     -29.586  -8.501 -19.128  1.00  0.00    -0.648 OA
BRANCH   9  11
HETATM   11  O   UNL     1     -27.668  -7.905 -20.157  1.00  0.00    -0.775 OA
HETATM   12  H   UNL     1     -27.971  -8.221 -21.044  1.00  0.00     0.167 HD
ENDBRANCH   9  11
ENDBRANCH   8   9
BRANCH   6  13
HETATM   13  O   UNL     1     -30.933  -5.520 -15.963  1.00  0.00    -0.394 OA
HETATM   14  H   UNL     1     -30.846  -4.619 -16.324  1.00  0.00     0.210 HD
ENDBRANCH   6  13
TORSDOF 3
ENDMDL
MODEL 8
REMARK VINA RESULT:      -4.7      8.934     10.769
REMARK  3 active torsions:
REMARK  status: ('A' for Active; 'I' for Inactive)
REMARK       I    between atoms: C_2  and  N_4 
REMARK    1  A    between atoms: C_6  and  O_12 
REMARK    2  A    between atoms: C_8  and  C_9 
REMARK    3  A    between atoms: C_9  and  O_11 
ROOT
HETATM    1  C   UNL     1     -21.759  -6.526  -3.491  1.00  0.00     0.117 C 
HETATM    2  C   UNL     1     -21.895  -6.853  -2.029  1.00  0.00     0.216 C 
HETATM    3  O   UNL     1     -22.346  -6.039  -1.219  1.00  0.00    -0.274 OA
HETATM    4  N   UNL     1     -21.580  -8.120  -1.619  1.00  0.00    -0.335 N 
HETATM    5  C   UNL     1     -21.312  -9.277  -2.462  1.00  0.00     0.158 C 
HETATM    6  C   UNL     1     -20.909 -10.403  -1.498  1.00  0.00     0.138 C 
HETATM    7  C   UNL     1     -20.786  -9.732  -0.127  1.00  0.00     0.069 C 
HETATM    8  C   UNL     1     -21.706  -8.524  -0.218  1.00  0.00     0.187 C 
ENDROOT
BRANCH   8   9
HETATM    9  C   UNL     1     -23.168  -8.848   0.126  1.00  0.00     0.163 C 
HETATM   10  O   UNL     1     -23.685  -9.947  -0.011  1.00  0.00    -0.648 OA
BRANCH   9  11
HETATM   11  O   UNL     1     -23.848  -7.790   0.629  1.00  0.00    -0.775 OA
HETATM   12  H   UNL     1     -24.331  -7.278  -0.068  1.00  0.00     0.167 HD
ENDBRANCH   9  11
ENDBRANCH   8   9
BRANCH   6  13
HETATM   13  O   UNL     1     -19.667 -10.988  -1.870  1.00  0.00    -0.394 OA
HETATM   14  H   UNL     1     -19.791 -11.474  -2.706  1.00  0.00     0.210 HD
ENDBRANCH   6  13
TORSDOF 3
ENDMDL
MODEL 9
REMARK VINA RESULT:      -4.7      1.822      4.410
REMARK  3 active torsions:
REMARK  status: ('A' for Active; 'I' for Inactive)
REMARK       I    between atoms: C_2  and  N_4 
REMARK    1  A    between atoms: C_6  and  O_12 
REMARK    2  A    between atoms: C_8  and  C_9 
REMARK    3  A    between atoms: C_9  and  O_11 
ROOT
HETATM    1  C   UNL     1     -24.333  -3.306 -11.660  1.00  0.00     0.117 C 
HETATM    2  C   UNL     1     -23.115  -4.086 -11.247  1.00  0.00     0.216 C 
HETATM    3  O   UNL     1     -22.322  -4.542 -12.075  1.00  0.00    -0.274 OA
HETATM    4  N   UNL     1     -22.854  -4.215  -9.910  1.00  0.00    -0.335 N 
HETATM    5  C   UNL     1     -23.507  -3.514  -8.813  1.00  0.00     0.158 C 
HETATM    6  C   UNL     1     -22.910  -4.111  -7.531  1.00  0.00     0.138 C 
HETATM    7  C   UNL     1     -22.058  -5.294  -7.998  1.00  0.00     0.069 C 
HETATM    8  C   UNL     1     -21.678  -4.940  -9.427  1.00  0.00     0.187 C 
ENDROOT
BRANCH   8   9
HETATM    9  C   UNL     1     -20.420  -4.062  -9.520  1.00  0.00     0.163 C 
HETATM   10  O   UNL     1     -19.747  -3.712  -8.561  1.00  0.00    -0.648 OA
BRANCH   9  11
HETATM   11  O   UNL     1     -20.099  -3.718 -10.790  1.00  0.00    -0.775 OA
HETATM   12  H   UNL     1     -19.122  -3.705 -10.948  1.00  0.00     0.167 HD
ENDBRANCH   9  11
ENDBRANCH   8   9
BRANCH   6  13
HETATM   13  O   UNL     1     -23.927  -4.558  -6.642  1.00  0.00    -0.394 OA
HETATM   14  H   UNL     1     -23.513  -5.096  -5.943  1.00  0.00     0.210 HD
ENDBRANCH   6  13
TORSDOF 3
ENDMDL
