MODEL 1
REMARK VINA RESULT:      -7.3      0.000      0.000
REMARK WARNING: 32 MAX_TORS EXCEEDED!!!
REMARK  35 active torsions:
REMARK  status: ('A' for Active; 'I' for Inactive)
REMARK    1  A    between atoms: C_2  and  C_4 
REMARK    2  A    between atoms: C_4  and  C_5 
REMARK    3  A    between atoms: C_4  and  N_8 
REMARK       I    between atoms: C_5  and  N_7 
REMARK       I    between atoms: N_8  and  C_9 
REMARK    4  A    between atoms: C_9  and  C_11 
REMARK       I    between atoms: N_15  and  C_16 
REMARK    5  A    between atoms: C_16  and  C_18 
REMARK    6  A    between atoms: C_18  and  C_19 
REMARK    7  A    between atoms: C_18  and  N_24 
REMARK    8  A    between atoms: C_19  and  C_20 
REMARK    9  A    between atoms: C_20  and  C_21 
REMARK   10  A    between atoms: C_21  and  C_22 
REMARK   11  A    between atoms: C_22  and  N_23 
REMARK       I    between atoms: N_24  and  C_25 
REMARK   12  A    between atoms: C_25  and  C_27 
REMARK   13  A    between atoms: C_27  and  C_28 
REMARK   14  A    between atoms: C_27  and  N_35 
REMARK   15  A    between atoms: C_28  and  C_29 
REMARK       I    between atoms: N_35  and  C_36 
REMARK   16  A    between atoms: C_36  and  C_38 
REMARK   17  A    between atoms: C_38  and  C_39 
REMARK   18  A    between atoms: C_38  and  N_49 
REMARK   19  A    between atoms: C_39  and  C_40 
REMARK       I    between atoms: N_49  and  C_50 
REMARK   20  A    between atoms: C_50  and  C_52 
REMARK   21  A    between atoms: C_52  and  C_53 
REMARK   22  A    between atoms: C_52  and  N_61 
REMARK   23  A    between atoms: C_53  and  C_54 
REMARK   24  A    between atoms: C_54  and  C_55 
REMARK   25  A    between atoms: C_55  and  N_56 
REMARK       I    between atoms: C_58  and  N_59 
REMARK       I    between atoms: C_58  and  N_60 
REMARK       I    between atoms: N_61  and  C_62 
REMARK   26  A    between atoms: C_62  and  C_64 
REMARK   27  A    between atoms: C_64  and  C_65 
REMARK   28  A    between atoms: C_64  and  N_72 
REMARK   29  A    between atoms: C_65  and  C_66 
REMARK       I    between atoms: N_72  and  C_73 
REMARK   30  A    between atoms: C_73  and  C_75 
REMARK       I    between atoms: N_79  and  C_80 
REMARK   31  A    between atoms: C_80  and  C_82 
REMARK   32  A    between atoms: C_82  and  C_83 
REMARK   33  A    between atoms: C_82  and  N_87 
REMARK   34  A    between atoms: C_83  and  C_84 
REMARK   35  A    between atoms: C_84  and  S_85 
ROOT
HETATM    1  C   UNL     1     -16.742 -13.151  -3.592  1.00  0.00     0.181 C 
ENDROOT
BRANCH   1   2
HETATM    2  C   UNL     1     -18.160 -12.521  -3.915  1.00  0.00     0.241 C 
HETATM    3  N   UNL     1     -18.225 -11.337  -4.628  1.00  0.00    -0.346 N 
HETATM    4  H   UNL     1     -17.369 -10.847  -4.858  1.00  0.00     0.163 HD
HETATM    5  O   UNL     1     -19.192 -13.074  -3.519  1.00  0.00    -0.271 OA
BRANCH   3   6
HETATM    6  C   UNL     1     -19.486 -10.596  -4.908  1.00  0.00     0.180 C 
BRANCH   6   7
HETATM    7  C   UNL     1     -19.451  -9.064  -4.467  1.00  0.00     0.241 C 
HETATM    8  N   UNL     1     -20.349  -8.214  -5.124  1.00  0.00    -0.346 N 
HETATM    9  H   UNL     1     -20.865  -8.589  -5.909  1.00  0.00     0.163 HD
HETATM   10  O   UNL     1     -18.724  -8.710  -3.539  1.00  0.00    -0.271 OA
BRANCH   8  11
HETATM   11  C   UNL     1     -20.700  -6.817  -4.721  1.00  0.00     0.176 C 
BRANCH  11  12
HETATM   12  C   UNL     1     -21.179  -6.003  -5.920  1.00  0.00     0.243 C 
HETATM   13  N   UNL     1     -20.307  -5.275  -6.703  1.00  0.00    -0.337 N 
HETATM   14  C   UNL     1     -20.733  -3.994  -7.355  1.00  0.00     0.179 C 
HETATM   15  C   UNL     1     -18.859  -5.391  -6.740  1.00  0.00     0.127 C 
HETATM   16  C   UNL     1     -19.612  -3.770  -8.356  1.00  0.00     0.037 C 
HETATM   17  C   UNL     1     -18.360  -4.245  -7.632  1.00  0.00     0.022 C 
HETATM   18  O   UNL     1     -22.409  -5.832  -6.001  1.00  0.00    -0.271 OA
BRANCH  14  19
HETATM   19  C   UNL     1     -22.122  -3.959  -7.993  1.00  0.00     0.241 C 
HETATM   20  N   UNL     1     -22.135  -3.781  -9.379  1.00  0.00    -0.346 N 
HETATM   21  H   UNL     1     -21.326  -3.296  -9.754  1.00  0.00     0.163 HD
HETATM   22  O   UNL     1     -23.144  -4.078  -7.310  1.00  0.00    -0.271 OA
BRANCH  20  23
HETATM   23  C   UNL     1     -23.403  -3.540 -10.070  1.00  0.00     0.179 C 
BRANCH  23  24
HETATM   24  C   UNL     1     -23.346  -2.788 -11.423  1.00  0.00     0.009 C 
HETATM   25  C   UNL     1     -21.955  -2.869 -12.062  1.00  0.00     0.012 C 
HETATM   26  C   UNL     1     -24.377  -3.135 -12.499  1.00  0.00     0.012 C 
ENDBRANCH  23  24
BRANCH  23  27
HETATM   27  C   UNL     1     -24.170  -4.895 -10.138  1.00  0.00     0.238 C 
HETATM   28  O   UNL     1     -23.801  -5.896 -10.742  1.00  0.00    -0.271 OA
HETATM   29  N   UNL     1     -25.350  -4.915  -9.452  1.00  0.00    -0.368 N 
HETATM   30  H   UNL     1     -25.678  -4.087  -8.953  1.00  0.00     0.159 HD
HETATM   31  H   UNL     1     -25.917  -5.749  -9.451  1.00  0.00     0.159 HD
ENDBRANCH  23  27
ENDBRANCH  20  23
ENDBRANCH  14  19
ENDBRANCH  11  12
BRANCH  11  32
HETATM   32  C   UNL     1     -21.919  -6.824  -3.720  1.00  0.00     0.035 C 
BRANCH  32  33
HETATM   33  C   UNL     1     -21.531  -6.726  -2.211  1.00  0.00     0.004 C 
BRANCH  33  34
HETATM   34  C   UNL     1     -22.660  -6.964  -1.196  1.00  0.00     0.030 C 
BRANCH  34  35
HETATM   35  C   UNL     1     -22.150  -7.166   0.249  1.00  0.00     0.267 C 
BRANCH  35  36
HETATM   36  N   UNL     1     -22.975  -8.090   1.037  1.00  0.00     0.078 N 
HETATM   37  H   UNL     1     -22.667  -8.071   2.008  1.00  0.00     0.312 HD
HETATM   38  H   UNL     1     -22.783  -9.045   0.719  1.00  0.00     0.312 HD
ENDBRANCH  35  36
ENDBRANCH  34  35
ENDBRANCH  33  34
ENDBRANCH  32  33
ENDBRANCH  11  32
ENDBRANCH   8  11
ENDBRANCH   6   7
BRANCH   6  39
HETATM   39  C   UNL     1     -19.973 -10.840  -6.356  1.00  0.00     0.073 C 
BRANCH  39  40
HETATM   40  C   UNL     1     -19.586 -12.106  -7.107  1.00  0.00    -0.056 A 
HETATM   41  C   UNL     1     -20.314 -13.300  -7.063  1.00  0.00     0.007 A 
HETATM   42  C   UNL     1     -19.953 -14.390  -7.864  1.00  0.00     0.001 A 
HETATM   43  C   UNL     1     -18.855 -14.308  -8.715  1.00  0.00     0.000 A 
HETATM   44  C   UNL     1     -18.087 -13.149  -8.735  1.00  0.00     0.001 A 
HETATM   45  C   UNL     1     -18.441 -12.065  -7.927  1.00  0.00     0.007 A 
ENDBRANCH  39  40
ENDBRANCH   6  39
ENDBRANCH   3   6
ENDBRANCH   1   2
BRANCH   1  46
HETATM   46  C   UNL     1     -15.554 -12.190  -3.740  1.00  0.00     0.075 C 
BRANCH  46  47
HETATM   47  C   UNL     1     -14.551 -12.623  -4.768  1.00  0.00    -0.028 C 
HETATM   48  C   UNL     1     -14.484 -12.211  -6.092  1.00  0.00     0.096 C 
HETATM   49  N   UNL     1     -13.390 -12.823  -6.631  1.00  0.00    -0.365 N 
HETATM   50  C   UNL     1     -13.241 -13.998  -5.937  1.00  0.00     0.042 C 
HETATM   51  H   UNL     1     -12.592 -12.277  -6.921  1.00  0.00     0.165 HD
HETATM   52  C   UNL     1     -12.868 -15.272  -6.343  1.00  0.00     0.030 C 
HETATM   53  C   UNL     1     -13.612 -13.692  -4.634  1.00  0.00    -0.002 C 
HETATM   54  C   UNL     1     -12.714 -16.213  -5.325  1.00  0.00     0.002 C 
HETATM   55  C   UNL     1     -12.786 -15.840  -3.980  1.00  0.00     0.001 C 
HETATM   56  C   UNL     1     -13.226 -14.565  -3.605  1.00  0.00     0.014 C 
ENDBRANCH  46  47
ENDBRANCH   1  46
BRANCH   1  57
HETATM   57  N   UNL     1     -16.855 -13.730  -2.238  1.00  0.00    -0.346 N 
HETATM   58  C   UNL     1     -16.563 -15.029  -1.896  1.00  0.00     0.241 C 
HETATM   59  O   UNL     1     -16.205 -15.895  -2.699  1.00  0.00    -0.271 OA
HETATM   60  H   UNL     1     -17.483 -13.218  -1.626  1.00  0.00     0.163 HD
BRANCH  58  61
HETATM   61  C   UNL     1     -16.706 -15.403  -0.401  1.00  0.00     0.176 C 
BRANCH  61  62
HETATM   62  C   UNL     1     -15.644 -14.816   0.552  1.00  0.00     0.036 C 
BRANCH  62  63
HETATM   63  C   UNL     1     -14.216 -14.868   0.016  1.00  0.00     0.022 C 
BRANCH  63  64
HETATM   64  C   UNL     1     -13.308 -15.707   0.904  1.00  0.00     0.121 C 
BRANCH  64  65
HETATM   65  N   UNL     1     -11.932 -15.328   0.636  1.00  0.00    -0.372 N 
HETATM   66  C   UNL     1     -11.117 -15.377   1.616  1.00  0.00     0.121 C 
HETATM   67  N   UNL     1     -11.324 -15.687   2.912  1.00  0.00    -0.279 NA
HETATM   68  N   UNL     1      -9.812 -15.060   1.419  1.00  0.00    -0.279 NA
HETATM   69  H   UNL     1     -12.224 -16.107   3.097  1.00  0.00     0.126 HD
HETATM   70  H   UNL     1     -10.574 -16.243   3.304  1.00  0.00     0.126 HD
HETATM   71  H   UNL     1      -9.707 -14.588   0.524  1.00  0.00     0.126 HD
HETATM   72  H   UNL     1      -9.414 -14.512   2.170  1.00  0.00     0.126 HD
ATOM     73  HN  UNL     1     -11.631 -15.035  -0.293  1.00  0.00     0.161 HD
ENDBRANCH  64  65
ENDBRANCH  63  64
ENDBRANCH  62  63
ENDBRANCH  61  62
BRANCH  61  74
HETATM   74  N   UNL     1     -18.100 -15.084  -0.071  1.00  0.00    -0.346 N 
HETATM   75  C   UNL     1     -19.013 -16.109  -0.192  1.00  0.00     0.241 C 
HETATM   76  O   UNL     1     -18.659 -17.149  -0.749  1.00  0.00    -0.271 OA
HETATM   77  H   UNL     1     -18.257 -14.352   0.608  1.00  0.00     0.163 HD
BRANCH  75  78
HETATM   78  C   UNL     1     -20.427 -15.984   0.419  1.00  0.00     0.180 C 
BRANCH  78  79
HETATM   79  C   UNL     1     -20.564 -15.172   1.731  1.00  0.00     0.073 C 
BRANCH  79  80
HETATM   80  C   UNL     1     -21.734 -15.377   2.673  1.00  0.00    -0.056 A 
HETATM   81  C   UNL     1     -22.884 -14.582   2.663  1.00  0.00     0.007 A 
HETATM   82  C   UNL     1     -23.956 -14.855   3.514  1.00  0.00     0.001 A 
HETATM   83  C   UNL     1     -23.898 -15.931   4.396  1.00  0.00     0.000 A 
HETATM   84  C   UNL     1     -22.745 -16.706   4.461  1.00  0.00     0.001 A 
HETATM   85  C   UNL     1     -21.666 -16.423   3.617  1.00  0.00     0.007 A 
ENDBRANCH  79  80
ENDBRANCH  78  79
BRANCH  78  86
HETATM   86  N   UNL     1     -21.359 -15.564  -0.656  1.00  0.00    -0.346 N 
HETATM   87  C   UNL     1     -22.509 -16.326  -0.905  1.00  0.00     0.241 C 
HETATM   88  O   UNL     1     -22.916 -17.182  -0.119  1.00  0.00    -0.271 OA
HETATM   89  H   UNL     1     -20.975 -15.030  -1.424  1.00  0.00     0.163 HD
BRANCH  87  90
HETATM   90  C   UNL     1     -23.312 -15.939  -2.179  1.00  0.00     0.179 C 
HETATM   91  C   UNL     1     -22.601 -16.659  -3.343  1.00  0.00     0.037 C 
HETATM   92  C   UNL     1     -22.999 -15.890  -4.590  1.00  0.00     0.022 C 
HETATM   93  C   UNL     1     -23.216 -14.472  -4.097  1.00  0.00     0.127 C 
HETATM   94  N   UNL     1     -23.245 -14.544  -2.639  1.00  0.00    -0.337 N 
HETATM   95  C   UNL     1     -23.530 -13.438  -1.839  1.00  0.00     0.253 C 
HETATM   96  O   UNL     1     -24.026 -13.549  -0.719  1.00  0.00    -0.271 OA
BRANCH  95  97
HETATM   97  C   UNL     1     -23.155 -12.046  -2.469  1.00  0.00     0.309 C 
BRANCH  97  98
HETATM   98  C   UNL     1     -23.147 -10.846  -1.497  1.00  0.00     0.055 C 
BRANCH  98  99
HETATM   99  C   UNL     1     -22.148 -10.956  -0.310  1.00  0.00     0.076 C 
BRANCH  99 100
HETATM  100  S   UNL     1     -20.453 -10.345  -0.677  1.00  0.00    -0.173 SA
HETATM  101  C   UNL     1     -19.432 -11.793  -0.323  1.00  0.00     0.089 C 
ENDBRANCH  99 100
ENDBRANCH  98  99
ENDBRANCH  97  98
BRANCH  97 102
HETATM  102  N   UNL     1     -21.820 -12.186  -3.098  1.00  0.00     0.092 N 
HETATM  103  H   UNL     1     -21.521 -13.158  -2.989  1.00  0.00     0.313 HD
HETATM  104  H   UNL     1     -21.150 -11.646  -2.542  1.00  0.00     0.313 HD
ENDBRANCH  97 102
ENDBRANCH  95  97
ENDBRANCH  87  90
ENDBRANCH  78  86
ENDBRANCH  75  78
ENDBRANCH  61  74
ENDBRANCH  58  61
ENDBRANCH   1  57
TORSDOF 35
ENDMDL
MODEL 2
REMARK VINA RESULT:      -5.7      3.505      9.486
REMARK WARNING: 32 MAX_TORS EXCEEDED!!!
REMARK  35 active torsions:
REMARK  status: ('A' for Active; 'I' for Inactive)
REMARK    1  A    between atoms: C_2  and  C_4 
REMARK    2  A    between atoms: C_4  and  C_5 
REMARK    3  A    between atoms: C_4  and  N_8 
REMARK       I    between atoms: C_5  and  N_7 
REMARK       I    between atoms: N_8  and  C_9 
REMARK    4  A    between atoms: C_9  and  C_11 
REMARK       I    between atoms: N_15  and  C_16 
REMARK    5  A    between atoms: C_16  and  C_18 
REMARK    6  A    between atoms: C_18  and  C_19 
REMARK    7  A    between atoms: C_18  and  N_24 
REMARK    8  A    between atoms: C_19  and  C_20 
REMARK    9  A    between atoms: C_20  and  C_21 
REMARK   10  A    between atoms: C_21  and  C_22 
REMARK   11  A    between atoms: C_22  and  N_23 
REMARK       I    between atoms: N_24  and  C_25 
REMARK   12  A    between atoms: C_25  and  C_27 
REMARK   13  A    between atoms: C_27  and  C_28 
REMARK   14  A    between atoms: C_27  and  N_35 
REMARK   15  A    between atoms: C_28  and  C_29 
REMARK       I    between atoms: N_35  and  C_36 
REMARK   16  A    between atoms: C_36  and  C_38 
REMARK   17  A    between atoms: C_38  and  C_39 
REMARK   18  A    between atoms: C_38  and  N_49 
REMARK   19  A    between atoms: C_39  and  C_40 
REMARK       I    between atoms: N_49  and  C_50 
REMARK   20  A    between atoms: C_50  and  C_52 
REMARK   21  A    between atoms: C_52  and  C_53 
REMARK   22  A    between atoms: C_52  and  N_61 
REMARK   23  A    between atoms: C_53  and  C_54 
REMARK   24  A    between atoms: C_54  and  C_55 
REMARK   25  A    between atoms: C_55  and  N_56 
REMARK       I    between atoms: C_58  and  N_59 
REMARK       I    between atoms: C_58  and  N_60 
REMARK       I    between atoms: N_61  and  C_62 
REMARK   26  A    between atoms: C_62  and  C_64 
REMARK   27  A    between atoms: C_64  and  C_65 
REMARK   28  A    between atoms: C_64  and  N_72 
REMARK   29  A    between atoms: C_65  and  C_66 
REMARK       I    between atoms: N_72  and  C_73 
REMARK   30  A    between atoms: C_73  and  C_75 
REMARK       I    between atoms: N_79  and  C_80 
REMARK   31  A    between atoms: C_80  and  C_82 
REMARK   32  A    between atoms: C_82  and  C_83 
REMARK   33  A    between atoms: C_82  and  N_87 
REMARK   34  A    between atoms: C_83  and  C_84 
REMARK   35  A    between atoms: C_84  and  S_85 
ROOT
HETATM    1  C   UNL     1     -16.744 -12.153  -0.124  1.00  0.00     0.181 C 
ENDROOT
BRANCH   1   2
HETATM    2  C   UNL     1     -17.406 -11.447  -1.379  1.00  0.00     0.241 C 
HETATM    3  N   UNL     1     -18.768 -11.207  -1.377  1.00  0.00    -0.346 N 
HETATM    4  H   UNL     1     -19.334 -11.561  -0.616  1.00  0.00     0.163 HD
HETATM    5  O   UNL     1     -16.712 -11.132  -2.353  1.00  0.00    -0.271 OA
BRANCH   3   6
HETATM    6  C   UNL     1     -19.520 -10.644  -2.532  1.00  0.00     0.180 C 
BRANCH   6   7
HETATM    7  C   UNL     1     -21.046 -11.100  -2.598  1.00  0.00     0.241 C 
HETATM    8  N   UNL     1     -21.514 -11.849  -1.511  1.00  0.00    -0.346 N 
HETATM    9  H   UNL     1     -20.837 -12.156  -0.826  1.00  0.00     0.163 HD
HETATM   10  O   UNL     1     -21.760 -10.720  -3.528  1.00  0.00    -0.271 OA
BRANCH   8  11
HETATM   11  C   UNL     1     -22.942 -12.166  -1.205  1.00  0.00     0.176 C 
BRANCH  11  12
HETATM   12  C   UNL     1     -23.071 -13.532  -0.536  1.00  0.00     0.243 C 
HETATM   13  N   UNL     1     -23.596 -14.622  -1.199  1.00  0.00    -0.337 N 
HETATM   14  C   UNL     1     -24.372 -15.676  -0.466  1.00  0.00     0.179 C 
HETATM   15  C   UNL     1     -23.805 -14.760  -2.629  1.00  0.00     0.127 C 
HETATM   16  C   UNL     1     -24.419 -16.794  -1.494  1.00  0.00     0.037 C 
HETATM   17  C   UNL     1     -24.572 -16.074  -2.827  1.00  0.00     0.022 C 
HETATM   18  O   UNL     1     -22.913 -13.547   0.699  1.00  0.00    -0.271 OA
BRANCH  14  19
HETATM   19  C   UNL     1     -23.832 -16.130   0.889  1.00  0.00     0.241 C 
HETATM   20  N   UNL     1     -24.589 -15.734   1.995  1.00  0.00    -0.346 N 
HETATM   21  H   UNL     1     -25.137 -14.890   1.856  1.00  0.00     0.163 HD
HETATM   22  O   UNL     1     -22.794 -16.796   0.975  1.00  0.00    -0.271 OA
BRANCH  20  23
HETATM   23  C   UNL     1     -24.070 -15.944   3.347  1.00  0.00     0.179 C 
BRANCH  23  24
HETATM   24  C   UNL     1     -22.897 -15.044   3.809  1.00  0.00     0.009 C 
HETATM   25  C   UNL     1     -22.670 -15.134   5.322  1.00  0.00     0.012 C 
HETATM   26  C   UNL     1     -21.540 -15.198   3.121  1.00  0.00     0.012 C 
ENDBRANCH  23  24
BRANCH  23  27
HETATM   27  C   UNL     1     -25.283 -15.945   4.326  1.00  0.00     0.238 C 
HETATM   28  O   UNL     1     -25.921 -14.958   4.675  1.00  0.00    -0.271 OA
HETATM   29  N   UNL     1     -25.621 -17.175   4.811  1.00  0.00    -0.368 N 
HETATM   30  H   UNL     1     -25.093 -18.007   4.540  1.00  0.00     0.159 HD
HETATM   31  H   UNL     1     -26.387 -17.267   5.459  1.00  0.00     0.159 HD
ENDBRANCH  23  27
ENDBRANCH  20  23
ENDBRANCH  14  19
ENDBRANCH  11  12
BRANCH  11  32
HETATM   32  C   UNL     1     -23.519 -11.141  -0.153  1.00  0.00     0.035 C 
BRANCH  32  33
HETATM   33  C   UNL     1     -23.253  -9.639  -0.486  1.00  0.00     0.004 C 
BRANCH  33  34
HETATM   34  C   UNL     1     -23.192  -8.673   0.708  1.00  0.00     0.030 C 
BRANCH  34  35
HETATM   35  C   UNL     1     -21.784  -8.565   1.336  1.00  0.00     0.267 C 
BRANCH  35  36
HETATM   36  N   UNL     1     -20.714  -9.057   0.460  1.00  0.00     0.078 N 
HETATM   37  H   UNL     1     -21.022  -9.915   0.002  1.00  0.00     0.312 HD
HETATM   38  H   UNL     1     -19.923  -9.341   1.045  1.00  0.00     0.312 HD
ENDBRANCH  35  36
ENDBRANCH  34  35
ENDBRANCH  33  34
ENDBRANCH  32  33
ENDBRANCH  11  32
ENDBRANCH   8  11
ENDBRANCH   6   7
BRANCH   6  39
HETATM   39  C   UNL     1     -19.297  -9.118  -2.659  1.00  0.00     0.073 C 
BRANCH  39  40
HETATM   40  C   UNL     1     -20.313  -8.237  -3.371  1.00  0.00    -0.056 A 
HETATM   41  C   UNL     1     -21.353  -7.558  -2.727  1.00  0.00     0.007 A 
HETATM   42  C   UNL     1     -22.185  -6.682  -3.435  1.00  0.00     0.001 A 
HETATM   43  C   UNL     1     -21.997  -6.477  -4.799  1.00  0.00     0.000 A 
HETATM   44  C   UNL     1     -21.002  -7.182  -5.468  1.00  0.00     0.001 A 
HETATM   45  C   UNL     1     -20.179  -8.064  -4.763  1.00  0.00     0.007 A 
ENDBRANCH  39  40
ENDBRANCH   6  39
ENDBRANCH   3   6
ENDBRANCH   1   2
BRANCH   1  46
HETATM   46  C   UNL     1     -17.697 -12.418   1.051  1.00  0.00     0.075 C 
BRANCH  46  47
HETATM   47  C   UNL     1     -17.799 -13.865   1.432  1.00  0.00    -0.028 C 
HETATM   48  C   UNL     1     -16.919 -14.580   2.232  1.00  0.00     0.096 C 
HETATM   49  N   UNL     1     -17.435 -15.839   2.343  1.00  0.00    -0.365 N 
HETATM   50  C   UNL     1     -18.141 -16.055   1.185  1.00  0.00     0.042 C 
HETATM   51  H   UNL     1     -17.767 -16.177   3.234  1.00  0.00     0.165 HD
HETATM   52  C   UNL     1     -18.291 -17.181   0.389  1.00  0.00     0.030 C 
HETATM   53  C   UNL     1     -18.702 -14.823   0.874  1.00  0.00    -0.002 C 
HETATM   54  C   UNL     1     -19.190 -17.062  -0.670  1.00  0.00     0.002 C 
HETATM   55  C   UNL     1     -19.992 -15.925  -0.812  1.00  0.00     0.001 C 
HETATM   56  C   UNL     1     -19.772 -14.783  -0.033  1.00  0.00     0.014 C 
ENDBRANCH  46  47
ENDBRANCH   1  46
BRANCH   1  57
HETATM   57  N   UNL     1     -16.104 -13.380  -0.639  1.00  0.00    -0.346 N 
HETATM   58  C   UNL     1     -14.876 -13.864  -0.255  1.00  0.00     0.241 C 
HETATM   59  O   UNL     1     -14.128 -13.301   0.548  1.00  0.00    -0.271 OA
HETATM   60  H   UNL     1     -16.460 -13.677  -1.543  1.00  0.00     0.163 HD
BRANCH  58  61
HETATM   61  C   UNL     1     -14.425 -15.200  -0.893  1.00  0.00     0.176 C 
BRANCH  61  62
HETATM   62  C   UNL     1     -14.277 -16.398   0.068  1.00  0.00     0.036 C 
BRANCH  62  63
HETATM   63  C   UNL     1     -12.856 -16.940   0.188  1.00  0.00     0.022 C 
BRANCH  63  64
HETATM   64  C   UNL     1     -11.814 -15.869  -0.105  1.00  0.00     0.121 C 
BRANCH  64  65
HETATM   65  N   UNL     1     -11.029 -15.654   1.098  1.00  0.00    -0.372 N 
HETATM   66  C   UNL     1     -10.777 -14.445   1.417  1.00  0.00     0.121 C 
HETATM   67  N   UNL     1     -11.083 -13.293   0.788  1.00  0.00    -0.279 NA
HETATM   68  N   UNL     1     -10.072 -14.184   2.546  1.00  0.00    -0.279 NA
HETATM   69  H   UNL     1     -11.759 -13.395   0.044  1.00  0.00     0.126 HD
HETATM   70  H   UNL     1     -11.356 -12.559   1.431  1.00  0.00     0.126 HD
HETATM   71  H   UNL     1      -9.628 -15.037   2.876  1.00  0.00     0.126 HD
HETATM   72  H   UNL     1      -9.395 -13.440   2.433  1.00  0.00     0.126 HD
ATOM     73  HN  UNL     1     -10.695 -16.435   1.663  1.00  0.00     0.161 HD
ENDBRANCH  64  65
ENDBRANCH  63  64
ENDBRANCH  62  63
ENDBRANCH  61  62
BRANCH  61  74
HETATM   74  N   UNL     1     -15.343 -15.401  -2.020  1.00  0.00    -0.346 N 
HETATM   75  C   UNL     1     -15.112 -14.643  -3.147  1.00  0.00     0.241 C 
HETATM   76  O   UNL     1     -14.300 -13.719  -3.079  1.00  0.00    -0.271 OA
HETATM   77  H   UNL     1     -15.770 -16.313  -2.110  1.00  0.00     0.163 HD
BRANCH  75  78
HETATM   78  C   UNL     1     -15.803 -14.986  -4.487  1.00  0.00     0.180 C 
BRANCH  78  79
HETATM   79  C   UNL     1     -15.530 -16.388  -5.087  1.00  0.00     0.073 C 
BRANCH  79  80
HETATM   80  C   UNL     1     -14.224 -16.710  -5.789  1.00  0.00    -0.056 A 
HETATM   81  C   UNL     1     -14.119 -16.916  -7.168  1.00  0.00     0.007 A 
HETATM   82  C   UNL     1     -12.880 -17.150  -7.767  1.00  0.00     0.001 A 
HETATM   83  C   UNL     1     -11.721 -17.183  -6.998  1.00  0.00     0.000 A 
HETATM   84  C   UNL     1     -11.805 -17.031  -5.618  1.00  0.00     0.001 A 
HETATM   85  C   UNL     1     -13.049 -16.810  -5.016  1.00  0.00     0.007 A 
ENDBRANCH  79  80
ENDBRANCH  78  79
BRANCH  78  86
HETATM   86  N   UNL     1     -17.242 -14.648  -4.365  1.00  0.00    -0.346 N 
HETATM   87  C   UNL     1     -18.181 -15.680  -4.223  1.00  0.00     0.241 C 
HETATM   88  O   UNL     1     -17.855 -16.834  -3.944  1.00  0.00    -0.271 OA
HETATM   89  H   UNL     1     -17.555 -13.783  -4.787  1.00  0.00     0.163 HD
BRANCH  87  90
HETATM   90  C   UNL     1     -19.672 -15.251  -4.317  1.00  0.00     0.179 C 
HETATM   91  C   UNL     1     -20.432 -16.514  -4.771  1.00  0.00     0.037 C 
HETATM   92  C   UNL     1     -21.726 -16.005  -5.381  1.00  0.00     0.022 C 
HETATM   93  C   UNL     1     -21.362 -14.640  -5.934  1.00  0.00     0.127 C 
HETATM   94  N   UNL     1     -20.054 -14.308  -5.379  1.00  0.00    -0.337 N 
HETATM   95  C   UNL     1     -19.442 -13.072  -5.587  1.00  0.00     0.253 C 
HETATM   96  O   UNL     1     -18.637 -12.595  -4.789  1.00  0.00    -0.271 OA
BRANCH  95  97
HETATM   97  C   UNL     1     -19.847 -12.347  -6.924  1.00  0.00     0.309 C 
BRANCH  97  98
HETATM   98  C   UNL     1     -20.106 -13.266  -8.137  1.00  0.00     0.055 C 
BRANCH  98  99
HETATM   99  C   UNL     1     -18.833 -13.773  -8.874  1.00  0.00     0.076 C 
BRANCH  99 100
HETATM  100  S   UNL     1     -18.309 -15.474  -8.411  1.00  0.00    -0.173 SA
HETATM  101  C   UNL     1     -17.453 -16.035  -9.900  1.00  0.00     0.089 C 
ENDBRANCH  99 100
ENDBRANCH  98  99
ENDBRANCH  97  98
BRANCH  97 102
HETATM  102  N   UNL     1     -21.058 -11.540  -6.644  1.00  0.00     0.092 N 
HETATM  103  H   UNL     1     -21.064 -11.315  -5.646  1.00  0.00     0.313 HD
HETATM  104  H   UNL     1     -21.878 -12.141  -6.778  1.00  0.00     0.313 HD
ENDBRANCH  97 102
ENDBRANCH  95  97
ENDBRANCH  87  90
ENDBRANCH  78  86
ENDBRANCH  75  78
ENDBRANCH  61  74
ENDBRANCH  58  61
ENDBRANCH   1  57
TORSDOF 35
ENDMDL
MODEL 3
REMARK VINA RESULT:      -5.7      2.150      3.016
REMARK WARNING: 32 MAX_TORS EXCEEDED!!!
REMARK  35 active torsions:
REMARK  status: ('A' for Active; 'I' for Inactive)
REMARK    1  A    between atoms: C_2  and  C_4 
REMARK    2  A    between atoms: C_4  and  C_5 
REMARK    3  A    between atoms: C_4  and  N_8 
REMARK       I    between atoms: C_5  and  N_7 
REMARK       I    between atoms: N_8  and  C_9 
REMARK    4  A    between atoms: C_9  and  C_11 
REMARK       I    between atoms: N_15  and  C_16 
REMARK    5  A    between atoms: C_16  and  C_18 
REMARK    6  A    between atoms: C_18  and  C_19 
REMARK    7  A    between atoms: C_18  and  N_24 
REMARK    8  A    between atoms: C_19  and  C_20 
REMARK    9  A    between atoms: C_20  and  C_21 
REMARK   10  A    between atoms: C_21  and  C_22 
REMARK   11  A    between atoms: C_22  and  N_23 
REMARK       I    between atoms: N_24  and  C_25 
REMARK   12  A    between atoms: C_25  and  C_27 
REMARK   13  A    between atoms: C_27  and  C_28 
REMARK   14  A    between atoms: C_27  and  N_35 
REMARK   15  A    between atoms: C_28  and  C_29 
REMARK       I    between atoms: N_35  and  C_36 
REMARK   16  A    between atoms: C_36  and  C_38 
REMARK   17  A    between atoms: C_38  and  C_39 
REMARK   18  A    between atoms: C_38  and  N_49 
REMARK   19  A    between atoms: C_39  and  C_40 
REMARK       I    between atoms: N_49  and  C_50 
REMARK   20  A    between atoms: C_50  and  C_52 
REMARK   21  A    between atoms: C_52  and  C_53 
REMARK   22  A    between atoms: C_52  and  N_61 
REMARK   23  A    between atoms: C_53  and  C_54 
REMARK   24  A    between atoms: C_54  and  C_55 
REMARK   25  A    between atoms: C_55  and  N_56 
REMARK       I    between atoms: C_58  and  N_59 
REMARK       I    between atoms: C_58  and  N_60 
REMARK       I    between atoms: N_61  and  C_62 
REMARK   26  A    between atoms: C_62  and  C_64 
REMARK   27  A    between atoms: C_64  and  C_65 
REMARK   28  A    between atoms: C_64  and  N_72 
REMARK   29  A    between atoms: C_65  and  C_66 
REMARK       I    between atoms: N_72  and  C_73 
REMARK   30  A    between atoms: C_73  and  C_75 
REMARK       I    between atoms: N_79  and  C_80 
REMARK   31  A    between atoms: C_80  and  C_82 
REMARK   32  A    between atoms: C_82  and  C_83 
REMARK   33  A    between atoms: C_82  and  N_87 
REMARK   34  A    between atoms: C_83  and  C_84 
REMARK   35  A    between atoms: C_84  and  S_85 
ROOT
HETATM    1  C   UNL     1     -17.748 -13.833  -3.871  1.00  0.00     0.181 C 
ENDROOT
BRANCH   1   2
HETATM    2  C   UNL     1     -18.974 -13.095  -4.551  1.00  0.00     0.241 C 
HETATM    3  N   UNL     1     -18.736 -11.994  -5.354  1.00  0.00    -0.346 N 
HETATM    4  H   UNL     1     -17.796 -11.625  -5.426  1.00  0.00     0.163 HD
HETATM    5  O   UNL     1     -20.128 -13.490  -4.350  1.00  0.00    -0.271 OA
BRANCH   3   6
HETATM    6  C   UNL     1     -19.805 -11.157  -5.966  1.00  0.00     0.180 C 
BRANCH   6   7
HETATM    7  C   UNL     1     -19.432  -9.612  -6.088  1.00  0.00     0.241 C 
HETATM    8  N   UNL     1     -20.453  -8.705  -5.778  1.00  0.00    -0.346 N 
HETATM    9  H   UNL     1     -21.381  -9.076  -5.621  1.00  0.00     0.163 HD
HETATM   10  O   UNL     1     -18.277  -9.280  -6.358  1.00  0.00    -0.271 OA
BRANCH   8  11
HETATM   11  C   UNL     1     -20.293  -7.235  -5.558  1.00  0.00     0.176 C 
BRANCH  11  12
HETATM   12  C   UNL     1     -20.291  -6.478  -6.884  1.00  0.00     0.243 C 
HETATM   13  N   UNL     1     -19.400  -5.456  -7.138  1.00  0.00    -0.337 N 
HETATM   14  C   UNL     1     -19.780  -4.293  -8.005  1.00  0.00     0.179 C 
HETATM   15  C   UNL     1     -18.189  -5.147  -6.399  1.00  0.00     0.127 C 
HETATM   16  C   UNL     1     -18.427  -3.658  -8.278  1.00  0.00     0.037 C 
HETATM   17  C   UNL     1     -17.663  -3.823  -6.971  1.00  0.00     0.022 C 
HETATM   18  O   UNL     1     -21.283  -6.661  -7.613  1.00  0.00    -0.271 OA
BRANCH  14  19
HETATM   19  C   UNL     1     -20.567  -4.596  -9.280  1.00  0.00     0.241 C 
HETATM   20  N   UNL     1     -21.797  -3.941  -9.388  1.00  0.00    -0.346 N 
HETATM   21  H   UNL     1     -22.225  -3.689  -8.503  1.00  0.00     0.163 HD
HETATM   22  O   UNL     1     -20.128  -5.371 -10.136  1.00  0.00    -0.271 OA
BRANCH  20  23
HETATM   23  C   UNL     1     -22.720  -4.300 -10.467  1.00  0.00     0.179 C 
BRANCH  23  24
HETATM   24  C   UNL     1     -24.234  -4.291 -10.142  1.00  0.00     0.009 C 
HETATM   25  C   UNL     1     -24.664  -5.557  -9.393  1.00  0.00     0.012 C 
HETATM   26  C   UNL     1     -24.817  -3.087  -9.400  1.00  0.00     0.012 C 
ENDBRANCH  23  24
BRANCH  23  27
HETATM   27  C   UNL     1     -22.342  -3.448 -11.716  1.00  0.00     0.238 C 
HETATM   28  O   UNL     1     -21.558  -2.506 -11.729  1.00  0.00    -0.271 OA
HETATM   29  N   UNL     1     -22.969  -3.822 -12.870  1.00  0.00    -0.368 N 
HETATM   30  H   UNL     1     -23.634  -4.597 -12.875  1.00  0.00     0.159 HD
HETATM   31  H   UNL     1     -22.792  -3.318 -13.725  1.00  0.00     0.159 HD
ENDBRANCH  23  27
ENDBRANCH  20  23
ENDBRANCH  14  19
ENDBRANCH  11  12
BRANCH  11  32
HETATM   32  C   UNL     1     -21.530  -6.661  -4.763  1.00  0.00     0.035 C 
BRANCH  32  33
HETATM   33  C   UNL     1     -21.198  -5.483  -3.793  1.00  0.00     0.004 C 
BRANCH  33  34
HETATM   34  C   UNL     1     -21.575  -5.685  -2.317  1.00  0.00     0.030 C 
BRANCH  34  35
HETATM   35  C   UNL     1     -22.097  -7.106  -2.008  1.00  0.00     0.267 C 
BRANCH  35  36
HETATM   36  N   UNL     1     -22.696  -7.232  -0.674  1.00  0.00     0.078 N 
HETATM   37  H   UNL     1     -23.708  -7.309  -0.767  1.00  0.00     0.312 HD
HETATM   38  H   UNL     1     -22.544  -6.355  -0.168  1.00  0.00     0.312 HD
ENDBRANCH  35  36
ENDBRANCH  34  35
ENDBRANCH  33  34
ENDBRANCH  32  33
ENDBRANCH  11  32
ENDBRANCH   8  11
ENDBRANCH   6   7
BRANCH   6  39
HETATM   39  C   UNL     1     -20.343 -11.796  -7.268  1.00  0.00     0.073 C 
BRANCH  39  40
HETATM   40  C   UNL     1     -19.604 -12.945  -7.938  1.00  0.00    -0.056 A 
HETATM   41  C   UNL     1     -18.522 -12.783  -8.810  1.00  0.00     0.007 A 
HETATM   42  C   UNL     1     -17.826 -13.892  -9.305  1.00  0.00     0.001 A 
HETATM   43  C   UNL     1     -18.205 -15.182  -8.944  1.00  0.00     0.000 A 
HETATM   44  C   UNL     1     -19.310 -15.367  -8.121  1.00  0.00     0.001 A 
HETATM   45  C   UNL     1     -20.011 -14.260  -7.635  1.00  0.00     0.007 A 
ENDBRANCH  39  40
ENDBRANCH   6  39
ENDBRANCH   3   6
ENDBRANCH   1   2
BRANCH   1  46
HETATM   46  C   UNL     1     -16.523 -12.948  -3.601  1.00  0.00     0.075 C 
BRANCH  46  47
HETATM   47  C   UNL     1     -15.270 -13.427  -4.273  1.00  0.00    -0.028 C 
HETATM   48  C   UNL     1     -14.956 -13.322  -5.620  1.00  0.00     0.096 C 
HETATM   49  N   UNL     1     -13.704 -13.847  -5.767  1.00  0.00    -0.365 N 
HETATM   50  C   UNL     1     -13.580 -14.791  -4.778  1.00  0.00     0.042 C 
HETATM   51  H   UNL     1     -12.930 -13.255  -6.031  1.00  0.00     0.165 HD
HETATM   52  C   UNL     1     -12.979 -16.042  -4.763  1.00  0.00     0.030 C 
HETATM   53  C   UNL     1     -14.268 -14.265  -3.692  1.00  0.00    -0.002 C 
HETATM   54  C   UNL     1     -12.949 -16.687  -3.527  1.00  0.00     0.002 C 
HETATM   55  C   UNL     1     -13.365 -16.036  -2.362  1.00  0.00     0.001 C 
HETATM   56  C   UNL     1     -14.024 -14.802  -2.420  1.00  0.00     0.014 C 
ENDBRANCH  46  47
ENDBRANCH   1  46
BRANCH   1  57
HETATM   57  N   UNL     1     -18.284 -14.469  -2.650  1.00  0.00    -0.346 N 
HETATM   58  C   UNL     1     -17.923 -15.704  -2.167  1.00  0.00     0.241 C 
HETATM   59  O   UNL     1     -17.125 -16.462  -2.724  1.00  0.00    -0.271 OA
HETATM   60  H   UNL     1     -19.185 -14.102  -2.361  1.00  0.00     0.163 HD
BRANCH  58  61
HETATM   61  C   UNL     1     -18.580 -16.149  -0.837  1.00  0.00     0.176 C 
BRANCH  61  62
HETATM   62  C   UNL     1     -18.074 -15.448   0.440  1.00  0.00     0.036 C 
BRANCH  62  63
HETATM   63  C   UNL     1     -16.826 -16.076   1.054  1.00  0.00     0.022 C 
BRANCH  63  64
HETATM   64  C   UNL     1     -15.673 -15.086   1.131  1.00  0.00     0.121 C 
BRANCH  64  65
HETATM   65  N   UNL     1     -16.124 -13.816   0.587  1.00  0.00    -0.372 N 
HETATM   66  C   UNL     1     -16.011 -12.792   1.339  1.00  0.00     0.121 C 
HETATM   67  N   UNL     1     -15.574 -12.683   2.610  1.00  0.00    -0.279 NA
HETATM   68  N   UNL     1     -16.391 -11.575   0.873  1.00  0.00    -0.279 NA
HETATM   69  H   UNL     1     -15.107 -13.508   2.957  1.00  0.00     0.126 HD
HETATM   70  H   UNL     1     -15.010 -11.855   2.758  1.00  0.00     0.126 HD
HETATM   71  H   UNL     1     -16.948 -11.691   0.031  1.00  0.00     0.126 HD
HETATM   72  H   UNL     1     -16.880 -11.016   1.562  1.00  0.00     0.126 HD
ATOM     73  HN  UNL     1     -16.513 -13.747  -0.353  1.00  0.00     0.161 HD
ENDBRANCH  64  65
ENDBRANCH  63  64
ENDBRANCH  62  63
ENDBRANCH  61  62
BRANCH  61  74
HETATM   74  N   UNL     1     -20.022 -16.052  -1.086  1.00  0.00    -0.346 N 
HETATM   75  C   UNL     1     -20.853 -16.532  -0.098  1.00  0.00     0.241 C 
HETATM   76  O   UNL     1     -20.358 -17.183   0.823  1.00  0.00    -0.271 OA
HETATM   77  H   UNL     1     -20.337 -15.298  -1.682  1.00  0.00     0.163 HD
BRANCH  75  78
HETATM   78  C   UNL     1     -22.364 -16.202  -0.105  1.00  0.00     0.180 C 
BRANCH  78  79
HETATM   79  C   UNL     1     -23.252 -16.925   0.938  1.00  0.00     0.073 C 
BRANCH  79  80
HETATM   80  C   UNL     1     -23.381 -16.415   2.361  1.00  0.00    -0.056 A 
HETATM   81  C   UNL     1     -22.489 -16.748   3.385  1.00  0.00     0.007 A 
HETATM   82  C   UNL     1     -22.624 -16.200   4.662  1.00  0.00     0.001 A 
HETATM   83  C   UNL     1     -23.655 -15.308   4.939  1.00  0.00     0.000 A 
HETATM   84  C   UNL     1     -24.585 -15.000   3.952  1.00  0.00     0.001 A 
HETATM   85  C   UNL     1     -24.457 -15.560   2.676  1.00  0.00     0.007 A 
ENDBRANCH  79  80
ENDBRANCH  78  79
BRANCH  78  86
HETATM   86  N   UNL     1     -22.515 -14.727  -0.115  1.00  0.00    -0.346 N 
HETATM   87  C   UNL     1     -21.861 -13.963   0.862  1.00  0.00     0.241 C 
HETATM   88  O   UNL     1     -20.969 -14.426   1.573  1.00  0.00    -0.271 OA
HETATM   89  H   UNL     1     -23.363 -14.348  -0.517  1.00  0.00     0.163 HD
BRANCH  87  90
HETATM   90  C   UNL     1     -22.244 -12.457   0.908  1.00  0.00     0.179 C 
HETATM   91  C   UNL     1     -23.723 -12.399   0.474  1.00  0.00     0.037 C 
HETATM   92  C   UNL     1     -23.942 -10.975  -0.006  1.00  0.00     0.022 C 
HETATM   93  C   UNL     1     -22.586 -10.551  -0.537  1.00  0.00     0.127 C 
HETATM   94  N   UNL     1     -21.633 -11.558  -0.082  1.00  0.00    -0.337 N 
HETATM   95  C   UNL     1     -20.260 -11.443  -0.296  1.00  0.00     0.253 C 
HETATM   96  O   UNL     1     -19.434 -11.967   0.449  1.00  0.00    -0.271 OA
BRANCH  95  97
HETATM   97  C   UNL     1     -19.853 -10.608  -1.567  1.00  0.00     0.309 C 
BRANCH  97  98
HETATM   98  C   UNL     1     -18.358 -10.655  -1.952  1.00  0.00     0.055 C 
BRANCH  98  99
HETATM   99  C   UNL     1     -17.846  -9.447  -2.788  1.00  0.00     0.076 C 
BRANCH  99 100
HETATM  100  S   UNL     1     -16.015  -9.312  -2.895  1.00  0.00    -0.173 SA
HETATM  101  C   UNL     1     -15.699  -9.684  -4.634  1.00  0.00     0.089 C 
ENDBRANCH  99 100
ENDBRANCH  98  99
ENDBRANCH  97  98
BRANCH  97 102
HETATM  102  N   UNL     1     -20.674 -11.093  -2.701  1.00  0.00     0.092 N 
HETATM  103  H   UNL     1     -20.067 -11.165  -3.521  1.00  0.00     0.313 HD
HETATM  104  H   UNL     1     -21.347 -10.359  -2.942  1.00  0.00     0.313 HD
ENDBRANCH  97 102
ENDBRANCH  95  97
ENDBRANCH  87  90
ENDBRANCH  78  86
ENDBRANCH  75  78
ENDBRANCH  61  74
ENDBRANCH  58  61
ENDBRANCH   1  57
TORSDOF 35
ENDMDL
MODEL 4
REMARK VINA RESULT:      -5.4      2.701     11.377
REMARK WARNING: 32 MAX_TORS EXCEEDED!!!
REMARK  35 active torsions:
REMARK  status: ('A' for Active; 'I' for Inactive)
REMARK    1  A    between atoms: C_2  and  C_4 
REMARK    2  A    between atoms: C_4  and  C_5 
REMARK    3  A    between atoms: C_4  and  N_8 
REMARK       I    between atoms: C_5  and  N_7 
REMARK       I    between atoms: N_8  and  C_9 
REMARK    4  A    between atoms: C_9  and  C_11 
REMARK       I    between atoms: N_15  and  C_16 
REMARK    5  A    between atoms: C_16  and  C_18 
REMARK    6  A    between atoms: C_18  and  C_19 
REMARK    7  A    between atoms: C_18  and  N_24 
REMARK    8  A    between atoms: C_19  and  C_20 
REMARK    9  A    between atoms: C_20  and  C_21 
REMARK   10  A    between atoms: C_21  and  C_22 
REMARK   11  A    between atoms: C_22  and  N_23 
REMARK       I    between atoms: N_24  and  C_25 
REMARK   12  A    between atoms: C_25  and  C_27 
REMARK   13  A    between atoms: C_27  and  C_28 
REMARK   14  A    between atoms: C_27  and  N_35 
REMARK   15  A    between atoms: C_28  and  C_29 
REMARK       I    between atoms: N_35  and  C_36 
REMARK   16  A    between atoms: C_36  and  C_38 
REMARK   17  A    between atoms: C_38  and  C_39 
REMARK   18  A    between atoms: C_38  and  N_49 
REMARK   19  A    between atoms: C_39  and  C_40 
REMARK       I    between atoms: N_49  and  C_50 
REMARK   20  A    between atoms: C_50  and  C_52 
REMARK   21  A    between atoms: C_52  and  C_53 
REMARK   22  A    between atoms: C_52  and  N_61 
REMARK   23  A    between atoms: C_53  and  C_54 
REMARK   24  A    between atoms: C_54  and  C_55 
REMARK   25  A    between atoms: C_55  and  N_56 
REMARK       I    between atoms: C_58  and  N_59 
REMARK       I    between atoms: C_58  and  N_60 
REMARK       I    between atoms: N_61  and  C_62 
REMARK   26  A    between atoms: C_62  and  C_64 
REMARK   27  A    between atoms: C_64  and  C_65 
REMARK   28  A    between atoms: C_64  and  N_72 
REMARK   29  A    between atoms: C_65  and  C_66 
REMARK       I    between atoms: N_72  and  C_73 
REMARK   30  A    between atoms: C_73  and  C_75 
REMARK       I    between atoms: N_79  and  C_80 
REMARK   31  A    between atoms: C_80  and  C_82 
REMARK   32  A    between atoms: C_82  and  C_83 
REMARK   33  A    between atoms: C_82  and  N_87 
REMARK   34  A    between atoms: C_83  and  C_84 
REMARK   35  A    between atoms: C_84  and  S_85 
ROOT
HETATM    1  C   UNL     1     -22.893 -14.899  -1.083  1.00  0.00     0.181 C 
ENDROOT
BRANCH   1   2
HETATM    2  C   UNL     1     -21.698 -15.262  -2.058  1.00  0.00     0.241 C 
HETATM    3  N   UNL     1     -20.447 -15.514  -1.524  1.00  0.00    -0.346 N 
HETATM    4  H   UNL     1     -20.293 -15.380  -0.533  1.00  0.00     0.163 HD
HETATM    5  O   UNL     1     -21.881 -15.301  -3.279  1.00  0.00    -0.271 OA
BRANCH   3   6
HETATM    6  C   UNL     1     -19.225 -15.768  -2.338  1.00  0.00     0.180 C 
BRANCH   6   7
HETATM    7  C   UNL     1     -17.859 -15.540  -1.548  1.00  0.00     0.241 C 
HETATM    8  N   UNL     1     -17.545 -16.494  -0.573  1.00  0.00    -0.346 N 
HETATM    9  H   UNL     1     -18.248 -17.184  -0.345  1.00  0.00     0.163 HD
HETATM   10  O   UNL     1     -17.112 -14.615  -1.870  1.00  0.00    -0.271 OA
BRANCH   8  11
HETATM   11  C   UNL     1     -16.225 -16.659   0.110  1.00  0.00     0.176 C 
BRANCH  11  12
HETATM   12  C   UNL     1     -15.079 -16.204  -0.791  1.00  0.00     0.243 C 
HETATM   13  N   UNL     1     -13.964 -15.569  -0.287  1.00  0.00    -0.337 N 
HETATM   14  C   UNL     1     -13.232 -14.533  -1.088  1.00  0.00     0.179 C 
HETATM   15  C   UNL     1     -13.545 -15.505   1.102  1.00  0.00     0.127 C 
HETATM   16  C   UNL     1     -11.934 -14.401  -0.310  1.00  0.00     0.037 C 
HETATM   17  C   UNL     1     -12.354 -14.538   1.148  1.00  0.00     0.022 C 
HETATM   18  O   UNL     1     -15.315 -16.214  -2.013  1.00  0.00    -0.271 OA
BRANCH  14  19
HETATM   19  C   UNL     1     -13.013 -14.820  -2.574  1.00  0.00     0.241 C 
HETATM   20  N   UNL     1     -13.809 -14.075  -3.447  1.00  0.00    -0.346 N 
HETATM   21  H   UNL     1     -14.689 -13.756  -3.055  1.00  0.00     0.163 HD
HETATM   22  O   UNL     1     -12.188 -15.660  -2.949  1.00  0.00    -0.271 OA
BRANCH  20  23
HETATM   23  C   UNL     1     -13.825 -14.400  -4.875  1.00  0.00     0.179 C 
BRANCH  23  24
HETATM   24  C   UNL     1     -15.141 -14.965  -5.463  1.00  0.00     0.009 C 
HETATM   25  C   UNL     1     -16.237 -13.896  -5.539  1.00  0.00     0.012 C 
HETATM   26  C   UNL     1     -15.093 -15.682  -6.813  1.00  0.00     0.012 C 
ENDBRANCH  23  24
BRANCH  23  27
HETATM   27  C   UNL     1     -13.273 -13.164  -5.648  1.00  0.00     0.238 C 
HETATM   28  O   UNL     1     -12.922 -13.152  -6.822  1.00  0.00    -0.271 OA
HETATM   29  N   UNL     1     -13.189 -12.021  -4.905  1.00  0.00    -0.368 N 
HETATM   30  H   UNL     1     -13.467 -12.015  -3.923  1.00  0.00     0.159 HD
HETATM   31  H   UNL     1     -12.833 -11.175  -5.322  1.00  0.00     0.159 HD
ENDBRANCH  23  27
ENDBRANCH  20  23
ENDBRANCH  14  19
ENDBRANCH  11  12
BRANCH  11  32
HETATM   32  C   UNL     1     -16.142 -15.722   1.377  1.00  0.00     0.035 C 
BRANCH  32  33
HETATM   33  C   UNL     1     -17.242 -14.616   1.451  1.00  0.00     0.004 C 
BRANCH  33  34
HETATM   34  C   UNL     1     -16.779 -13.172   1.208  1.00  0.00     0.030 C 
BRANCH  34  35
HETATM   35  C   UNL     1     -17.789 -12.336   0.388  1.00  0.00     0.267 C 
BRANCH  35  36
HETATM   36  N   UNL     1     -17.179 -11.626  -0.742  1.00  0.00     0.078 N 
HETATM   37  H   UNL     1     -17.776 -10.844  -1.009  1.00  0.00     0.312 HD
HETATM   38  H   UNL     1     -17.185 -12.250  -1.555  1.00  0.00     0.312 HD
ENDBRANCH  35  36
ENDBRANCH  34  35
ENDBRANCH  33  34
ENDBRANCH  32  33
ENDBRANCH  11  32
ENDBRANCH   8  11
ENDBRANCH   6   7
BRANCH   6  39
HETATM   39  C   UNL     1     -19.319 -17.116  -3.089  1.00  0.00     0.073 C 
BRANCH  39  40
HETATM   40  C   UNL     1     -19.367 -17.162  -4.610  1.00  0.00    -0.056 A 
HETATM   41  C   UNL     1     -20.547 -17.154  -5.360  1.00  0.00     0.007 A 
HETATM   42  C   UNL     1     -20.509 -17.092  -6.758  1.00  0.00     0.001 A 
HETATM   43  C   UNL     1     -19.291 -17.046  -7.430  1.00  0.00     0.000 A 
HETATM   44  C   UNL     1     -18.105 -17.106  -6.705  1.00  0.00     0.001 A 
HETATM   45  C   UNL     1     -18.144 -17.178  -5.310  1.00  0.00     0.007 A 
ENDBRANCH  39  40
ENDBRANCH   6  39
ENDBRANCH   3   6
ENDBRANCH   1   2
BRANCH   1  46
HETATM   46  C   UNL     1     -22.622 -15.160   0.406  1.00  0.00     0.075 C 
BRANCH  46  47
HETATM   47  C   UNL     1     -23.725 -15.902   1.101  1.00  0.00    -0.028 C 
HETATM   48  C   UNL     1     -24.918 -16.337   0.540  1.00  0.00     0.096 C 
HETATM   49  N   UNL     1     -25.587 -17.002   1.527  1.00  0.00    -0.365 N 
HETATM   50  C   UNL     1     -25.184 -16.423   2.705  1.00  0.00     0.042 C 
HETATM   51  H   UNL     1     -25.745 -17.996   1.456  1.00  0.00     0.165 HD
HETATM   52  C   UNL     1     -25.874 -16.116   3.869  1.00  0.00     0.030 C 
HETATM   53  C   UNL     1     -23.844 -16.112   2.510  1.00  0.00    -0.002 C 
HETATM   54  C   UNL     1     -25.102 -15.625   4.922  1.00  0.00     0.002 C 
HETATM   55  C   UNL     1     -23.706 -15.596   4.841  1.00  0.00     0.001 C 
HETATM   56  C   UNL     1     -23.046 -15.851   3.634  1.00  0.00     0.014 C 
ENDBRANCH  46  47
ENDBRANCH   1  46
BRANCH   1  57
HETATM   57  N   UNL     1     -23.239 -13.492  -1.371  1.00  0.00    -0.346 N 
HETATM   58  C   UNL     1     -22.378 -12.423  -1.287  1.00  0.00     0.241 C 
HETATM   59  O   UNL     1     -21.205 -12.504  -0.915  1.00  0.00    -0.271 OA
HETATM   60  H   UNL     1     -24.233 -13.295  -1.308  1.00  0.00     0.163 HD
BRANCH  58  61
HETATM   61  C   UNL     1     -22.947 -11.040  -1.687  1.00  0.00     0.176 C 
BRANCH  61  62
HETATM   62  C   UNL     1     -23.733 -10.286  -0.594  1.00  0.00     0.036 C 
BRANCH  62  63
HETATM   63  C   UNL     1     -22.914  -9.934   0.644  1.00  0.00     0.022 C 
BRANCH  63  64
HETATM   64  C   UNL     1     -21.863  -8.875   0.346  1.00  0.00     0.121 C 
BRANCH  64  65
HETATM   65  N   UNL     1     -22.536  -7.696  -0.172  1.00  0.00    -0.372 N 
HETATM   66  C   UNL     1     -21.969  -7.081  -1.134  1.00  0.00     0.121 C 
HETATM   67  N   UNL     1     -20.791  -7.313  -1.747  1.00  0.00    -0.279 NA
HETATM   68  N   UNL     1     -22.566  -5.990  -1.676  1.00  0.00    -0.279 NA
HETATM   69  H   UNL     1     -20.379  -8.209  -1.524  1.00  0.00     0.126 HD
HETATM   70  H   UNL     1     -20.839  -7.174  -2.749  1.00  0.00     0.126 HD
HETATM   71  H   UNL     1     -23.308  -5.667  -1.061  1.00  0.00     0.126 HD
HETATM   72  H   UNL     1     -21.918  -5.243  -1.891  1.00  0.00     0.126 HD
ATOM     73  HN  UNL     1     -23.423  -7.376   0.217  1.00  0.00     0.161 HD
ENDBRANCH  64  65
ENDBRANCH  63  64
ENDBRANCH  62  63
ENDBRANCH  61  62
BRANCH  61  74
HETATM   74  N   UNL     1     -21.803 -10.320  -2.256  1.00  0.00    -0.346 N 
HETATM   75  C   UNL     1     -21.693 -10.322  -3.629  1.00  0.00     0.241 C 
HETATM   76  O   UNL     1     -22.421 -11.076  -4.277  1.00  0.00    -0.271 OA
HETATM   77  H   UNL     1     -21.441  -9.538  -1.727  1.00  0.00     0.163 HD
BRANCH  75  78
HETATM   78  C   UNL     1     -20.728  -9.351  -4.347  1.00  0.00     0.180 C 
BRANCH  78  79
HETATM   79  C   UNL     1     -19.772  -9.956  -5.405  1.00  0.00     0.073 C 
BRANCH  79  80
HETATM   80  C   UNL     1     -18.266  -9.919  -5.228  1.00  0.00    -0.056 A 
HETATM   81  C   UNL     1     -17.626 -10.146  -4.006  1.00  0.00     0.007 A 
HETATM   82  C   UNL     1     -16.232 -10.159  -3.916  1.00  0.00     0.001 A 
HETATM   83  C   UNL     1     -15.452  -9.945  -5.047  1.00  0.00     0.000 A 
HETATM   84  C   UNL     1     -16.065  -9.666  -6.265  1.00  0.00     0.001 A 
HETATM   85  C   UNL     1     -17.461  -9.640  -6.352  1.00  0.00     0.007 A 
ENDBRANCH  79  80
ENDBRANCH  78  79
BRANCH  78  86
HETATM   86  N   UNL     1     -21.515  -8.191  -4.832  1.00  0.00    -0.346 N 
HETATM   87  C   UNL     1     -20.862  -6.977  -5.090  1.00  0.00     0.241 C 
HETATM   88  O   UNL     1     -19.636  -6.893  -5.173  1.00  0.00    -0.271 OA
HETATM   89  H   UNL     1     -22.493  -8.153  -4.579  1.00  0.00     0.163 HD
BRANCH  87  90
HETATM   90  C   UNL     1     -21.787  -5.764  -5.385  1.00  0.00     0.179 C 
HETATM   91  C   UNL     1     -23.222  -6.280  -5.158  1.00  0.00     0.037 C 
HETATM   92  C   UNL     1     -24.116  -5.335  -5.941  1.00  0.00     0.022 C 
HETATM   93  C   UNL     1     -23.245  -4.874  -7.095  1.00  0.00     0.127 C 
HETATM   94  N   UNL     1     -21.884  -5.292  -6.775  1.00  0.00    -0.337 N 
HETATM   95  C   UNL     1     -20.788  -4.948  -7.565  1.00  0.00     0.253 C 
HETATM   96  O   UNL     1     -19.652  -4.852  -7.105  1.00  0.00    -0.271 OA
BRANCH  95  97
HETATM   97  C   UNL     1     -21.114  -4.708  -9.086  1.00  0.00     0.309 C 
BRANCH  97  98
HETATM   98  C   UNL     1     -21.693  -3.321  -9.441  1.00  0.00     0.055 C 
BRANCH  98  99
HETATM   99  C   UNL     1     -22.956  -3.337 -10.348  1.00  0.00     0.076 C 
BRANCH  99 100
HETATM  100  S   UNL     1     -22.632  -3.784 -12.102  1.00  0.00    -0.173 SA
HETATM  101  C   UNL     1     -24.105  -3.159 -12.941  1.00  0.00     0.089 C 
ENDBRANCH  99 100
ENDBRANCH  98  99
ENDBRANCH  97  98
BRANCH  97 102
HETATM  102  N   UNL     1     -19.865  -4.936  -9.850  1.00  0.00     0.092 N 
HETATM  103  H   UNL     1     -20.002  -5.762 -10.438  1.00  0.00     0.313 HD
HETATM  104  H   UNL     1     -19.132  -5.209  -9.188  1.00  0.00     0.313 HD
ENDBRANCH  97 102
ENDBRANCH  95  97
ENDBRANCH  87  90
ENDBRANCH  78  86
ENDBRANCH  75  78
ENDBRANCH  61  74
ENDBRANCH  58  61
ENDBRANCH   1  57
TORSDOF 35
ENDMDL
MODEL 5
REMARK VINA RESULT:      -5.3      2.692      7.652
REMARK WARNING: 32 MAX_TORS EXCEEDED!!!
REMARK  35 active torsions:
REMARK  status: ('A' for Active; 'I' for Inactive)
REMARK    1  A    between atoms: C_2  and  C_4 
REMARK    2  A    between atoms: C_4  and  C_5 
REMARK    3  A    between atoms: C_4  and  N_8 
REMARK       I    between atoms: C_5  and  N_7 
REMARK       I    between atoms: N_8  and  C_9 
REMARK    4  A    between atoms: C_9  and  C_11 
REMARK       I    between atoms: N_15  and  C_16 
REMARK    5  A    between atoms: C_16  and  C_18 
REMARK    6  A    between atoms: C_18  and  C_19 
REMARK    7  A    between atoms: C_18  and  N_24 
REMARK    8  A    between atoms: C_19  and  C_20 
REMARK    9  A    between atoms: C_20  and  C_21 
REMARK   10  A    between atoms: C_21  and  C_22 
REMARK   11  A    between atoms: C_22  and  N_23 
REMARK       I    between atoms: N_24  and  C_25 
REMARK   12  A    between atoms: C_25  and  C_27 
REMARK   13  A    between atoms: C_27  and  C_28 
REMARK   14  A    between atoms: C_27  and  N_35 
REMARK   15  A    between atoms: C_28  and  C_29 
REMARK       I    between atoms: N_35  and  C_36 
REMARK   16  A    between atoms: C_36  and  C_38 
REMARK   17  A    between atoms: C_38  and  C_39 
REMARK   18  A    between atoms: C_38  and  N_49 
REMARK   19  A    between atoms: C_39  and  C_40 
REMARK       I    between atoms: N_49  and  C_50 
REMARK   20  A    between atoms: C_50  and  C_52 
REMARK   21  A    between atoms: C_52  and  C_53 
REMARK   22  A    between atoms: C_52  and  N_61 
REMARK   23  A    between atoms: C_53  and  C_54 
REMARK   24  A    between atoms: C_54  and  C_55 
REMARK   25  A    between atoms: C_55  and  N_56 
REMARK       I    between atoms: C_58  and  N_59 
REMARK       I    between atoms: C_58  and  N_60 
REMARK       I    between atoms: N_61  and  C_62 
REMARK   26  A    between atoms: C_62  and  C_64 
REMARK   27  A    between atoms: C_64  and  C_65 
REMARK   28  A    between atoms: C_64  and  N_72 
REMARK   29  A    between atoms: C_65  and  C_66 
REMARK       I    between atoms: N_72  and  C_73 
REMARK   30  A    between atoms: C_73  and  C_75 
REMARK       I    between atoms: N_79  and  C_80 
REMARK   31  A    between atoms: C_80  and  C_82 
REMARK   32  A    between atoms: C_82  and  C_83 
REMARK   33  A    between atoms: C_82  and  N_87 
REMARK   34  A    between atoms: C_83  and  C_84 
REMARK   35  A    between atoms: C_84  and  S_85 
ROOT
HETATM    1  C   UNL     1     -21.260 -12.379  -4.504  1.00  0.00     0.181 C 
ENDROOT
BRANCH   1   2
HETATM    2  C   UNL     1     -20.409 -11.072  -4.219  1.00  0.00     0.241 C 
HETATM    3  N   UNL     1     -21.017  -9.835  -4.331  1.00  0.00    -0.346 N 
HETATM    4  H   UNL     1     -21.968  -9.777  -4.674  1.00  0.00     0.163 HD
HETATM    5  O   UNL     1     -19.214 -11.161  -3.918  1.00  0.00    -0.271 OA
BRANCH   3   6
HETATM    6  C   UNL     1     -20.305  -8.535  -4.186  1.00  0.00     0.180 C 
BRANCH   6   7
HETATM    7  C   UNL     1     -19.688  -7.977  -5.547  1.00  0.00     0.241 C 
HETATM    8  N   UNL     1     -20.139  -6.717  -5.956  1.00  0.00    -0.346 N 
HETATM    9  H   UNL     1     -20.905  -6.301  -5.443  1.00  0.00     0.163 HD
HETATM   10  O   UNL     1     -18.805  -8.612  -6.125  1.00  0.00    -0.271 OA
BRANCH   8  11
HETATM   11  C   UNL     1     -19.536  -5.867  -7.029  1.00  0.00     0.176 C 
BRANCH  11  12
HETATM   12  C   UNL     1     -20.612  -5.102  -7.795  1.00  0.00     0.243 C 
HETATM   13  N   UNL     1     -21.918  -5.045  -7.356  1.00  0.00    -0.337 N 
HETATM   14  C   UNL     1     -23.060  -4.969  -8.325  1.00  0.00     0.179 C 
HETATM   15  C   UNL     1     -22.414  -5.391  -6.035  1.00  0.00     0.127 C 
HETATM   16  C   UNL     1     -24.210  -4.570  -7.416  1.00  0.00     0.037 C 
HETATM   17  C   UNL     1     -23.945  -5.327  -6.121  1.00  0.00     0.022 C 
HETATM   18  O   UNL     1     -20.306  -4.748  -8.948  1.00  0.00    -0.271 OA
BRANCH  14  19
HETATM   19  C   UNL     1     -22.898  -4.039  -9.528  1.00  0.00     0.241 C 
HETATM   20  N   UNL     1     -22.702  -4.681 -10.754  1.00  0.00    -0.346 N 
HETATM   21  H   UNL     1     -22.285  -5.604 -10.690  1.00  0.00     0.163 HD
HETATM   22  O   UNL     1     -22.936  -2.811  -9.398  1.00  0.00    -0.271 OA
BRANCH  20  23
HETATM   23  C   UNL     1     -22.345  -3.897 -11.938  1.00  0.00     0.179 C 
BRANCH  23  24
HETATM   24  C   UNL     1     -23.410  -2.922 -12.495  1.00  0.00     0.009 C 
HETATM   25  C   UNL     1     -23.179  -2.610 -13.978  1.00  0.00     0.012 C 
HETATM   26  C   UNL     1     -24.889  -3.270 -12.315  1.00  0.00     0.012 C 
ENDBRANCH  23  24
BRANCH  23  27
HETATM   27  C   UNL     1     -20.964  -3.228 -11.663  1.00  0.00     0.238 C 
HETATM   28  O   UNL     1     -20.773  -2.031 -11.482  1.00  0.00    -0.271 OA
HETATM   29  N   UNL     1     -19.909  -4.094 -11.634  1.00  0.00    -0.368 N 
HETATM   30  H   UNL     1     -20.048  -5.093 -11.794  1.00  0.00     0.159 HD
HETATM   31  H   UNL     1     -18.977  -3.745 -11.474  1.00  0.00     0.159 HD
ENDBRANCH  23  27
ENDBRANCH  20  23
ENDBRANCH  14  19
ENDBRANCH  11  12
BRANCH  11  32
HETATM   32  C   UNL     1     -18.617  -4.753  -6.394  1.00  0.00     0.035 C 
BRANCH  32  33
HETATM   33  C   UNL     1     -17.288  -4.477  -7.168  1.00  0.00     0.004 C 
BRANCH  33  34
HETATM   34  C   UNL     1     -17.301  -3.298  -8.153  1.00  0.00     0.030 C 
BRANCH  34  35
HETATM   35  C   UNL     1     -16.105  -2.337  -7.971  1.00  0.00     0.267 C 
BRANCH  35  36
HETATM   36  N   UNL     1     -15.109  -2.819  -7.007  1.00  0.00     0.078 N 
HETATM   37  H   UNL     1     -14.180  -2.525  -7.309  1.00  0.00     0.312 HD
HETATM   38  H   UNL     1     -15.087  -3.842  -7.050  1.00  0.00     0.312 HD
ENDBRANCH  35  36
ENDBRANCH  34  35
ENDBRANCH  33  34
ENDBRANCH  32  33
ENDBRANCH  11  32
ENDBRANCH   8  11
ENDBRANCH   6   7
BRANCH   6  39
HETATM   39  C   UNL     1     -21.153  -7.512  -3.395  1.00  0.00     0.073 C 
BRANCH  39  40
HETATM   40  C   UNL     1     -21.435  -7.711  -1.913  1.00  0.00    -0.056 A 
HETATM   41  C   UNL     1     -22.310  -6.916  -1.165  1.00  0.00     0.007 A 
HETATM   42  C   UNL     1     -22.598  -7.225   0.170  1.00  0.00     0.001 A 
HETATM   43  C   UNL     1     -22.008  -8.327   0.782  1.00  0.00     0.000 A 
HETATM   44  C   UNL     1     -21.095  -9.100   0.072  1.00  0.00     0.001 A 
HETATM   45  C   UNL     1     -20.800  -8.785  -1.257  1.00  0.00     0.007 A 
ENDBRANCH  39  40
ENDBRANCH   6  39
ENDBRANCH   3   6
ENDBRANCH   1   2
BRANCH   1  46
HETATM   46  C   UNL     1     -21.365 -12.777  -5.983  1.00  0.00     0.075 C 
BRANCH  46  47
HETATM   47  C   UNL     1     -21.536 -14.252  -6.201  1.00  0.00    -0.028 C 
HETATM   48  C   UNL     1     -20.641 -15.111  -6.824  1.00  0.00     0.096 C 
HETATM   49  N   UNL     1     -21.191 -16.358  -6.751  1.00  0.00    -0.365 N 
HETATM   50  C   UNL     1     -22.550 -16.166  -6.733  1.00  0.00     0.042 C 
HETATM   51  H   UNL     1     -20.752 -17.077  -6.193  1.00  0.00     0.165 HD
HETATM   52  C   UNL     1     -23.592 -16.868  -7.320  1.00  0.00     0.030 C 
HETATM   53  C   UNL     1     -22.736 -15.002  -5.997  1.00  0.00    -0.002 C 
HETATM   54  C   UNL     1     -24.877 -16.441  -6.987  1.00  0.00     0.002 C 
HETATM   55  C   UNL     1     -25.083 -15.465  -6.007  1.00  0.00     0.001 C 
HETATM   56  C   UNL     1     -24.012 -14.732  -5.481  1.00  0.00     0.014 C 
ENDBRANCH  46  47
ENDBRANCH   1  46
BRANCH   1  57
HETATM   57  N   UNL     1     -20.671 -13.438  -3.658  1.00  0.00    -0.346 N 
HETATM   58  C   UNL     1     -20.962 -13.657  -2.333  1.00  0.00     0.241 C 
HETATM   59  O   UNL     1     -21.730 -12.960  -1.665  1.00  0.00    -0.271 OA
HETATM   60  H   UNL     1     -19.785 -13.791  -4.005  1.00  0.00     0.163 HD
BRANCH  58  61
HETATM   61  C   UNL     1     -20.261 -14.861  -1.658  1.00  0.00     0.176 C 
BRANCH  61  62
HETATM   62  C   UNL     1     -20.707 -16.260  -2.129  1.00  0.00     0.036 C 
BRANCH  62  63
HETATM   63  C   UNL     1     -21.180 -17.183  -1.010  1.00  0.00     0.022 C 
BRANCH  63  64
HETATM   64  C   UNL     1     -21.735 -16.402   0.172  1.00  0.00     0.121 C 
BRANCH  64  65
HETATM   65  N   UNL     1     -23.120 -16.794   0.369  1.00  0.00    -0.372 N 
HETATM   66  C   UNL     1     -24.015 -15.950   0.033  1.00  0.00     0.121 C 
HETATM   67  N   UNL     1     -23.898 -14.696  -0.448  1.00  0.00    -0.279 NA
HETATM   68  N   UNL     1     -25.325 -16.274   0.169  1.00  0.00    -0.279 NA
HETATM   69  H   UNL     1     -22.964 -14.454  -0.746  1.00  0.00     0.126 HD
HETATM   70  H   UNL     1     -24.576 -14.492  -1.172  1.00  0.00     0.126 HD
HETATM   71  H   UNL     1     -25.414 -17.098   0.758  1.00  0.00     0.126 HD
HETATM   72  H   UNL     1     -25.893 -15.512   0.517  1.00  0.00     0.126 HD
ATOM     73  HN  UNL     1     -23.365 -17.705   0.759  1.00  0.00     0.161 HD
ENDBRANCH  64  65
ENDBRANCH  63  64
ENDBRANCH  62  63
ENDBRANCH  61  62
BRANCH  61  74
HETATM   74  N   UNL     1     -18.828 -14.574  -1.787  1.00  0.00    -0.346 N 
HETATM   75  C   UNL     1     -18.143 -14.314  -0.620  1.00  0.00     0.241 C 
HETATM   76  O   UNL     1     -18.788 -14.137   0.414  1.00  0.00    -0.271 OA
HETATM   77  H   UNL     1     -18.342 -14.994  -2.568  1.00  0.00     0.163 HD
BRANCH  75  78
HETATM   78  C   UNL     1     -16.597 -14.310  -0.595  1.00  0.00     0.180 C 
BRANCH  78  79
HETATM   79  C   UNL     1     -15.908 -14.904   0.659  1.00  0.00     0.073 C 
BRANCH  79  80
HETATM   80  C   UNL     1     -14.400 -15.046   0.745  1.00  0.00    -0.056 A 
HETATM   81  C   UNL     1     -13.531 -13.966   0.922  1.00  0.00     0.007 A 
HETATM   82  C   UNL     1     -12.155 -14.164   1.055  1.00  0.00     0.001 A 
HETATM   83  C   UNL     1     -11.622 -15.449   1.012  1.00  0.00     0.000 A 
HETATM   84  C   UNL     1     -12.460 -16.536   0.786  1.00  0.00     0.001 A 
HETATM   85  C   UNL     1     -13.837 -16.335   0.640  1.00  0.00     0.007 A 
ENDBRANCH  79  80
ENDBRANCH  78  79
BRANCH  78  86
HETATM   86  N   UNL     1     -16.111 -14.873  -1.878  1.00  0.00    -0.346 N 
HETATM   87  C   UNL     1     -15.261 -14.106  -2.687  1.00  0.00     0.241 C 
HETATM   88  O   UNL     1     -14.696 -13.092  -2.274  1.00  0.00    -0.271 OA
HETATM   89  H   UNL     1     -16.692 -15.566  -2.332  1.00  0.00     0.163 HD
BRANCH  87  90
HETATM   90  C   UNL     1     -14.976 -14.682  -4.102  1.00  0.00     0.179 C 
HETATM   91  C   UNL     1     -13.451 -14.558  -4.294  1.00  0.00     0.037 C 
HETATM   92  C   UNL     1     -13.234 -14.588  -5.796  1.00  0.00     0.022 C 
HETATM   93  C   UNL     1     -14.502 -13.980  -6.365  1.00  0.00     0.127 C 
HETATM   94  N   UNL     1     -15.460 -13.924  -5.266  1.00  0.00    -0.337 N 
HETATM   95  C   UNL     1     -16.781 -13.514  -5.442  1.00  0.00     0.253 C 
HETATM   96  O   UNL     1     -17.691 -13.901  -4.711  1.00  0.00    -0.271 OA
BRANCH  95  97
HETATM   97  C   UNL     1     -17.013 -12.512  -6.632  1.00  0.00     0.309 C 
BRANCH  97  98
HETATM   98  C   UNL     1     -18.168 -12.865  -7.595  1.00  0.00     0.055 C 
BRANCH  98  99
HETATM   99  C   UNL     1     -17.740 -13.246  -9.040  1.00  0.00     0.076 C 
BRANCH  99 100
HETATM  100  S   UNL     1     -18.072 -14.996  -9.500  1.00  0.00    -0.173 SA
HETATM  101  C   UNL     1     -17.260 -15.909  -8.169  1.00  0.00     0.089 C 
ENDBRANCH  99 100
ENDBRANCH  98  99
ENDBRANCH  97  98
BRANCH  97 102
HETATM  102  N   UNL     1     -17.247 -11.171  -6.047  1.00  0.00     0.092 N 
HETATM  103  H   UNL     1     -16.369 -10.647  -6.099  1.00  0.00     0.313 HD
HETATM  104  H   UNL     1     -17.418 -11.288  -5.044  1.00  0.00     0.313 HD
ENDBRANCH  97 102
ENDBRANCH  95  97
ENDBRANCH  87  90
ENDBRANCH  78  86
ENDBRANCH  75  78
ENDBRANCH  61  74
ENDBRANCH  58  61
ENDBRANCH   1  57
TORSDOF 35
ENDMDL
MODEL 6
REMARK VINA RESULT:      -5.2      2.326      7.649
REMARK WARNING: 32 MAX_TORS EXCEEDED!!!
REMARK  35 active torsions:
REMARK  status: ('A' for Active; 'I' for Inactive)
REMARK    1  A    between atoms: C_2  and  C_4 
REMARK    2  A    between atoms: C_4  and  C_5 
REMARK    3  A    between atoms: C_4  and  N_8 
REMARK       I    between atoms: C_5  and  N_7 
REMARK       I    between atoms: N_8  and  C_9 
REMARK    4  A    between atoms: C_9  and  C_11 
REMARK       I    between atoms: N_15  and  C_16 
REMARK    5  A    between atoms: C_16  and  C_18 
REMARK    6  A    between atoms: C_18  and  C_19 
REMARK    7  A    between atoms: C_18  and  N_24 
REMARK    8  A    between atoms: C_19  and  C_20 
REMARK    9  A    between atoms: C_20  and  C_21 
REMARK   10  A    between atoms: C_21  and  C_22 
REMARK   11  A    between atoms: C_22  and  N_23 
REMARK       I    between atoms: N_24  and  C_25 
REMARK   12  A    between atoms: C_25  and  C_27 
REMARK   13  A    between atoms: C_27  and  C_28 
REMARK   14  A    between atoms: C_27  and  N_35 
REMARK   15  A    between atoms: C_28  and  C_29 
REMARK       I    between atoms: N_35  and  C_36 
REMARK   16  A    between atoms: C_36  and  C_38 
REMARK   17  A    between atoms: C_38  and  C_39 
REMARK   18  A    between atoms: C_38  and  N_49 
REMARK   19  A    between atoms: C_39  and  C_40 
REMARK       I    between atoms: N_49  and  C_50 
REMARK   20  A    between atoms: C_50  and  C_52 
REMARK   21  A    between atoms: C_52  and  C_53 
REMARK   22  A    between atoms: C_52  and  N_61 
REMARK   23  A    between atoms: C_53  and  C_54 
REMARK   24  A    between atoms: C_54  and  C_55 
REMARK   25  A    between atoms: C_55  and  N_56 
REMARK       I    between atoms: C_58  and  N_59 
REMARK       I    between atoms: C_58  and  N_60 
REMARK       I    between atoms: N_61  and  C_62 
REMARK   26  A    between atoms: C_62  and  C_64 
REMARK   27  A    between atoms: C_64  and  C_65 
REMARK   28  A    between atoms: C_64  and  N_72 
REMARK   29  A    between atoms: C_65  and  C_66 
REMARK       I    between atoms: N_72  and  C_73 
REMARK   30  A    between atoms: C_73  and  C_75 
REMARK       I    between atoms: N_79  and  C_80 
REMARK   31  A    between atoms: C_80  and  C_82 
REMARK   32  A    between atoms: C_82  and  C_83 
REMARK   33  A    between atoms: C_82  and  N_87 
REMARK   34  A    between atoms: C_83  and  C_84 
REMARK   35  A    between atoms: C_84  and  S_85 
ROOT
HETATM    1  C   UNL     1     -21.092 -12.532  -2.400  1.00  0.00     0.181 C 
ENDROOT
BRANCH   1   2
HETATM    2  C   UNL     1     -20.127 -11.304  -2.674  1.00  0.00     0.241 C 
HETATM    3  N   UNL     1     -20.673 -10.092  -3.055  1.00  0.00    -0.346 N 
HETATM    4  H   UNL     1     -21.667 -10.028  -3.236  1.00  0.00     0.163 HD
HETATM    5  O   UNL     1     -18.903 -11.438  -2.564  1.00  0.00    -0.271 OA
BRANCH   3   6
HETATM    6  C   UNL     1     -19.871  -8.896  -3.435  1.00  0.00     0.180 C 
BRANCH   6   7
HETATM    7  C   UNL     1     -19.734  -8.679  -5.009  1.00  0.00     0.241 C 
HETATM    8  N   UNL     1     -19.973  -7.381  -5.475  1.00  0.00    -0.346 N 
HETATM    9  H   UNL     1     -20.334  -6.703  -4.817  1.00  0.00     0.163 HD
HETATM   10  O   UNL     1     -19.352  -9.606  -5.724  1.00  0.00    -0.271 OA
BRANCH   8  11
HETATM   11  C   UNL     1     -19.658  -6.859  -6.841  1.00  0.00     0.176 C 
BRANCH  11  12
HETATM   12  C   UNL     1     -20.662  -5.791  -7.267  1.00  0.00     0.243 C 
HETATM   13  N   UNL     1     -21.906  -5.685  -6.682  1.00  0.00    -0.337 N 
HETATM   14  C   UNL     1     -23.095  -5.216  -7.466  1.00  0.00     0.179 C 
HETATM   15  C   UNL     1     -22.344  -6.296  -5.439  1.00  0.00     0.127 C 
HETATM   16  C   UNL     1     -24.097  -4.925  -6.361  1.00  0.00     0.037 C 
HETATM   17  C   UNL     1     -23.850  -6.018  -5.331  1.00  0.00     0.022 C 
HETATM   18  O   UNL     1     -20.397  -5.192  -8.325  1.00  0.00    -0.271 OA
BRANCH  14  19
HETATM   19  C   UNL     1     -22.889  -4.035  -8.414  1.00  0.00     0.241 C 
HETATM   20  N   UNL     1     -23.132  -4.306  -9.763  1.00  0.00    -0.346 N 
HETATM   21  H   UNL     1     -23.010  -5.277 -10.032  1.00  0.00     0.163 HD
HETATM   22  O   UNL     1     -22.527  -2.931  -7.993  1.00  0.00    -0.271 OA
BRANCH  20  23
HETATM   23  C   UNL     1     -22.783  -3.311 -10.780  1.00  0.00     0.179 C 
BRANCH  23  24
HETATM   24  C   UNL     1     -21.429  -3.484 -11.510  1.00  0.00     0.009 C 
HETATM   25  C   UNL     1     -20.447  -2.358 -11.165  1.00  0.00     0.012 C 
HETATM   26  C   UNL     1     -20.685  -4.813 -11.371  1.00  0.00     0.012 C 
ENDBRANCH  23  24
BRANCH  23  27
HETATM   27  C   UNL     1     -24.001  -3.171 -11.743  1.00  0.00     0.238 C 
HETATM   28  O   UNL     1     -23.941  -2.933 -12.943  1.00  0.00    -0.271 OA
HETATM   29  N   UNL     1     -25.218  -3.334 -11.146  1.00  0.00    -0.368 N 
HETATM   30  H   UNL     1     -25.288  -3.522 -10.144  1.00  0.00     0.159 HD
HETATM   31  H   UNL     1     -26.062  -3.249 -11.692  1.00  0.00     0.159 HD
ENDBRANCH  23  27
ENDBRANCH  20  23
ENDBRANCH  14  19
ENDBRANCH  11  12
BRANCH  11  32
HETATM   32  C   UNL     1     -18.260  -6.127  -6.839  1.00  0.00     0.035 C 
BRANCH  32  33
HETATM   33  C   UNL     1     -18.333  -4.572  -6.718  1.00  0.00     0.004 C 
BRANCH  33  34
HETATM   34  C   UNL     1     -17.359  -3.770  -7.594  1.00  0.00     0.030 C 
BRANCH  34  35
HETATM   35  C   UNL     1     -15.922  -3.725  -7.026  1.00  0.00     0.267 C 
BRANCH  35  36
HETATM   36  N   UNL     1     -15.165  -2.538  -7.442  1.00  0.00     0.078 N 
HETATM   37  H   UNL     1     -14.255  -2.542  -6.983  1.00  0.00     0.312 HD
HETATM   38  H   UNL     1     -15.640  -1.708  -7.076  1.00  0.00     0.312 HD
ENDBRANCH  35  36
ENDBRANCH  34  35
ENDBRANCH  33  34
ENDBRANCH  32  33
ENDBRANCH  11  32
ENDBRANCH   8  11
ENDBRANCH   6   7
BRANCH   6  39
HETATM   39  C   UNL     1     -20.320  -7.643  -2.648  1.00  0.00     0.073 C 
BRANCH  39  40
HETATM   40  C   UNL     1     -21.088  -7.775  -1.341  1.00  0.00    -0.056 A 
HETATM   41  C   UNL     1     -22.342  -7.201  -1.104  1.00  0.00     0.007 A 
HETATM   42  C   UNL     1     -23.034  -7.455   0.086  1.00  0.00     0.001 A 
HETATM   43  C   UNL     1     -22.481  -8.277   1.063  1.00  0.00     0.000 A 
HETATM   44  C   UNL     1     -21.213  -8.815   0.869  1.00  0.00     0.001 A 
HETATM   45  C   UNL     1     -20.518  -8.554  -0.314  1.00  0.00     0.007 A 
ENDBRANCH  39  40
ENDBRANCH   6  39
ENDBRANCH   3   6
ENDBRANCH   1   2
BRANCH   1  46
HETATM   46  C   UNL     1     -21.855 -13.048  -3.628  1.00  0.00     0.075 C 
BRANCH  46  47
HETATM   47  C   UNL     1     -22.238 -14.495  -3.538  1.00  0.00    -0.028 C 
HETATM   48  C   UNL     1     -22.015 -15.477  -4.493  1.00  0.00     0.096 C 
HETATM   49  N   UNL     1     -22.487 -16.644  -3.964  1.00  0.00    -0.365 N 
HETATM   50  C   UNL     1     -23.503 -16.283  -3.114  1.00  0.00     0.042 C 
HETATM   51  H   UNL     1     -21.851 -17.394  -3.737  1.00  0.00     0.165 HD
HETATM   52  C   UNL     1     -24.730 -16.868  -2.839  1.00  0.00     0.030 C 
HETATM   53  C   UNL     1     -23.087 -15.084  -2.550  1.00  0.00    -0.002 C 
HETATM   54  C   UNL     1     -25.472 -16.273  -1.818  1.00  0.00     0.002 C 
HETATM   55  C   UNL     1     -24.930 -15.251  -1.033  1.00  0.00     0.001 C 
HETATM   56  C   UNL     1     -23.717 -14.641  -1.377  1.00  0.00     0.014 C 
ENDBRANCH  46  47
ENDBRANCH   1  46
BRANCH   1  57
HETATM   57  N   UNL     1     -20.256 -13.569  -1.759  1.00  0.00    -0.346 N 
HETATM   58  C   UNL     1     -20.107 -13.751  -0.405  1.00  0.00     0.241 C 
HETATM   59  O   UNL     1     -20.627 -13.035   0.455  1.00  0.00    -0.271 OA
HETATM   60  H   UNL     1     -19.524 -13.932  -2.361  1.00  0.00     0.163 HD
BRANCH  58  61
HETATM   61  C   UNL     1     -19.218 -14.937   0.042  1.00  0.00     0.176 C 
BRANCH  61  62
HETATM   62  C   UNL     1     -19.608 -16.325  -0.508  1.00  0.00     0.036 C 
BRANCH  62  63
HETATM   63  C   UNL     1     -21.011 -16.786  -0.122  1.00  0.00     0.022 C 
BRANCH  63  64
HETATM   64  C   UNL     1     -21.185 -16.870   1.387  1.00  0.00     0.121 C 
BRANCH  64  65
HETATM   65  N   UNL     1     -22.587 -16.648   1.698  1.00  0.00    -0.372 N 
HETATM   66  C   UNL     1     -22.892 -15.531   2.233  1.00  0.00     0.121 C 
HETATM   67  N   UNL     1     -22.109 -14.502   2.616  1.00  0.00    -0.279 NA
HETATM   68  N   UNL     1     -24.189 -15.258   2.519  1.00  0.00    -0.279 NA
HETATM   69  H   UNL     1     -21.161 -14.554   2.272  1.00  0.00     0.126 HD
HETATM   70  H   UNL     1     -22.523 -13.601   2.411  1.00  0.00     0.126 HD
HETATM   71  H   UNL     1     -24.737 -16.113   2.472  1.00  0.00     0.126 HD
HETATM   72  H   UNL     1     -24.315 -14.793   3.409  1.00  0.00     0.126 HD
ATOM     73  HN  UNL     1     -23.295 -17.354   1.496  1.00  0.00     0.161 HD
ENDBRANCH  64  65
ENDBRANCH  63  64
ENDBRANCH  62  63
ENDBRANCH  61  62
BRANCH  61  74
HETATM   74  N   UNL     1     -17.847 -14.502  -0.247  1.00  0.00    -0.346 N 
HETATM   75  C   UNL     1     -16.912 -14.709   0.743  1.00  0.00     0.241 C 
HETATM   76  O   UNL     1     -17.303 -15.049   1.861  1.00  0.00    -0.271 OA
HETATM   77  H   UNL     1     -17.558 -14.503  -1.216  1.00  0.00     0.163 HD
BRANCH  75  78
HETATM   78  C   UNL     1     -15.401 -14.585   0.442  1.00  0.00     0.180 C 
BRANCH  78  79
HETATM   79  C   UNL     1     -14.419 -15.111   1.518  1.00  0.00     0.073 C 
BRANCH  79  80
HETATM   80  C   UNL     1     -12.916 -15.008   1.341  1.00  0.00    -0.056 A 
HETATM   81  C   UNL     1     -12.265 -13.844   0.923  1.00  0.00     0.007 A 
HETATM   82  C   UNL     1     -10.873 -13.790   0.835  1.00  0.00     0.001 A 
HETATM   83  C   UNL     1     -10.103 -14.902   1.164  1.00  0.00     0.000 A 
HETATM   84  C   UNL     1     -10.729 -16.088   1.534  1.00  0.00     0.001 A 
HETATM   85  C   UNL     1     -12.125 -16.145   1.608  1.00  0.00     0.007 A 
ENDBRANCH  79  80
ENDBRANCH  78  79
BRANCH  78  86
HETATM   86  N   UNL     1     -15.155 -15.121  -0.919  1.00  0.00    -0.346 N 
HETATM   87  C   UNL     1     -14.863 -14.233  -1.964  1.00  0.00     0.241 C 
HETATM   88  O   UNL     1     -14.555 -13.057  -1.764  1.00  0.00    -0.271 OA
HETATM   89  H   UNL     1     -15.591 -16.001  -1.159  1.00  0.00     0.163 HD
BRANCH  87  90
HETATM   90  C   UNL     1     -14.832 -14.855  -3.388  1.00  0.00     0.179 C 
HETATM   91  C   UNL     1     -13.401 -14.614  -3.908  1.00  0.00     0.037 C 
HETATM   92  C   UNL     1     -13.505 -14.703  -5.420  1.00  0.00     0.022 C 
HETATM   93  C   UNL     1     -14.916 -14.235  -5.722  1.00  0.00     0.127 C 
HETATM   94  N   UNL     1     -15.620 -14.203  -4.444  1.00  0.00    -0.337 N 
HETATM   95  C   UNL     1     -16.981 -13.915  -4.345  1.00  0.00     0.253 C 
HETATM   96  O   UNL     1     -17.675 -14.339  -3.422  1.00  0.00    -0.271 OA
BRANCH  95  97
HETATM   97  C   UNL     1     -17.553 -12.999  -5.489  1.00  0.00     0.309 C 
BRANCH  97  98
HETATM   98  C   UNL     1     -19.012 -13.279  -5.911  1.00  0.00     0.055 C 
BRANCH  98  99
HETATM   99  C   UNL     1     -19.403 -12.781  -7.331  1.00  0.00     0.076 C 
BRANCH  99 100
HETATM  100  S   UNL     1     -18.571 -13.669  -8.709  1.00  0.00    -0.173 SA
HETATM  101  C   UNL     1     -18.702 -15.396  -8.194  1.00  0.00     0.089 C 
ENDBRANCH  99 100
ENDBRANCH  98  99
ENDBRANCH  97  98
BRANCH  97 102
HETATM  102  N   UNL     1     -17.426 -11.592  -5.039  1.00  0.00     0.092 N 
HETATM  103  H   UNL     1     -16.982 -11.595  -4.118  1.00  0.00     0.313 HD
HETATM  104  H   UNL     1     -18.369 -11.227  -4.871  1.00  0.00     0.313 HD
ENDBRANCH  97 102
ENDBRANCH  95  97
ENDBRANCH  87  90
ENDBRANCH  78  86
ENDBRANCH  75  78
ENDBRANCH  61  74
ENDBRANCH  58  61
ENDBRANCH   1  57
TORSDOF 35
ENDMDL
MODEL 7
REMARK VINA RESULT:      -5.2      2.715     11.436
REMARK WARNING: 32 MAX_TORS EXCEEDED!!!
REMARK  35 active torsions:
REMARK  status: ('A' for Active; 'I' for Inactive)
REMARK    1  A    between atoms: C_2  and  C_4 
REMARK    2  A    between atoms: C_4  and  C_5 
REMARK    3  A    between atoms: C_4  and  N_8 
REMARK       I    between atoms: C_5  and  N_7 
REMARK       I    between atoms: N_8  and  C_9 
REMARK    4  A    between atoms: C_9  and  C_11 
REMARK       I    between atoms: N_15  and  C_16 
REMARK    5  A    between atoms: C_16  and  C_18 
REMARK    6  A    between atoms: C_18  and  C_19 
REMARK    7  A    between atoms: C_18  and  N_24 
REMARK    8  A    between atoms: C_19  and  C_20 
REMARK    9  A    between atoms: C_20  and  C_21 
REMARK   10  A    between atoms: C_21  and  C_22 
REMARK   11  A    between atoms: C_22  and  N_23 
REMARK       I    between atoms: N_24  and  C_25 
REMARK   12  A    between atoms: C_25  and  C_27 
REMARK   13  A    between atoms: C_27  and  C_28 
REMARK   14  A    between atoms: C_27  and  N_35 
REMARK   15  A    between atoms: C_28  and  C_29 
REMARK       I    between atoms: N_35  and  C_36 
REMARK   16  A    between atoms: C_36  and  C_38 
REMARK   17  A    between atoms: C_38  and  C_39 
REMARK   18  A    between atoms: C_38  and  N_49 
REMARK   19  A    between atoms: C_39  and  C_40 
REMARK       I    between atoms: N_49  and  C_50 
REMARK   20  A    between atoms: C_50  and  C_52 
REMARK   21  A    between atoms: C_52  and  C_53 
REMARK   22  A    between atoms: C_52  and  N_61 
REMARK   23  A    between atoms: C_53  and  C_54 
REMARK   24  A    between atoms: C_54  and  C_55 
REMARK   25  A    between atoms: C_55  and  N_56 
REMARK       I    between atoms: C_58  and  N_59 
REMARK       I    between atoms: C_58  and  N_60 
REMARK       I    between atoms: N_61  and  C_62 
REMARK   26  A    between atoms: C_62  and  C_64 
REMARK   27  A    between atoms: C_64  and  C_65 
REMARK   28  A    between atoms: C_64  and  N_72 
REMARK   29  A    between atoms: C_65  and  C_66 
REMARK       I    between atoms: N_72  and  C_73 
REMARK   30  A    between atoms: C_73  and  C_75 
REMARK       I    between atoms: N_79  and  C_80 
REMARK   31  A    between atoms: C_80  and  C_82 
REMARK   32  A    between atoms: C_82  and  C_83 
REMARK   33  A    between atoms: C_82  and  N_87 
REMARK   34  A    between atoms: C_83  and  C_84 
REMARK   35  A    between atoms: C_84  and  S_85 
ROOT
HETATM    1  C   UNL     1     -21.659 -13.288  -0.801  1.00  0.00     0.181 C 
ENDROOT
BRANCH   1   2
HETATM    2  C   UNL     1     -20.550 -13.834  -1.793  1.00  0.00     0.241 C 
HETATM    3  N   UNL     1     -19.713 -14.851  -1.373  1.00  0.00    -0.346 N 
HETATM    4  H   UNL     1     -19.762 -15.172  -0.414  1.00  0.00     0.163 HD
HETATM    5  O   UNL     1     -20.428 -13.342  -2.920  1.00  0.00    -0.271 OA
BRANCH   3   6
HETATM    6  C   UNL     1     -18.572 -15.380  -2.172  1.00  0.00     0.180 C 
BRANCH   6   7
HETATM    7  C   UNL     1     -17.188 -15.418  -1.382  1.00  0.00     0.241 C 
HETATM    8  N   UNL     1     -16.841 -16.646  -0.805  1.00  0.00    -0.346 N 
HETATM    9  H   UNL     1     -17.533 -17.383  -0.816  1.00  0.00     0.163 HD
HETATM   10  O   UNL     1     -16.456 -14.428  -1.379  1.00  0.00    -0.271 OA
BRANCH   8  11
HETATM   11  C   UNL     1     -15.503 -17.017  -0.251  1.00  0.00     0.176 C 
BRANCH  11  12
HETATM   12  C   UNL     1     -14.376 -16.384  -1.065  1.00  0.00     0.243 C 
HETATM   13  N   UNL     1     -13.353 -15.680  -0.467  1.00  0.00    -0.337 N 
HETATM   14  C   UNL     1     -12.702 -14.519  -1.159  1.00  0.00     0.179 C 
HETATM   15  C   UNL     1     -12.996 -15.678   0.941  1.00  0.00     0.127 C 
HETATM   16  C   UNL     1     -11.455 -14.317  -0.315  1.00  0.00     0.037 C 
HETATM   17  C   UNL     1     -11.915 -14.602   1.109  1.00  0.00     0.022 C 
HETATM   18  O   UNL     1     -14.564 -16.327  -2.294  1.00  0.00    -0.271 OA
BRANCH  14  19
HETATM   19  C   UNL     1     -12.398 -14.672  -2.649  1.00  0.00     0.241 C 
HETATM   20  N   UNL     1     -13.238 -13.954  -3.505  1.00  0.00    -0.346 N 
HETATM   21  H   UNL     1     -14.161 -13.760  -3.131  1.00  0.00     0.163 HD
HETATM   22  O   UNL     1     -11.472 -15.389  -3.044  1.00  0.00    -0.271 OA
BRANCH  20  23
HETATM   23  C   UNL     1     -13.165 -14.173  -4.950  1.00  0.00     0.179 C 
BRANCH  23  24
HETATM   24  C   UNL     1     -13.941 -15.382  -5.528  1.00  0.00     0.009 C 
HETATM   25  C   UNL     1     -15.374 -15.006  -5.919  1.00  0.00     0.012 C 
HETATM   26  C   UNL     1     -13.326 -16.158  -6.694  1.00  0.00     0.012 C 
ENDBRANCH  23  24
BRANCH  23  27
HETATM   27  C   UNL     1     -13.498 -12.821  -5.651  1.00  0.00     0.238 C 
HETATM   28  O   UNL     1     -14.195 -11.927  -5.187  1.00  0.00    -0.271 OA
HETATM   29  N   UNL     1     -12.943 -12.672  -6.890  1.00  0.00    -0.368 N 
HETATM   30  H   UNL     1     -12.368 -13.411  -7.297  1.00  0.00     0.159 HD
HETATM   31  H   UNL     1     -13.115 -11.832  -7.420  1.00  0.00     0.159 HD
ENDBRANCH  23  27
ENDBRANCH  20  23
ENDBRANCH  14  19
ENDBRANCH  11  12
BRANCH  11  32
HETATM   32  C   UNL     1     -15.331 -16.433   1.205  1.00  0.00     0.035 C 
BRANCH  32  33
HETATM   33  C   UNL     1     -16.520 -15.553   1.705  1.00  0.00     0.004 C 
BRANCH  33  34
HETATM   34  C   UNL     1     -16.159 -14.353   2.595  1.00  0.00     0.030 C 
BRANCH  34  35
HETATM   35  C   UNL     1     -15.755 -13.096   1.791  1.00  0.00     0.267 C 
BRANCH  35  36
HETATM   36  N   UNL     1     -16.878 -12.468   1.085  1.00  0.00     0.078 N 
HETATM   37  H   UNL     1     -17.664 -12.367   1.727  1.00  0.00     0.312 HD
HETATM   38  H   UNL     1     -17.209 -13.116   0.364  1.00  0.00     0.312 HD
ENDBRANCH  35  36
ENDBRANCH  34  35
ENDBRANCH  33  34
ENDBRANCH  32  33
ENDBRANCH  11  32
ENDBRANCH   8  11
ENDBRANCH   6   7
BRANCH   6  39
HETATM   39  C   UNL     1     -18.947 -16.702  -2.882  1.00  0.00     0.073 C 
BRANCH  39  40
HETATM   40  C   UNL     1     -19.529 -16.696  -4.288  1.00  0.00    -0.056 A 
HETATM   41  C   UNL     1     -18.760 -16.720  -5.457  1.00  0.00     0.007 A 
HETATM   42  C   UNL     1     -19.369 -16.818  -6.714  1.00  0.00     0.001 A 
HETATM   43  C   UNL     1     -20.755 -16.886  -6.824  1.00  0.00     0.000 A 
HETATM   44  C   UNL     1     -21.538 -16.811  -5.678  1.00  0.00     0.001 A 
HETATM   45  C   UNL     1     -20.931 -16.701  -4.424  1.00  0.00     0.007 A 
ENDBRANCH  39  40
ENDBRANCH   6  39
ENDBRANCH   3   6
ENDBRANCH   1   2
BRANCH   1  46
HETATM   46  C   UNL     1     -21.527 -13.769   0.651  1.00  0.00     0.075 C 
BRANCH  46  47
HETATM   47  C   UNL     1     -22.635 -14.682   1.089  1.00  0.00    -0.028 C 
HETATM   48  C   UNL     1     -23.791 -14.985   0.384  1.00  0.00     0.096 C 
HETATM   49  N   UNL     1     -24.479 -15.888   1.143  1.00  0.00    -0.365 N 
HETATM   50  C   UNL     1     -24.140 -15.614   2.445  1.00  0.00     0.042 C 
HETATM   51  H   UNL     1     -24.606 -16.835   0.819  1.00  0.00     0.165 HD
HETATM   52  C   UNL     1     -24.884 -15.621   3.617  1.00  0.00     0.030 C 
HETATM   53  C   UNL     1     -22.803 -15.239   2.394  1.00  0.00    -0.002 C 
HETATM   54  C   UNL     1     -24.169 -15.394   4.792  1.00  0.00     0.002 C 
HETATM   55  C   UNL     1     -22.772 -15.320   4.785  1.00  0.00     0.001 C 
HETATM   56  C   UNL     1     -22.058 -15.253   3.583  1.00  0.00     0.014 C 
ENDBRANCH  46  47
ENDBRANCH   1  46
BRANCH   1  57
HETATM   57  N   UNL     1     -21.630 -11.817  -0.929  1.00  0.00    -0.346 N 
HETATM   58  C   UNL     1     -20.513 -11.025  -0.801  1.00  0.00     0.241 C 
HETATM   59  O   UNL     1     -19.390 -11.448  -0.520  1.00  0.00    -0.271 OA
HETATM   60  H   UNL     1     -22.532 -11.376  -0.780  1.00  0.00     0.163 HD
BRANCH  58  61
HETATM   61  C   UNL     1     -20.710  -9.506  -1.027  1.00  0.00     0.176 C 
BRANCH  61  62
HETATM   62  C   UNL     1     -20.422  -8.595   0.185  1.00  0.00     0.036 C 
BRANCH  62  63
HETATM   63  C   UNL     1     -21.658  -7.927   0.780  1.00  0.00     0.022 C 
BRANCH  63  64
HETATM   64  C   UNL     1     -22.909  -8.219  -0.037  1.00  0.00     0.121 C 
BRANCH  64  65
HETATM   65  N   UNL     1     -23.589  -9.356   0.559  1.00  0.00    -0.372 N 
HETATM   66  C   UNL     1     -23.942 -10.296  -0.227  1.00  0.00     0.121 C 
HETATM   67  N   UNL     1     -23.832 -10.405  -1.567  1.00  0.00    -0.279 NA
HETATM   68  N   UNL     1     -24.555 -11.396   0.278  1.00  0.00    -0.279 NA
HETATM   69  H   UNL     1     -23.227  -9.715  -1.988  1.00  0.00     0.126 HD
HETATM   70  H   UNL     1     -23.579 -11.340  -1.862  1.00  0.00     0.126 HD
HETATM   71  H   UNL     1     -24.865 -11.208   1.228  1.00  0.00     0.126 HD
HETATM   72  H   UNL     1     -25.319 -11.729  -0.296  1.00  0.00     0.126 HD
ATOM     73  HN  UNL     1     -23.775  -9.400   1.561  1.00  0.00     0.161 HD
ENDBRANCH  64  65
ENDBRANCH  63  64
ENDBRANCH  62  63
ENDBRANCH  61  62
BRANCH  61  74
HETATM   74  N   UNL     1     -19.940  -9.209  -2.240  1.00  0.00    -0.346 N 
HETATM   75  C   UNL     1     -20.664  -8.882  -3.366  1.00  0.00     0.241 C 
HETATM   76  O   UNL     1     -21.884  -9.050  -3.350  1.00  0.00    -0.271 OA
HETATM   77  H   UNL     1     -19.011  -8.831  -2.116  1.00  0.00     0.163 HD
BRANCH  75  78
HETATM   78  C   UNL     1     -19.971  -8.252  -4.596  1.00  0.00     0.180 C 
BRANCH  78  79
HETATM   79  C   UNL     1     -19.309  -9.220  -5.609  1.00  0.00     0.073 C 
BRANCH  79  80
HETATM   80  C   UNL     1     -19.847 -10.620  -5.837  1.00  0.00    -0.056 A 
HETATM   81  C   UNL     1     -21.198 -10.903  -6.058  1.00  0.00     0.007 A 
HETATM   82  C   UNL     1     -21.626 -12.205  -6.323  1.00  0.00     0.001 A 
HETATM   83  C   UNL     1     -20.709 -13.251  -6.371  1.00  0.00     0.000 A 
HETATM   84  C   UNL     1     -19.367 -13.003  -6.105  1.00  0.00     0.001 A 
HETATM   85  C   UNL     1     -18.940 -11.700  -5.827  1.00  0.00     0.007 A 
ENDBRANCH  79  80
ENDBRANCH  78  79
BRANCH  78  86
HETATM   86  N   UNL     1     -20.909  -7.280  -5.208  1.00  0.00    -0.346 N 
HETATM   87  C   UNL     1     -20.400  -6.127  -5.821  1.00  0.00     0.241 C 
HETATM   88  O   UNL     1     -19.207  -5.999  -6.098  1.00  0.00    -0.271 OA
HETATM   89  H   UNL     1     -21.847  -7.237  -4.831  1.00  0.00     0.163 HD
BRANCH  87  90
HETATM   90  C   UNL     1     -21.456  -5.066  -6.243  1.00  0.00     0.179 C 
HETATM   91  C   UNL     1     -22.819  -5.664  -5.840  1.00  0.00     0.037 C 
HETATM   92  C   UNL     1     -23.841  -4.945  -6.701  1.00  0.00     0.022 C 
HETATM   93  C   UNL     1     -23.082  -4.605  -7.970  1.00  0.00     0.127 C 
HETATM   94  N   UNL     1     -21.672  -4.840  -7.680  1.00  0.00    -0.337 N 
HETATM   95  C   UNL     1     -20.658  -4.535  -8.588  1.00  0.00     0.253 C 
HETATM   96  O   UNL     1     -19.514  -4.263  -8.227  1.00  0.00    -0.271 OA
BRANCH  95  97
HETATM   97  C   UNL     1     -21.085  -4.580 -10.101  1.00  0.00     0.309 C 
BRANCH  97  98
HETATM   98  C   UNL     1     -21.825  -3.332 -10.630  1.00  0.00     0.055 C 
BRANCH  98  99
HETATM   99  C   UNL     1     -23.374  -3.456 -10.706  1.00  0.00     0.076 C 
BRANCH  99 100
HETATM  100  S   UNL     1     -24.091  -3.078 -12.356  1.00  0.00    -0.173 SA
HETATM  101  C   UNL     1     -22.621  -2.931 -13.395  1.00  0.00     0.089 C 
ENDBRANCH  99 100
ENDBRANCH  98  99
ENDBRANCH  97  98
BRANCH  97 102
HETATM  102  N   UNL     1     -19.860  -4.808 -10.904  1.00  0.00     0.092 N 
HETATM  103  H   UNL     1     -20.059  -4.531 -11.868  1.00  0.00     0.313 HD
HETATM  104  H   UNL     1     -19.696  -5.818 -10.954  1.00  0.00     0.313 HD
ENDBRANCH  97 102
ENDBRANCH  95  97
ENDBRANCH  87  90
ENDBRANCH  78  86
ENDBRANCH  75  78
ENDBRANCH  61  74
ENDBRANCH  58  61
ENDBRANCH   1  57
TORSDOF 35
ENDMDL
MODEL 8
REMARK VINA RESULT:      -5.2      2.325      7.297
REMARK WARNING: 32 MAX_TORS EXCEEDED!!!
REMARK  35 active torsions:
REMARK  status: ('A' for Active; 'I' for Inactive)
REMARK    1  A    between atoms: C_2  and  C_4 
REMARK    2  A    between atoms: C_4  and  C_5 
REMARK    3  A    between atoms: C_4  and  N_8 
REMARK       I    between atoms: C_5  and  N_7 
REMARK       I    between atoms: N_8  and  C_9 
REMARK    4  A    between atoms: C_9  and  C_11 
REMARK       I    between atoms: N_15  and  C_16 
REMARK    5  A    between atoms: C_16  and  C_18 
REMARK    6  A    between atoms: C_18  and  C_19 
REMARK    7  A    between atoms: C_18  and  N_24 
REMARK    8  A    between atoms: C_19  and  C_20 
REMARK    9  A    between atoms: C_20  and  C_21 
REMARK   10  A    between atoms: C_21  and  C_22 
REMARK   11  A    between atoms: C_22  and  N_23 
REMARK       I    between atoms: N_24  and  C_25 
REMARK   12  A    between atoms: C_25  and  C_27 
REMARK   13  A    between atoms: C_27  and  C_28 
REMARK   14  A    between atoms: C_27  and  N_35 
REMARK   15  A    between atoms: C_28  and  C_29 
REMARK       I    between atoms: N_35  and  C_36 
REMARK   16  A    between atoms: C_36  and  C_38 
REMARK   17  A    between atoms: C_38  and  C_39 
REMARK   18  A    between atoms: C_38  and  N_49 
REMARK   19  A    between atoms: C_39  and  C_40 
REMARK       I    between atoms: N_49  and  C_50 
REMARK   20  A    between atoms: C_50  and  C_52 
REMARK   21  A    between atoms: C_52  and  C_53 
REMARK   22  A    between atoms: C_52  and  N_61 
REMARK   23  A    between atoms: C_53  and  C_54 
REMARK   24  A    between atoms: C_54  and  C_55 
REMARK   25  A    between atoms: C_55  and  N_56 
REMARK       I    between atoms: C_58  and  N_59 
REMARK       I    between atoms: C_58  and  N_60 
REMARK       I    between atoms: N_61  and  C_62 
REMARK   26  A    between atoms: C_62  and  C_64 
REMARK   27  A    between atoms: C_64  and  C_65 
REMARK   28  A    between atoms: C_64  and  N_72 
REMARK   29  A    between atoms: C_65  and  C_66 
REMARK       I    between atoms: N_72  and  C_73 
REMARK   30  A    between atoms: C_73  and  C_75 
REMARK       I    between atoms: N_79  and  C_80 
REMARK   31  A    between atoms: C_80  and  C_82 
REMARK   32  A    between atoms: C_82  and  C_83 
REMARK   33  A    between atoms: C_82  and  N_87 
REMARK   34  A    between atoms: C_83  and  C_84 
REMARK   35  A    between atoms: C_84  and  S_85 
ROOT
HETATM    1  C   UNL     1     -21.150 -12.550  -2.631  1.00  0.00     0.181 C 
ENDROOT
BRANCH   1   2
HETATM    2  C   UNL     1     -20.186 -11.321  -2.899  1.00  0.00     0.241 C 
HETATM    3  N   UNL     1     -20.734 -10.066  -3.094  1.00  0.00    -0.346 N 
HETATM    4  H   UNL     1     -21.740  -9.965  -3.148  1.00  0.00     0.163 HD
HETATM    5  O   UNL     1     -18.963 -11.489  -2.949  1.00  0.00    -0.271 OA
BRANCH   3   6
HETATM    6  C   UNL     1     -19.944  -8.854  -3.450  1.00  0.00     0.180 C 
BRANCH   6   7
HETATM    7  C   UNL     1     -19.762  -8.635  -5.019  1.00  0.00     0.241 C 
HETATM    8  N   UNL     1     -20.025  -7.346  -5.496  1.00  0.00    -0.346 N 
HETATM    9  H   UNL     1     -20.428  -6.678  -4.852  1.00  0.00     0.163 HD
HETATM   10  O   UNL     1     -19.329  -9.551  -5.719  1.00  0.00    -0.271 OA
BRANCH   8  11
HETATM   11  C   UNL     1     -19.681  -6.817  -6.851  1.00  0.00     0.176 C 
BRANCH  11  12
HETATM   12  C   UNL     1     -20.697  -5.773  -7.309  1.00  0.00     0.243 C 
HETATM   13  N   UNL     1     -21.938  -5.657  -6.719  1.00  0.00    -0.337 N 
HETATM   14  C   UNL     1     -23.137  -5.226  -7.511  1.00  0.00     0.179 C 
HETATM   15  C   UNL     1     -22.363  -6.225  -5.452  1.00  0.00     0.127 C 
HETATM   16  C   UNL     1     -24.133  -4.903  -6.411  1.00  0.00     0.037 C 
HETATM   17  C   UNL     1     -23.870  -5.957  -5.343  1.00  0.00     0.022 C 
HETATM   18  O   UNL     1     -20.444  -5.210  -8.390  1.00  0.00    -0.271 OA
BRANCH  14  19
HETATM   19  C   UNL     1     -22.947  -4.078  -8.503  1.00  0.00     0.241 C 
HETATM   20  N   UNL     1     -23.068  -4.430  -9.850  1.00  0.00    -0.346 N 
HETATM   21  H   UNL     1     -22.854  -5.400 -10.058  1.00  0.00     0.163 HD
HETATM   22  O   UNL     1     -22.700  -2.931  -8.116  1.00  0.00    -0.271 OA
BRANCH  20  23
HETATM   23  C   UNL     1     -22.717  -3.461 -10.890  1.00  0.00     0.179 C 
BRANCH  23  24
HETATM   24  C   UNL     1     -21.303  -3.564 -11.513  1.00  0.00     0.009 C 
HETATM   25  C   UNL     1     -20.419  -2.375 -11.120  1.00  0.00     0.012 C 
HETATM   26  C   UNL     1     -20.495  -4.843 -11.289  1.00  0.00     0.012 C 
ENDBRANCH  23  24
BRANCH  23  27
HETATM   27  C   UNL     1     -23.867  -3.459 -11.942  1.00  0.00     0.238 C 
HETATM   28  O   UNL     1     -23.726  -3.540 -13.156  1.00  0.00    -0.271 OA
HETATM   29  N   UNL     1     -25.121  -3.351 -11.412  1.00  0.00    -0.368 N 
HETATM   30  H   UNL     1     -25.257  -3.271 -10.403  1.00  0.00     0.159 HD
HETATM   31  H   UNL     1     -25.924  -3.331 -12.021  1.00  0.00     0.159 HD
ENDBRANCH  23  27
ENDBRANCH  20  23
ENDBRANCH  14  19
ENDBRANCH  11  12
BRANCH  11  32
HETATM   32  C   UNL     1     -18.302  -6.050  -6.807  1.00  0.00     0.035 C 
BRANCH  32  33
HETATM   33  C   UNL     1     -18.416  -4.493  -6.790  1.00  0.00     0.004 C 
BRANCH  33  34
HETATM   34  C   UNL     1     -17.410  -3.723  -7.658  1.00  0.00     0.030 C 
BRANCH  34  35
HETATM   35  C   UNL     1     -15.951  -3.852  -7.163  1.00  0.00     0.267 C 
BRANCH  35  36
HETATM   36  N   UNL     1     -15.217  -2.581  -7.168  1.00  0.00     0.078 N 
HETATM   37  H   UNL     1     -15.882  -1.809  -7.126  1.00  0.00     0.312 HD
HETATM   38  H   UNL     1     -14.754  -2.479  -8.076  1.00  0.00     0.312 HD
ENDBRANCH  35  36
ENDBRANCH  34  35
ENDBRANCH  33  34
ENDBRANCH  32  33
ENDBRANCH  11  32
ENDBRANCH   8  11
ENDBRANCH   6   7
BRANCH   6  39
HETATM   39  C   UNL     1     -20.443  -7.610  -2.679  1.00  0.00     0.073 C 
BRANCH  39  40
HETATM   40  C   UNL     1     -21.153  -7.753  -1.340  1.00  0.00    -0.056 A 
HETATM   41  C   UNL     1     -22.378  -7.152  -1.031  1.00  0.00     0.007 A 
HETATM   42  C   UNL     1     -23.020  -7.416   0.185  1.00  0.00     0.001 A 
HETATM   43  C   UNL     1     -22.445  -8.276   1.115  1.00  0.00     0.000 A 
HETATM   44  C   UNL     1     -21.203  -8.843   0.850  1.00  0.00     0.001 A 
HETATM   45  C   UNL     1     -20.557  -8.571  -0.359  1.00  0.00     0.007 A 
ENDBRANCH  39  40
ENDBRANCH   6  39
ENDBRANCH   3   6
ENDBRANCH   1   2
BRANCH   1  46
HETATM   46  C   UNL     1     -21.834 -13.125  -3.880  1.00  0.00     0.075 C 
BRANCH  46  47
HETATM   47  C   UNL     1     -21.233 -12.652  -5.171  1.00  0.00    -0.028 C 
HETATM   48  C   UNL     1     -21.790 -11.752  -6.068  1.00  0.00     0.096 C 
HETATM   49  N   UNL     1     -20.874 -11.586  -7.066  1.00  0.00    -0.365 N 
HETATM   50  C   UNL     1     -20.177 -12.767  -7.131  1.00  0.00     0.042 C 
HETATM   51  H   UNL     1     -20.415 -10.696  -7.195  1.00  0.00     0.165 HD
HETATM   52  C   UNL     1     -19.682 -13.491  -8.206  1.00  0.00     0.030 C 
HETATM   53  C   UNL     1     -20.079 -13.197  -5.814  1.00  0.00    -0.002 C 
HETATM   54  C   UNL     1     -18.914 -14.610  -7.884  1.00  0.00     0.002 C 
HETATM   55  C   UNL     1     -18.551 -14.880  -6.561  1.00  0.00     0.001 C 
HETATM   56  C   UNL     1     -19.118 -14.169  -5.496  1.00  0.00     0.014 C 
ENDBRANCH  46  47
ENDBRANCH   1  46
BRANCH   1  57
HETATM   57  N   UNL     1     -20.342 -13.549  -1.902  1.00  0.00    -0.346 N 
HETATM   58  C   UNL     1     -20.265 -13.671  -0.535  1.00  0.00     0.241 C 
HETATM   59  O   UNL     1     -20.837 -12.924   0.263  1.00  0.00    -0.271 OA
HETATM   60  H   UNL     1     -19.575 -13.929  -2.447  1.00  0.00     0.163 HD
BRANCH  58  61
HETATM   61  C   UNL     1     -19.391 -14.826   0.011  1.00  0.00     0.176 C 
BRANCH  61  62
HETATM   62  C   UNL     1     -19.754 -16.243  -0.478  1.00  0.00     0.036 C 
BRANCH  62  63
HETATM   63  C   UNL     1     -21.252 -16.525  -0.543  1.00  0.00     0.022 C 
BRANCH  63  64
HETATM   64  C   UNL     1     -21.840 -16.787   0.836  1.00  0.00     0.121 C 
BRANCH  64  65
HETATM   65  N   UNL     1     -22.806 -15.741   1.127  1.00  0.00    -0.372 N 
HETATM   66  C   UNL     1     -22.688 -15.139   2.245  1.00  0.00     0.121 C 
HETATM   67  N   UNL     1     -21.823 -15.339   3.260  1.00  0.00    -0.279 NA
HETATM   68  N   UNL     1     -23.545 -14.134   2.557  1.00  0.00    -0.279 NA
HETATM   69  H   UNL     1     -21.047 -15.941   3.027  1.00  0.00     0.126 HD
HETATM   70  H   UNL     1     -21.502 -14.472   3.674  1.00  0.00     0.126 HD
HETATM   71  H   UNL     1     -24.339 -14.153   1.924  1.00  0.00     0.126 HD
HETATM   72  H   UNL     1     -23.847 -14.150   3.523  1.00  0.00     0.126 HD
ATOM     73  HN  UNL     1     -23.544 -15.499   0.466  1.00  0.00     0.161 HD
ENDBRANCH  64  65
ENDBRANCH  63  64
ENDBRANCH  62  63
ENDBRANCH  61  62
BRANCH  61  74
HETATM   74  N   UNL     1     -18.011 -14.400  -0.246  1.00  0.00    -0.346 N 
HETATM   75  C   UNL     1     -17.106 -14.585   0.776  1.00  0.00     0.241 C 
HETATM   76  O   UNL     1     -17.532 -14.897   1.889  1.00  0.00    -0.271 OA
HETATM   77  H   UNL     1     -17.692 -14.424  -1.206  1.00  0.00     0.163 HD
BRANCH  75  78
HETATM   78  C   UNL     1     -15.586 -14.471   0.518  1.00  0.00     0.180 C 
BRANCH  78  79
HETATM   79  C   UNL     1     -14.644 -14.681   1.730  1.00  0.00     0.073 C 
BRANCH  79  80
HETATM   80  C   UNL     1     -13.159 -14.925   1.548  1.00  0.00    -0.056 A 
HETATM   81  C   UNL     1     -12.546 -16.163   1.761  1.00  0.00     0.007 A 
HETATM   82  C   UNL     1     -11.183 -16.344   1.520  1.00  0.00     0.001 A 
HETATM   83  C   UNL     1     -10.405 -15.286   1.059  1.00  0.00     0.000 A 
HETATM   84  C   UNL     1     -10.979 -14.031   0.886  1.00  0.00     0.001 A 
HETATM   85  C   UNL     1     -12.343 -13.848   1.142  1.00  0.00     0.007 A 
ENDBRANCH  79  80
ENDBRANCH  78  79
BRANCH  78  86
HETATM   86  N   UNL     1     -15.254 -15.304  -0.662  1.00  0.00    -0.346 N 
HETATM   87  C   UNL     1     -14.614 -14.714  -1.762  1.00  0.00     0.241 C 
HETATM   88  O   UNL     1     -14.091 -13.601  -1.701  1.00  0.00    -0.271 OA
HETATM   89  H   UNL     1     -15.829 -16.118  -0.835  1.00  0.00     0.163 HD
BRANCH  87  90
HETATM   90  C   UNL     1     -14.498 -15.605  -3.031  1.00  0.00     0.179 C 
HETATM   91  C   UNL     1     -13.174 -16.378  -2.867  1.00  0.00     0.037 C 
HETATM   92  C   UNL     1     -12.782 -16.803  -4.271  1.00  0.00     0.022 C 
HETATM   93  C   UNL     1     -13.360 -15.717  -5.160  1.00  0.00     0.127 C 
HETATM   94  N   UNL     1     -14.267 -14.939  -4.322  1.00  0.00    -0.337 N 
HETATM   95  C   UNL     1     -15.062 -13.912  -4.829  1.00  0.00     0.253 C 
HETATM   96  O   UNL     1     -16.129 -13.591  -4.309  1.00  0.00    -0.271 OA
BRANCH  95  97
HETATM   97  C   UNL     1     -14.484 -13.191  -6.103  1.00  0.00     0.309 C 
BRANCH  97  98
HETATM   98  C   UNL     1     -15.508 -12.417  -6.961  1.00  0.00     0.055 C 
BRANCH  98  99
HETATM   99  C   UNL     1     -16.542 -11.571  -6.165  1.00  0.00     0.076 C 
BRANCH  99 100
HETATM  100  S   UNL     1     -15.962  -9.887  -5.706  1.00  0.00    -0.173 SA
HETATM  101  C   UNL     1     -15.982  -9.948  -3.901  1.00  0.00     0.089 C 
ENDBRANCH  99 100
ENDBRANCH  98  99
ENDBRANCH  97  98
BRANCH  97 102
HETATM  102  N   UNL     1     -13.418 -12.268  -5.647  1.00  0.00     0.092 N 
HETATM  103  H   UNL     1     -13.426 -11.450  -6.261  1.00  0.00     0.313 HD
HETATM  104  H   UNL     1     -12.513 -12.716  -5.825  1.00  0.00     0.313 HD
ENDBRANCH  97 102
ENDBRANCH  95  97
ENDBRANCH  87  90
ENDBRANCH  78  86
ENDBRANCH  75  78
ENDBRANCH  61  74
ENDBRANCH  58  61
ENDBRANCH   1  57
TORSDOF 35
ENDMDL
MODEL 9
REMARK VINA RESULT:      -4.7      2.100      3.149
REMARK WARNING: 32 MAX_TORS EXCEEDED!!!
REMARK  35 active torsions:
REMARK  status: ('A' for Active; 'I' for Inactive)
REMARK    1  A    between atoms: C_2  and  C_4 
REMARK    2  A    between atoms: C_4  and  C_5 
REMARK    3  A    between atoms: C_4  and  N_8 
REMARK       I    between atoms: C_5  and  N_7 
REMARK       I    between atoms: N_8  and  C_9 
REMARK    4  A    between atoms: C_9  and  C_11 
REMARK       I    between atoms: N_15  and  C_16 
REMARK    5  A    between atoms: C_16  and  C_18 
REMARK    6  A    between atoms: C_18  and  C_19 
REMARK    7  A    between atoms: C_18  and  N_24 
REMARK    8  A    between atoms: C_19  and  C_20 
REMARK    9  A    between atoms: C_20  and  C_21 
REMARK   10  A    between atoms: C_21  and  C_22 
REMARK   11  A    between atoms: C_22  and  N_23 
REMARK       I    between atoms: N_24  and  C_25 
REMARK   12  A    between atoms: C_25  and  C_27 
REMARK   13  A    between atoms: C_27  and  C_28 
REMARK   14  A    between atoms: C_27  and  N_35 
REMARK   15  A    between atoms: C_28  and  C_29 
REMARK       I    between atoms: N_35  and  C_36 
REMARK   16  A    between atoms: C_36  and  C_38 
REMARK   17  A    between atoms: C_38  and  C_39 
REMARK   18  A    between atoms: C_38  and  N_49 
REMARK   19  A    between atoms: C_39  and  C_40 
REMARK       I    between atoms: N_49  and  C_50 
REMARK   20  A    between atoms: C_50  and  C_52 
REMARK   21  A    between atoms: C_52  and  C_53 
REMARK   22  A    between atoms: C_52  and  N_61 
REMARK   23  A    between atoms: C_53  and  C_54 
REMARK   24  A    between atoms: C_54  and  C_55 
REMARK   25  A    between atoms: C_55  and  N_56 
REMARK       I    between atoms: C_58  and  N_59 
REMARK       I    between atoms: C_58  and  N_60 
REMARK       I    between atoms: N_61  and  C_62 
REMARK   26  A    between atoms: C_62  and  C_64 
REMARK   27  A    between atoms: C_64  and  C_65 
REMARK   28  A    between atoms: C_64  and  N_72 
REMARK   29  A    between atoms: C_65  and  C_66 
REMARK       I    between atoms: N_72  and  C_73 
REMARK   30  A    between atoms: C_73  and  C_75 
REMARK       I    between atoms: N_79  and  C_80 
REMARK   31  A    between atoms: C_80  and  C_82 
REMARK   32  A    between atoms: C_82  and  C_83 
REMARK   33  A    between atoms: C_82  and  N_87 
REMARK   34  A    between atoms: C_83  and  C_84 
REMARK   35  A    between atoms: C_84  and  S_85 
ROOT
HETATM    1  C   UNL     1     -18.396 -14.515  -3.659  1.00  0.00     0.181 C 
ENDROOT
BRANCH   1   2
HETATM    2  C   UNL     1     -19.520 -13.701  -4.425  1.00  0.00     0.241 C 
HETATM    3  N   UNL     1     -19.169 -12.551  -5.109  1.00  0.00    -0.346 N 
HETATM    4  H   UNL     1     -18.222 -12.200  -5.040  1.00  0.00     0.163 HD
HETATM    5  O   UNL     1     -20.695 -14.082  -4.394  1.00  0.00    -0.271 OA
BRANCH   3   6
HETATM    6  C   UNL     1     -20.143 -11.647  -5.782  1.00  0.00     0.180 C 
BRANCH   6   7
HETATM    7  C   UNL     1     -19.721 -10.110  -5.768  1.00  0.00     0.241 C 
HETATM    8  N   UNL     1     -20.765  -9.185  -5.649  1.00  0.00    -0.346 N 
HETATM    9  H   UNL     1     -21.712  -9.534  -5.705  1.00  0.00     0.163 HD
HETATM   10  O   UNL     1     -18.528  -9.802  -5.776  1.00  0.00    -0.271 OA
BRANCH   8  11
HETATM   11  C   UNL     1     -20.624  -7.727  -5.350  1.00  0.00     0.176 C 
BRANCH  11  12
HETATM   12  C   UNL     1     -20.922  -6.880  -6.585  1.00  0.00     0.243 C 
HETATM   13  N   UNL     1     -20.135  -5.803  -6.937  1.00  0.00    -0.337 N 
HETATM   14  C   UNL     1     -20.723  -4.602  -7.616  1.00  0.00     0.179 C 
HETATM   15  C   UNL     1     -18.807  -5.489  -6.441  1.00  0.00     0.127 C 
HETATM   16  C   UNL     1     -19.477  -3.887  -8.110  1.00  0.00     0.037 C 
HETATM   17  C   UNL     1     -18.453  -4.106  -7.005  1.00  0.00     0.022 C 
HETATM   18  O   UNL     1     -22.038  -7.058  -7.107  1.00  0.00    -0.271 OA
BRANCH  14  19
HETATM   19  C   UNL     1     -21.749  -4.852  -8.721  1.00  0.00     0.241 C 
HETATM   20  N   UNL     1     -21.644  -4.010  -9.832  1.00  0.00    -0.346 N 
HETATM   21  H   UNL     1     -21.222  -3.106  -9.643  1.00  0.00     0.163 HD
HETATM   22  O   UNL     1     -22.603  -5.738  -8.615  1.00  0.00    -0.271 OA
BRANCH  20  23
HETATM   23  C   UNL     1     -22.685  -4.028 -10.861  1.00  0.00     0.179 C 
BRANCH  23  24
HETATM   24  C   UNL     1     -23.911  -3.106 -10.651  1.00  0.00     0.009 C 
HETATM   25  C   UNL     1     -24.767  -2.998 -11.917  1.00  0.00     0.012 C 
HETATM   26  C   UNL     1     -24.848  -3.388  -9.475  1.00  0.00     0.012 C 
ENDBRANCH  23  24
BRANCH  23  27
HETATM   27  C   UNL     1     -21.988  -3.840 -12.242  1.00  0.00     0.238 C 
HETATM   28  O   UNL     1     -22.527  -3.437 -13.266  1.00  0.00    -0.271 OA
HETATM   29  N   UNL     1     -20.664  -4.171 -12.260  1.00  0.00    -0.368 N 
HETATM   30  H   UNL     1     -20.201  -4.518 -11.419  1.00  0.00     0.159 HD
HETATM   31  H   UNL     1     -20.137  -4.090 -13.116  1.00  0.00     0.159 HD
ENDBRANCH  23  27
ENDBRANCH  20  23
ENDBRANCH  14  19
ENDBRANCH  11  12
BRANCH  11  32
HETATM   32  C   UNL     1     -21.697  -7.280  -4.282  1.00  0.00     0.035 C 
BRANCH  32  33
HETATM   33  C   UNL     1     -21.173  -6.279  -3.204  1.00  0.00     0.004 C 
BRANCH  33  34
HETATM   34  C   UNL     1     -20.753  -6.882  -1.855  1.00  0.00     0.030 C 
BRANCH  34  35
HETATM   35  C   UNL     1     -21.881  -7.683  -1.166  1.00  0.00     0.267 C 
BRANCH  35  36
HETATM   36  N   UNL     1     -22.609  -6.914  -0.150  1.00  0.00     0.078 N 
HETATM   37  H   UNL     1     -22.093  -6.059   0.057  1.00  0.00     0.312 HD
HETATM   38  H   UNL     1     -22.598  -7.445   0.725  1.00  0.00     0.312 HD
ENDBRANCH  35  36
ENDBRANCH  34  35
ENDBRANCH  33  34
ENDBRANCH  32  33
ENDBRANCH  11  32
ENDBRANCH   8  11
ENDBRANCH   6   7
BRANCH   6  39
HETATM   39  C   UNL     1     -20.551 -12.192  -7.170  1.00  0.00     0.073 C 
BRANCH  39  40
HETATM   40  C   UNL     1     -19.681 -13.209  -7.896  1.00  0.00    -0.056 A 
HETATM   41  C   UNL     1     -19.875 -14.593  -7.840  1.00  0.00     0.007 A 
HETATM   42  C   UNL     1     -19.099 -15.459  -8.619  1.00  0.00     0.001 A 
HETATM   43  C   UNL     1     -18.110 -14.957  -9.460  1.00  0.00     0.000 A 
HETATM   44  C   UNL     1     -17.866 -13.589  -9.492  1.00  0.00     0.001 A 
HETATM   45  C   UNL     1     -18.634 -12.725  -8.706  1.00  0.00     0.007 A 
ENDBRANCH  39  40
ENDBRANCH   6  39
ENDBRANCH   3   6
ENDBRANCH   1   2
BRANCH   1  46
HETATM   46  C   UNL     1     -17.032 -13.817  -3.569  1.00  0.00     0.075 C 
BRANCH  46  47
HETATM   47  C   UNL     1     -15.996 -14.393  -4.488  1.00  0.00    -0.028 C 
HETATM   48  C   UNL     1     -15.267 -15.558  -4.295  1.00  0.00     0.096 C 
HETATM   49  N   UNL     1     -14.485 -15.711  -5.404  1.00  0.00    -0.365 N 
HETATM   50  C   UNL     1     -14.243 -14.442  -5.867  1.00  0.00     0.042 C 
HETATM   51  H   UNL     1     -14.642 -16.482  -6.036  1.00  0.00     0.165 HD
HETATM   52  C   UNL     1     -13.112 -13.857  -6.418  1.00  0.00     0.030 C 
HETATM   53  C   UNL     1     -15.419 -13.743  -5.624  1.00  0.00    -0.002 C 
HETATM   54  C   UNL     1     -13.268 -12.553  -6.886  1.00  0.00     0.002 C 
HETATM   55  C   UNL     1     -14.527 -11.946  -6.926  1.00  0.00     0.001 C 
HETATM   56  C   UNL     1     -15.634 -12.536  -6.305  1.00  0.00     0.014 C 
ENDBRANCH  46  47
ENDBRANCH   1  46
BRANCH   1  57
HETATM   57  N   UNL     1     -18.966 -14.847  -2.337  1.00  0.00    -0.346 N 
HETATM   58  C   UNL     1     -18.542 -15.864  -1.515  1.00  0.00     0.241 C 
HETATM   59  O   UNL     1     -17.647 -16.663  -1.804  1.00  0.00    -0.271 OA
HETATM   60  H   UNL     1     -19.913 -14.505  -2.203  1.00  0.00     0.163 HD
BRANCH  58  61
HETATM   61  C   UNL     1     -19.255 -15.995  -0.148  1.00  0.00     0.176 C 
BRANCH  61  62
HETATM   62  C   UNL     1     -18.681 -15.145   1.004  1.00  0.00     0.036 C 
BRANCH  62  63
HETATM   63  C   UNL     1     -17.296 -15.576   1.478  1.00  0.00     0.022 C 
BRANCH  63  64
HETATM   64  C   UNL     1     -16.620 -14.497   2.312  1.00  0.00     0.121 C 
BRANCH  64  65
HETATM   65  N   UNL     1     -15.271 -14.307   1.807  1.00  0.00    -0.372 N 
HETATM   66  C   UNL     1     -14.557 -15.353   1.657  1.00  0.00     0.121 C 
HETATM   67  N   UNL     1     -14.826 -16.644   1.936  1.00  0.00    -0.279 NA
HETATM   68  N   UNL     1     -13.299 -15.238   1.162  1.00  0.00    -0.279 NA
HETATM   69  H   UNL     1     -15.799 -16.829   2.133  1.00  0.00     0.126 HD
HETATM   70  H   UNL     1     -14.470 -17.277   1.230  1.00  0.00     0.126 HD
HETATM   71  H   UNL     1     -13.007 -14.265   1.193  1.00  0.00     0.126 HD
HETATM   72  H   UNL     1     -12.628 -15.836   1.628  1.00  0.00     0.126 HD
ATOM     73  HN  UNL     1     -14.912 -13.379   1.583  1.00  0.00     0.161 HD
ENDBRANCH  64  65
ENDBRANCH  63  64
ENDBRANCH  62  63
ENDBRANCH  61  62
BRANCH  61  74
HETATM   74  N   UNL     1     -20.675 -15.781  -0.448  1.00  0.00    -0.346 N 
HETATM   75  C   UNL     1     -21.582 -16.366   0.407  1.00  0.00     0.241 C 
HETATM   76  O   UNL     1     -21.171 -17.183   1.232  1.00  0.00    -0.271 OA
HETATM   77  H   UNL     1     -20.920 -14.925  -0.928  1.00  0.00     0.163 HD
BRANCH  75  78
HETATM   78  C   UNL     1     -23.073 -15.957   0.379  1.00  0.00     0.180 C 
BRANCH  78  79
HETATM   79  C   UNL     1     -23.975 -16.487   1.521  1.00  0.00     0.073 C 
BRANCH  79  80
HETATM   80  C   UNL     1     -25.484 -16.544   1.381  1.00  0.00    -0.056 A 
HETATM   81  C   UNL     1     -26.153 -16.405   0.162  1.00  0.00     0.007 A 
HETATM   82  C   UNL     1     -27.541 -16.527   0.085  1.00  0.00     0.001 A 
HETATM   83  C   UNL     1     -28.289 -16.790   1.228  1.00  0.00     0.000 A 
HETATM   84  C   UNL     1     -27.652 -16.883   2.462  1.00  0.00     0.001 A 
HETATM   85  C   UNL     1     -26.262 -16.747   2.540  1.00  0.00     0.007 A 
ENDBRANCH  79  80
ENDBRANCH  78  79
BRANCH  78  86
HETATM   86  N   UNL     1     -23.147 -14.490   0.177  1.00  0.00    -0.346 N 
HETATM   87  C   UNL     1     -22.639 -13.634   1.165  1.00  0.00     0.241 C 
HETATM   88  O   UNL     1     -21.912 -14.036   2.074  1.00  0.00    -0.271 OA
HETATM   89  H   UNL     1     -23.889 -14.137  -0.412  1.00  0.00     0.163 HD
BRANCH  87  90
HETATM   90  C   UNL     1     -22.949 -12.123   0.972  1.00  0.00     0.179 C 
HETATM   91  C   UNL     1     -24.380 -12.070   0.400  1.00  0.00     0.037 C 
HETATM   92  C   UNL     1     -24.486 -10.720  -0.286  1.00  0.00     0.022 C 
HETATM   93  C   UNL     1     -23.069 -10.425  -0.743  1.00  0.00     0.127 C 
HETATM   94  N   UNL     1     -22.211 -11.395  -0.071  1.00  0.00    -0.337 N 
HETATM   95  C   UNL     1     -20.820 -11.363  -0.171  1.00  0.00     0.253 C 
HETATM   96  O   UNL     1     -20.088 -11.809   0.710  1.00  0.00    -0.271 OA
BRANCH  95  97
HETATM   97  C   UNL     1     -20.264 -10.729  -1.500  1.00  0.00     0.309 C 
BRANCH  97  98
HETATM   98  C   UNL     1     -18.741 -10.854  -1.720  1.00  0.00     0.055 C 
BRANCH  98  99
HETATM   99  C   UNL     1     -18.028 -11.936  -0.858  1.00  0.00     0.076 C 
BRANCH  99 100
HETATM  100  S   UNL     1     -16.238 -11.628  -0.571  1.00  0.00    -0.173 SA
HETATM  101  C   UNL     1     -15.764 -10.691  -2.041  1.00  0.00     0.089 C 
ENDBRANCH  99 100
ENDBRANCH  98  99
ENDBRANCH  97  98
BRANCH  97 102
HETATM  102  N   UNL     1     -20.983 -11.361  -2.631  1.00  0.00     0.092 N 
HETATM  103  H   UNL     1     -21.986 -11.239  -2.474  1.00  0.00     0.313 HD
HETATM  104  H   UNL     1     -20.834 -12.374  -2.575  1.00  0.00     0.313 HD
ENDBRANCH  97 102
ENDBRANCH  95  97
ENDBRANCH  87  90
ENDBRANCH  78  86
ENDBRANCH  75  78
ENDBRANCH  61  74
ENDBRANCH  58  61
ENDBRANCH   1  57
TORSDOF 35
ENDMDL
