MODEL 1
REMARK VINA RESULT:      -6.3      0.000      0.000
REMARK  7 active torsions:
REMARK  status: ('A' for Active; 'I' for Inactive)
REMARK    1  A    between atoms: C_2  and  O_3 
REMARK    2  A    between atoms: O_3  and  C_4 
REMARK    3  A    between atoms: C_5  and  O_14 
REMARK    4  A    between atoms: C_9  and  C_10 
REMARK    5  A    between atoms: C_10  and  C_11 
REMARK    6  A    between atoms: C_10  and  O_13 
REMARK    7  A    between atoms: C_11  and  O_12 
ROOT
HETATM    1  C   UNL     1     -22.638  -4.487 -10.091  1.00  0.00     0.117 C 
HETATM    2  C   UNL     1     -23.591  -3.968  -9.320  1.00  0.00     0.174 C 
HETATM    3  C   UNL     1     -24.713  -3.611 -10.200  1.00  0.00     0.320 C 
HETATM    4  O   UNL     1     -25.758  -3.073  -9.878  1.00  0.00    -0.257 OA
HETATM    5  O   UNL     1     -24.409  -4.000 -11.473  1.00  0.00    -0.301 OA
HETATM    6  C   UNL     1     -23.048  -4.466 -11.524  1.00  0.00     0.222 C 
ENDROOT
BRANCH   6   7
HETATM    7  C   UNL     1     -22.263  -3.512 -12.449  1.00  0.00     0.177 C 
BRANCH   7   8
HETATM    8  C   UNL     1     -23.223  -2.761 -13.385  1.00  0.00     0.198 C 
BRANCH   8   9
HETATM    9  O   UNL     1     -23.670  -3.633 -14.420  1.00  0.00    -0.398 OA
HETATM   10  H   UNL     1     -24.099  -4.391 -13.974  1.00  0.00     0.209 HD
ENDBRANCH   8   9
ENDBRANCH   7   8
BRANCH   7  11
HETATM   11  O   UNL     1     -21.533  -2.522 -11.699  1.00  0.00    -0.390 OA
HETATM   12  H   UNL     1     -20.642  -2.882 -11.524  1.00  0.00     0.210 HD
ENDBRANCH   7  11
ENDBRANCH   6   7
BRANCH   1  13
HETATM   13  O   UNL     1     -21.475  -5.037  -9.596  1.00  0.00    -0.350 OA
BRANCH  13  14
HETATM   14  C   UNL     1     -20.498  -4.078  -9.178  1.00  0.00     0.171 C 
HETATM   15  C   UNL     1     -19.943  -4.469  -7.820  1.00  0.00     0.034 C 
ENDBRANCH  13  14
ENDBRANCH   1  13
BRANCH   2  16
HETATM   16  O   UNL     1     -23.585  -3.844  -7.960  1.00  0.00    -0.353 OA
HETATM   17  H   UNL     1     -22.827  -4.368  -7.637  1.00  0.00     0.218 HD
ENDBRANCH   2  16
TORSDOF 7
ENDMDL
MODEL 2
REMARK VINA RESULT:      -6.1     11.560     13.661
REMARK  7 active torsions:
REMARK  status: ('A' for Active; 'I' for Inactive)
REMARK    1  A    between atoms: C_2  and  O_3 
REMARK    2  A    between atoms: O_3  and  C_4 
REMARK    3  A    between atoms: C_5  and  O_14 
REMARK    4  A    between atoms: C_9  and  C_10 
REMARK    5  A    between atoms: C_10  and  C_11 
REMARK    6  A    between atoms: C_10  and  O_13 
REMARK    7  A    between atoms: C_11  and  O_12 
ROOT
HETATM    1  C   UNL     1     -35.469  -1.808 -12.150  1.00  0.00     0.117 C 
HETATM    2  C   UNL     1     -35.254  -1.195 -13.312  1.00  0.00     0.174 C 
HETATM    3  C   UNL     1     -35.212   0.249 -13.038  1.00  0.00     0.320 C 
HETATM    4  O   UNL     1     -35.074   1.148 -13.850  1.00  0.00    -0.257 OA
HETATM    5  O   UNL     1     -35.337   0.442 -11.693  1.00  0.00    -0.301 OA
HETATM    6  C   UNL     1     -35.626  -0.814 -11.049  1.00  0.00     0.222 C 
ENDROOT
BRANCH   6   7
HETATM    7  C   UNL     1     -37.029  -0.702 -10.419  1.00  0.00     0.177 C 
BRANCH   7   8
HETATM    8  C   UNL     1     -37.299   0.738  -9.959  1.00  0.00     0.198 C 
BRANCH   8   9
HETATM    9  O   UNL     1     -36.265   1.165  -9.074  1.00  0.00    -0.398 OA
HETATM   10  H   UNL     1     -35.869   1.962  -9.479  1.00  0.00     0.209 HD
ENDBRANCH   8   9
ENDBRANCH   7   8
BRANCH   7  11
HETATM   11  O   UNL     1     -38.065  -1.053 -11.357  1.00  0.00    -0.390 OA
HETATM   12  H   UNL     1     -37.729  -0.860 -12.254  1.00  0.00     0.210 HD
ENDBRANCH   7  11
ENDBRANCH   6   7
BRANCH   1  13
HETATM   13  O   UNL     1     -35.460  -3.177 -11.999  1.00  0.00    -0.350 OA
BRANCH  13  14
HETATM   14  C   UNL     1     -34.619  -3.651 -10.942  1.00  0.00     0.171 C 
HETATM   15  C   UNL     1     -33.167  -3.611 -11.384  1.00  0.00     0.034 C 
ENDBRANCH  13  14
ENDBRANCH   1  13
BRANCH   2  16
HETATM   16  O   UNL     1     -35.038  -1.772 -14.530  1.00  0.00    -0.353 OA
HETATM   17  H   UNL     1     -34.877  -1.042 -15.159  1.00  0.00     0.218 HD
ENDBRANCH   2  16
TORSDOF 7
ENDMDL
MODEL 3
REMARK VINA RESULT:      -5.3      7.998      9.863
REMARK  7 active torsions:
REMARK  status: ('A' for Active; 'I' for Inactive)
REMARK    1  A    between atoms: C_2  and  O_3 
REMARK    2  A    between atoms: O_3  and  C_4 
REMARK    3  A    between atoms: C_5  and  O_14 
REMARK    4  A    between atoms: C_9  and  C_10 
REMARK    5  A    between atoms: C_10  and  C_11 
REMARK    6  A    between atoms: C_10  and  O_13 
REMARK    7  A    between atoms: C_11  and  O_12 
ROOT
HETATM    1  C   UNL     1     -27.724  -6.378 -18.142  1.00  0.00     0.117 C 
HETATM    2  C   UNL     1     -27.131  -6.422 -16.951  1.00  0.00     0.174 C 
HETATM    3  C   UNL     1     -28.005  -7.198 -16.060  1.00  0.00     0.320 C 
HETATM    4  O   UNL     1     -27.830  -7.428 -14.876  1.00  0.00    -0.257 OA
HETATM    5  O   UNL     1     -29.070  -7.653 -16.782  1.00  0.00    -0.301 OA
HETATM    6  C   UNL     1     -29.040  -7.079 -18.103  1.00  0.00     0.222 C 
ENDROOT
BRANCH   6   7
HETATM    7  C   UNL     1     -30.295  -6.195 -18.256  1.00  0.00     0.177 C 
BRANCH   7   8
HETATM    8  C   UNL     1     -31.148  -6.247 -16.979  1.00  0.00     0.198 C 
BRANCH   8   9
HETATM    9  O   UNL     1     -30.743  -5.213 -16.085  1.00  0.00    -0.398 OA
HETATM   10  H   UNL     1     -29.947  -4.805 -16.481  1.00  0.00     0.209 HD
ENDBRANCH   8   9
ENDBRANCH   7   8
BRANCH   7  11
HETATM   11  O   UNL     1     -29.950  -4.815 -18.486  1.00  0.00    -0.390 OA
HETATM   12  H   UNL     1     -29.906  -4.679 -19.453  1.00  0.00     0.210 HD
ENDBRANCH   7  11
ENDBRANCH   6   7
BRANCH   1  13
HETATM   13  O   UNL     1     -27.142  -5.826 -19.263  1.00  0.00    -0.350 OA
BRANCH  13  14
HETATM   14  C   UNL     1     -26.701  -6.782 -20.232  1.00  0.00     0.171 C 
HETATM   15  C   UNL     1     -25.192  -6.930 -20.158  1.00  0.00     0.034 C 
ENDBRANCH  13  14
ENDBRANCH   1  13
BRANCH   2  16
HETATM   16  O   UNL     1     -25.910  -5.914 -16.611  1.00  0.00    -0.353 OA
HETATM   17  H   UNL     1     -25.559  -6.487 -15.903  1.00  0.00     0.218 HD
ENDBRANCH   2  16
TORSDOF 7
ENDMDL
MODEL 4
REMARK VINA RESULT:      -5.3      1.559      2.044
REMARK  7 active torsions:
REMARK  status: ('A' for Active; 'I' for Inactive)
REMARK    1  A    between atoms: C_2  and  O_3 
REMARK    2  A    between atoms: O_3  and  C_4 
REMARK    3  A    between atoms: C_5  and  O_14 
REMARK    4  A    between atoms: C_9  and  C_10 
REMARK    5  A    between atoms: C_10  and  C_11 
REMARK    6  A    between atoms: C_10  and  O_13 
REMARK    7  A    between atoms: C_11  and  O_12 
ROOT
HETATM    1  C   UNL     1     -23.128  -3.948  -9.114  1.00  0.00     0.117 C 
HETATM    2  C   UNL     1     -24.220  -3.339  -9.571  1.00  0.00     0.174 C 
HETATM    3  C   UNL     1     -24.380  -3.736 -10.978  1.00  0.00     0.320 C 
HETATM    4  O   UNL     1     -25.239  -3.359 -11.755  1.00  0.00    -0.257 OA
HETATM    5  O   UNL     1     -23.401  -4.635 -11.291  1.00  0.00    -0.301 OA
HETATM    6  C   UNL     1     -22.476  -4.745 -10.192  1.00  0.00     0.222 C 
ENDROOT
BRANCH   6   7
HETATM    7  C   UNL     1     -21.104  -4.240 -10.686  1.00  0.00     0.177 C 
BRANCH   7   8
HETATM    8  C   UNL     1     -21.282  -3.076 -11.671  1.00  0.00     0.198 C 
BRANCH   8   9
HETATM    9  O   UNL     1     -21.573  -3.582 -12.972  1.00  0.00    -0.398 OA
HETATM   10  H   UNL     1     -20.709  -3.757 -13.397  1.00  0.00     0.209 HD
ENDBRANCH   8   9
ENDBRANCH   7   8
BRANCH   7  11
HETATM   11  O   UNL     1     -20.289  -3.761  -9.599  1.00  0.00    -0.390 OA
HETATM   12  H   UNL     1     -19.839  -4.534  -9.204  1.00  0.00     0.210 HD
ENDBRANCH   7  11
ENDBRANCH   6   7
BRANCH   1  13
HETATM   13  O   UNL     1     -22.724  -3.897  -7.797  1.00  0.00    -0.350 OA
BRANCH  13  14
HETATM   14  C   UNL     1     -22.229  -5.138  -7.282  1.00  0.00     0.171 C 
HETATM   15  C   UNL     1     -21.061  -4.877  -6.348  1.00  0.00     0.034 C 
ENDBRANCH  13  14
ENDBRANCH   1  13
BRANCH   2  16
HETATM   16  O   UNL     1     -25.086  -2.549  -8.873  1.00  0.00    -0.353 OA
HETATM   17  H   UNL     1     -24.786  -2.562  -7.943  1.00  0.00     0.218 HD
ENDBRANCH   2  16
TORSDOF 7
ENDMDL
MODEL 5
REMARK VINA RESULT:      -5.2     16.669     18.576
REMARK  7 active torsions:
REMARK  status: ('A' for Active; 'I' for Inactive)
REMARK    1  A    between atoms: C_2  and  O_3 
REMARK    2  A    between atoms: O_3  and  C_4 
REMARK    3  A    between atoms: C_5  and  O_14 
REMARK    4  A    between atoms: C_9  and  C_10 
REMARK    5  A    between atoms: C_10  and  C_11 
REMARK    6  A    between atoms: C_10  and  O_13 
REMARK    7  A    between atoms: C_11  and  O_12 
ROOT
HETATM    1  C   UNL     1     -12.337   7.093 -20.459  1.00  0.00     0.117 C 
HETATM    2  C   UNL     1     -12.078   8.266 -19.885  1.00  0.00     0.174 C 
HETATM    3  C   UNL     1     -10.617   8.366 -19.748  1.00  0.00     0.320 C 
HETATM    4  O   UNL     1      -9.988   9.275 -19.234  1.00  0.00    -0.257 OA
HETATM    5  O   UNL     1     -10.049   7.262 -20.315  1.00  0.00    -0.301 OA
HETATM    6  C   UNL     1     -11.079   6.329 -20.694  1.00  0.00     0.222 C 
ENDROOT
BRANCH   6   7
HETATM    7  C   UNL     1     -10.882   5.051 -19.851  1.00  0.00     0.177 C 
BRANCH   7   8
HETATM    8  C   UNL     1      -9.540   5.101 -19.105  1.00  0.00     0.198 C 
BRANCH   8   9
HETATM    9  O   UNL     1      -9.707   5.765 -17.854  1.00  0.00    -0.398 OA
HETATM   10  H   UNL     1     -10.073   5.099 -17.238  1.00  0.00     0.209 HD
ENDBRANCH   8   9
ENDBRANCH   7   8
BRANCH   7  11
HETATM   11  O   UNL     1     -11.918   4.900 -18.862  1.00  0.00    -0.390 OA
HETATM   12  H   UNL     1     -12.245   5.793 -18.636  1.00  0.00     0.210 HD
ENDBRANCH   7  11
ENDBRANCH   6   7
BRANCH   1  13
HETATM   13  O   UNL     1     -13.600   6.698 -20.846  1.00  0.00    -0.350 OA
BRANCH  13  14
HETATM   14  C   UNL     1     -13.641   5.974 -22.080  1.00  0.00     0.171 C 
HETATM   15  C   UNL     1     -14.841   5.044 -22.091  1.00  0.00     0.034 C 
ENDBRANCH  13  14
ENDBRANCH   1  13
BRANCH   2  16
HETATM   16  O   UNL     1     -12.970   9.241 -19.545  1.00  0.00    -0.353 OA
HETATM   17  H   UNL     1     -13.800   9.035 -20.018  1.00  0.00     0.218 HD
ENDBRANCH   2  16
TORSDOF 7
ENDMDL
MODEL 6
REMARK VINA RESULT:      -5.2     11.028     13.559
REMARK  7 active torsions:
REMARK  status: ('A' for Active; 'I' for Inactive)
REMARK    1  A    between atoms: C_2  and  O_3 
REMARK    2  A    between atoms: O_3  and  C_4 
REMARK    3  A    between atoms: C_5  and  O_14 
REMARK    4  A    between atoms: C_9  and  C_10 
REMARK    5  A    between atoms: C_10  and  C_11 
REMARK    6  A    between atoms: C_10  and  O_13 
REMARK    7  A    between atoms: C_11  and  O_12 
ROOT
HETATM    1  C   UNL     1     -36.063  -0.906 -12.791  1.00  0.00     0.117 C 
HETATM    2  C   UNL     1     -36.794  -0.463 -11.770  1.00  0.00     0.174 C 
HETATM    3  C   UNL     1     -35.970  -0.592 -10.560  1.00  0.00     0.320 C 
HETATM    4  O   UNL     1     -36.298  -0.328  -9.416  1.00  0.00    -0.257 OA
HETATM    5  O   UNL     1     -34.736  -1.051 -10.919  1.00  0.00    -0.301 OA
HETATM    6  C   UNL     1     -34.737  -1.395 -12.318  1.00  0.00     0.222 C 
ENDROOT
BRANCH   6   7
HETATM    7  C   UNL     1     -34.486  -2.914 -12.424  1.00  0.00     0.177 C 
BRANCH   7   8
HETATM    8  C   UNL     1     -33.265  -3.317 -11.584  1.00  0.00     0.198 C 
BRANCH   8   9
HETATM    9  O   UNL     1     -33.693  -3.905 -10.358  1.00  0.00    -0.398 OA
HETATM   10  H   UNL     1     -32.898  -4.309  -9.956  1.00  0.00     0.209 HD
ENDBRANCH   8   9
ENDBRANCH   7   8
BRANCH   7  11
HETATM   11  O   UNL     1     -35.609  -3.675 -11.940  1.00  0.00    -0.390 OA
HETATM   12  H   UNL     1     -35.996  -4.149 -12.702  1.00  0.00     0.210 HD
ENDBRANCH   7  11
ENDBRANCH   6   7
BRANCH   1  13
HETATM   13  O   UNL     1     -36.470  -0.835 -14.106  1.00  0.00    -0.350 OA
BRANCH  13  14
HETATM   14  C   UNL     1     -35.468  -0.357 -15.010  1.00  0.00     0.171 C 
HETATM   15  C   UNL     1     -35.343   1.151 -14.887  1.00  0.00     0.034 C 
ENDBRANCH  13  14
ENDBRANCH   1  13
BRANCH   2  16
HETATM   16  O   UNL     1     -38.045   0.081 -11.818  1.00  0.00    -0.353 OA
HETATM   17  H   UNL     1     -37.931   1.017 -12.075  1.00  0.00     0.218 HD
ENDBRANCH   2  16
TORSDOF 7
ENDMDL
MODEL 7
REMARK VINA RESULT:      -5.2     11.641     13.539
REMARK  7 active torsions:
REMARK  status: ('A' for Active; 'I' for Inactive)
REMARK    1  A    between atoms: C_2  and  O_3 
REMARK    2  A    between atoms: O_3  and  C_4 
REMARK    3  A    between atoms: C_5  and  O_14 
REMARK    4  A    between atoms: C_9  and  C_10 
REMARK    5  A    between atoms: C_10  and  C_11 
REMARK    6  A    between atoms: C_10  and  O_13 
REMARK    7  A    between atoms: C_11  and  O_12 
ROOT
HETATM    1  C   UNL     1     -35.351  -1.244 -12.620  1.00  0.00     0.117 C 
HETATM    2  C   UNL     1     -35.958  -0.803 -11.520  1.00  0.00     0.174 C 
HETATM    3  C   UNL     1     -37.246  -0.230 -11.936  1.00  0.00     0.320 C 
HETATM    4  O   UNL     1     -38.074   0.312 -11.224  1.00  0.00    -0.257 OA
HETATM    5  O   UNL     1     -37.392  -0.415 -13.280  1.00  0.00    -0.301 OA
HETATM    6  C   UNL     1     -36.174  -0.953 -13.829  1.00  0.00     0.222 C 
ENDROOT
BRANCH   6   7
HETATM    7  C   UNL     1     -35.605   0.092 -14.812  1.00  0.00     0.177 C 
BRANCH   7   8
HETATM    8  C   UNL     1     -36.620   0.390 -15.926  1.00  0.00     0.198 C 
BRANCH   8   9
HETATM    9  O   UNL     1     -36.369  -0.454 -17.048  1.00  0.00    -0.398 OA
HETATM   10  H   UNL     1     -35.471  -0.819 -16.920  1.00  0.00     0.209 HD
ENDBRANCH   8   9
ENDBRANCH   7   8
BRANCH   7  11
HETATM   11  O   UNL     1     -35.311   1.339 -14.154  1.00  0.00    -0.390 OA
HETATM   12  H   UNL     1     -34.343   1.464 -14.176  1.00  0.00     0.210 HD
ENDBRANCH   7  11
ENDBRANCH   6   7
BRANCH   1  13
HETATM   13  O   UNL     1     -34.165  -1.944 -12.606  1.00  0.00    -0.350 OA
BRANCH  13  14
HETATM   14  C   UNL     1     -34.309  -3.348 -12.363  1.00  0.00     0.171 C 
HETATM   15  C   UNL     1     -33.231  -3.817 -11.402  1.00  0.00     0.034 C 
ENDBRANCH  13  14
ENDBRANCH   1  13
BRANCH   2  16
HETATM   16  O   UNL     1     -35.524  -0.912 -10.231  1.00  0.00    -0.353 OA
HETATM   17  H   UNL     1     -36.283  -0.681  -9.661  1.00  0.00     0.218 HD
ENDBRANCH   2  16
TORSDOF 7
ENDMDL
MODEL 8
REMARK VINA RESULT:      -5.2      1.644      4.031
REMARK  7 active torsions:
REMARK  status: ('A' for Active; 'I' for Inactive)
REMARK    1  A    between atoms: C_2  and  O_3 
REMARK    2  A    between atoms: O_3  and  C_4 
REMARK    3  A    between atoms: C_5  and  O_14 
REMARK    4  A    between atoms: C_9  and  C_10 
REMARK    5  A    between atoms: C_10  and  C_11 
REMARK    6  A    between atoms: C_10  and  O_13 
REMARK    7  A    between atoms: C_11  and  O_12 
ROOT
HETATM    1  C   UNL     1     -22.452  -4.402 -10.139  1.00  0.00     0.117 C 
HETATM    2  C   UNL     1     -23.507  -4.254 -10.938  1.00  0.00     0.174 C 
HETATM    3  C   UNL     1     -24.519  -3.501 -10.184  1.00  0.00     0.320 C 
HETATM    4  O   UNL     1     -25.639  -3.199 -10.557  1.00  0.00    -0.257 OA
HETATM    5  O   UNL     1     -23.996  -3.164  -8.969  1.00  0.00    -0.301 OA
HETATM    6  C   UNL     1     -22.715  -3.800  -8.800  1.00  0.00     0.222 C 
ENDROOT
BRANCH   6   7
HETATM    7  C   UNL     1     -22.835  -4.782  -7.616  1.00  0.00     0.177 C 
BRANCH   7   8
HETATM    8  C   UNL     1     -21.515  -4.843  -6.833  1.00  0.00     0.198 C 
BRANCH   8   9
HETATM    9  O   UNL     1     -20.622  -5.759  -7.462  1.00  0.00    -0.398 OA
HETATM   10  H   UNL     1     -19.882  -5.223  -7.813  1.00  0.00     0.209 HD
ENDBRANCH   8   9
ENDBRANCH   7   8
BRANCH   7  11
HETATM   11  O   UNL     1     -23.864  -4.379  -6.692  1.00  0.00    -0.390 OA
HETATM   12  H   UNL     1     -24.504  -3.828  -7.183  1.00  0.00     0.210 HD
ENDBRANCH   7  11
ENDBRANCH   6   7
BRANCH   1  13
HETATM   13  O   UNL     1     -21.262  -4.966 -10.546  1.00  0.00    -0.350 OA
BRANCH  13  14
HETATM   14  C   UNL     1     -20.143  -4.074 -10.512  1.00  0.00     0.171 C 
HETATM   15  C   UNL     1     -20.416  -2.873 -11.400  1.00  0.00     0.034 C 
ENDBRANCH  13  14
ENDBRANCH   1  13
BRANCH   2  16
HETATM   16  O   UNL     1     -23.627  -4.652 -12.238  1.00  0.00    -0.353 OA
HETATM   17  H   UNL     1     -23.786  -3.843 -12.762  1.00  0.00     0.218 HD
ENDBRANCH   2  16
TORSDOF 7
ENDMDL
MODEL 9
REMARK VINA RESULT:      -5.0      1.534      3.981
REMARK  7 active torsions:
REMARK  status: ('A' for Active; 'I' for Inactive)
REMARK    1  A    between atoms: C_2  and  O_3 
REMARK    2  A    between atoms: O_3  and  C_4 
REMARK    3  A    between atoms: C_5  and  O_14 
REMARK    4  A    between atoms: C_9  and  C_10 
REMARK    5  A    between atoms: C_10  and  C_11 
REMARK    6  A    between atoms: C_10  and  O_13 
REMARK    7  A    between atoms: C_11  and  O_12 
ROOT
HETATM    1  C   UNL     1     -23.418  -3.810 -10.610  1.00  0.00     0.117 C 
HETATM    2  C   UNL     1     -24.066  -4.323  -9.566  1.00  0.00     0.174 C 
HETATM    3  C   UNL     1     -23.229  -4.092  -8.380  1.00  0.00     0.320 C 
HETATM    4  O   UNL     1     -23.458  -4.450  -7.238  1.00  0.00    -0.257 OA
HETATM    5  O   UNL     1     -22.128  -3.378  -8.756  1.00  0.00    -0.301 OA
HETATM    6  C   UNL     1     -22.101  -3.250 -10.191  1.00  0.00     0.222 C 
ENDROOT
BRANCH   6   7
HETATM    7  C   UNL     1     -20.846  -3.989 -10.700  1.00  0.00     0.177 C 
BRANCH   7   8
HETATM    8  C   UNL     1     -20.247  -4.862  -9.587  1.00  0.00     0.198 C 
BRANCH   8   9
HETATM    9  O   UNL     1     -19.514  -4.048  -8.676  1.00  0.00    -0.398 OA
HETATM   10  H   UNL     1     -20.178  -3.589  -8.123  1.00  0.00     0.209 HD
ENDBRANCH   8   9
ENDBRANCH   7   8
BRANCH   7  11
HETATM   11  O   UNL     1     -21.152  -4.857 -11.809  1.00  0.00    -0.390 OA
HETATM   12  H   UNL     1     -22.047  -4.627 -12.127  1.00  0.00     0.210 HD
ENDBRANCH   7  11
ENDBRANCH   6   7
BRANCH   1  13
HETATM   13  O   UNL     1     -23.951  -3.744 -11.879  1.00  0.00    -0.350 OA
BRANCH  13  14
HETATM   14  C   UNL     1     -23.627  -2.547 -12.595  1.00  0.00     0.171 C 
HETATM   15  C   UNL     1     -23.130  -2.899 -13.986  1.00  0.00     0.034 C 
ENDBRANCH  13  14
ENDBRANCH   1  13
BRANCH   2  16
HETATM   16  O   UNL     1     -25.305  -4.897  -9.557  1.00  0.00    -0.353 OA
HETATM   17  H   UNL     1     -25.517  -5.114 -10.486  1.00  0.00     0.218 HD
ENDBRANCH   2  16
TORSDOF 7
ENDMDL
