MODEL 1
REMARK VINA RESULT:      -4.2      0.000      0.000
REMARK  4 active torsions:
REMARK  status: ('A' for Active; 'I' for Inactive)
REMARK    1  A    between atoms: C_1  and  C_2 
REMARK    2  A    between atoms: C_1  and  N_7 
REMARK    3  A    between atoms: C_2  and  S_3 
REMARK    4  A    between atoms: S_3  and  O_6 
ROOT
HETATM    1  C   UNL     1     -22.523  -3.117 -12.843  1.00  0.00     0.185 C 
ENDROOT
BRANCH   1   2
HETATM    2  C   UNL     1     -23.448  -3.958 -11.979  1.00  0.00     0.283 C 
BRANCH   2   3
HETATM    3  N   UNL     1     -24.692  -3.239 -11.694  1.00  0.00     0.079 N 
HETATM    4  H   UNL     1     -25.382  -3.428 -12.420  1.00  0.00     0.312 HD
HETATM    5  H   UNL     1     -24.516  -2.233 -11.734  1.00  0.00     0.312 HD
ENDBRANCH   2   3
ENDBRANCH   1   2
BRANCH   1   6
HETATM    6  S   UNL     1     -23.308  -2.749 -14.402  1.00  0.00     0.095 S 
HETATM    7  O   UNL     1     -24.321  -1.737 -14.207  1.00  0.00    -0.601 OA
HETATM    8  O   UNL     1     -22.319  -2.668 -15.451  1.00  0.00    -0.601 OA
BRANCH   6   9
HETATM    9  O   UNL     1     -24.118  -4.136 -14.570  1.00  0.00    -0.296 OA
HETATM   10  H   UNL     1     -23.707  -4.639 -15.305  1.00  0.00     0.232 HD
ENDBRANCH   6   9
ENDBRANCH   1   6
TORSDOF 4
ENDMDL
MODEL 2
REMARK VINA RESULT:      -4.2     14.149     14.536
REMARK  4 active torsions:
REMARK  status: ('A' for Active; 'I' for Inactive)
REMARK    1  A    between atoms: C_1  and  C_2 
REMARK    2  A    between atoms: C_1  and  N_7 
REMARK    3  A    between atoms: C_2  and  S_3 
REMARK    4  A    between atoms: S_3  and  O_6 
ROOT
HETATM    1  C   UNL     1     -29.666 -15.546 -20.018  1.00  0.00     0.185 C 
ENDROOT
BRANCH   1   2
HETATM    2  C   UNL     1     -29.982 -14.764 -21.282  1.00  0.00     0.283 C 
BRANCH   2   3
HETATM    3  N   UNL     1     -28.795 -14.052 -21.765  1.00  0.00     0.079 N 
HETATM    4  H   UNL     1     -28.381 -14.553 -22.550  1.00  0.00     0.312 HD
HETATM    5  H   UNL     1     -28.084 -14.048 -21.032  1.00  0.00     0.312 HD
ENDBRANCH   2   3
ENDBRANCH   1   2
BRANCH   1   6
HETATM    6  S   UNL     1     -29.520 -14.434 -18.630  1.00  0.00     0.095 S 
HETATM    7  O   UNL     1     -28.613 -14.994 -17.655  1.00  0.00    -0.601 OA
HETATM    8  O   UNL     1     -29.421 -13.071 -19.093  1.00  0.00    -0.601 OA
BRANCH   6   9
HETATM    9  O   UNL     1     -30.998 -14.659 -18.017  1.00  0.00    -0.296 OA
HETATM   10  H   UNL     1     -31.259 -15.589 -18.189  1.00  0.00     0.232 HD
ENDBRANCH   6   9
ENDBRANCH   1   6
TORSDOF 4
ENDMDL
MODEL 3
REMARK VINA RESULT:      -3.9      1.969      2.163
REMARK  4 active torsions:
REMARK  status: ('A' for Active; 'I' for Inactive)
REMARK    1  A    between atoms: C_1  and  C_2 
REMARK    2  A    between atoms: C_1  and  N_7 
REMARK    3  A    between atoms: C_2  and  S_3 
REMARK    4  A    between atoms: S_3  and  O_6 
ROOT
HETATM    1  C   UNL     1     -23.824  -4.523 -11.416  1.00  0.00     0.185 C 
ENDROOT
BRANCH   1   2
HETATM    2  C   UNL     1     -24.005  -3.965 -10.014  1.00  0.00     0.283 C 
BRANCH   2   3
HETATM    3  N   UNL     1     -25.415  -3.663  -9.752  1.00  0.00     0.079 N 
HETATM    4  H   UNL     1     -25.909  -3.500 -10.628  1.00  0.00     0.312 HD
HETATM    5  H   UNL     1     -25.479  -2.786  -9.231  1.00  0.00     0.312 HD
ENDBRANCH   2   3
ENDBRANCH   1   2
BRANCH   1   6
HETATM    6  S   UNL     1     -24.111  -3.244 -12.626  1.00  0.00     0.095 S 
HETATM    7  O   UNL     1     -25.499  -2.846 -12.590  1.00  0.00    -0.601 OA
HETATM    8  O   UNL     1     -23.026  -2.291 -12.609  1.00  0.00    -0.601 OA
BRANCH   6   9
HETATM    9  O   UNL     1     -23.964  -4.160 -13.949  1.00  0.00    -0.296 OA
HETATM   10  H   UNL     1     -23.720  -5.066 -13.663  1.00  0.00     0.232 HD
ENDBRANCH   6   9
ENDBRANCH   1   6
TORSDOF 4
ENDMDL
MODEL 4
REMARK VINA RESULT:      -3.9      2.241      2.476
REMARK  4 active torsions:
REMARK  status: ('A' for Active; 'I' for Inactive)
REMARK    1  A    between atoms: C_1  and  C_2 
REMARK    2  A    between atoms: C_1  and  N_7 
REMARK    3  A    between atoms: C_2  and  S_3 
REMARK    4  A    between atoms: S_3  and  O_6 
ROOT
HETATM    1  C   UNL     1     -22.429  -2.748 -11.885  1.00  0.00     0.185 C 
ENDROOT
BRANCH   1   2
HETATM    2  C   UNL     1     -21.725  -3.998 -11.385  1.00  0.00     0.283 C 
BRANCH   2   3
HETATM    3  N   UNL     1     -22.357  -4.500 -10.162  1.00  0.00     0.079 N 
HETATM    4  H   UNL     1     -21.650  -4.689  -9.453  1.00  0.00     0.312 HD
HETATM    5  H   UNL     1     -22.802  -5.399 -10.358  1.00  0.00     0.312 HD
ENDBRANCH   2   3
ENDBRANCH   1   2
BRANCH   1   6
HETATM    6  S   UNL     1     -24.111  -3.133 -12.338  1.00  0.00     0.095 S 
HETATM    7  O   UNL     1     -24.926  -3.216 -11.147  1.00  0.00    -0.601 OA
HETATM    8  O   UNL     1     -24.502  -2.366 -13.497  1.00  0.00    -0.601 OA
BRANCH   6   9
HETATM    9  O   UNL     1     -23.868  -4.663 -12.797  1.00  0.00    -0.296 OA
HETATM   10  H   UNL     1     -24.739  -5.051 -13.028  1.00  0.00     0.232 HD
ENDBRANCH   6   9
ENDBRANCH   1   6
TORSDOF 4
ENDMDL
MODEL 5
REMARK VINA RESULT:      -3.9      1.394      2.318
REMARK  4 active torsions:
REMARK  status: ('A' for Active; 'I' for Inactive)
REMARK    1  A    between atoms: C_1  and  C_2 
REMARK    2  A    between atoms: C_1  and  N_7 
REMARK    3  A    between atoms: C_2  and  S_3 
REMARK    4  A    between atoms: S_3  and  O_6 
ROOT
HETATM    1  C   UNL     1     -22.721  -2.527 -12.435  1.00  0.00     0.185 C 
ENDROOT
BRANCH   1   2
HETATM    2  C   UNL     1     -22.337  -3.871 -11.839  1.00  0.00     0.283 C 
BRANCH   2   3
HETATM    3  N   UNL     1     -23.361  -4.879 -12.123  1.00  0.00     0.079 N 
HETATM    4  H   UNL     1     -23.549  -5.434 -11.288  1.00  0.00     0.312 HD
HETATM    5  H   UNL     1     -23.003  -5.537 -12.818  1.00  0.00     0.312 HD
ENDBRANCH   2   3
ENDBRANCH   1   2
BRANCH   1   6
HETATM    6  S   UNL     1     -24.164  -2.706 -13.470  1.00  0.00     0.095 S 
HETATM    7  O   UNL     1     -23.846  -3.549 -14.600  1.00  0.00    -0.601 OA
HETATM    8  O   UNL     1     -25.339  -2.905 -12.656  1.00  0.00    -0.601 OA
BRANCH   6   9
HETATM    9  O   UNL     1     -24.198  -1.201 -14.057  1.00  0.00    -0.296 OA
HETATM   10  H   UNL     1     -23.875  -1.230 -14.983  1.00  0.00     0.232 HD
ENDBRANCH   6   9
ENDBRANCH   1   6
TORSDOF 4
ENDMDL
MODEL 6
REMARK VINA RESULT:      -3.8      3.857      4.152
REMARK  4 active torsions:
REMARK  status: ('A' for Active; 'I' for Inactive)
REMARK    1  A    between atoms: C_1  and  C_2 
REMARK    2  A    between atoms: C_1  and  N_7 
REMARK    3  A    between atoms: C_2  and  S_3 
REMARK    4  A    between atoms: S_3  and  O_6 
ROOT
HETATM    1  C   UNL     1     -23.250  -2.908 -11.277  1.00  0.00     0.185 C 
ENDROOT
BRANCH   1   2
HETATM    2  C   UNL     1     -23.922  -2.845 -12.638  1.00  0.00     0.283 C 
BRANCH   2   3
HETATM    3  N   UNL     1     -23.935  -4.164 -13.275  1.00  0.00     0.079 N 
HETATM    4  H   UNL     1     -24.864  -4.370 -13.639  1.00  0.00     0.312 HD
HETATM    5  H   UNL     1     -23.749  -4.880 -12.570  1.00  0.00     0.312 HD
ENDBRANCH   2   3
ENDBRANCH   1   2
BRANCH   1   6
HETATM    6  S   UNL     1     -24.270  -3.823 -10.133  1.00  0.00     0.095 S 
HETATM    7  O   UNL     1     -25.573  -3.205 -10.046  1.00  0.00    -0.601 OA
HETATM    8  O   UNL     1     -24.092  -5.241 -10.332  1.00  0.00    -0.601 OA
BRANCH   6   9
HETATM    9  O   UNL     1     -23.505  -3.399  -8.774  1.00  0.00    -0.296 OA
HETATM   10  H   UNL     1     -24.178  -3.078  -8.136  1.00  0.00     0.232 HD
ENDBRANCH   6   9
ENDBRANCH   1   6
TORSDOF 4
ENDMDL
MODEL 7
REMARK VINA RESULT:      -3.7      3.048      3.687
REMARK  4 active torsions:
REMARK  status: ('A' for Active; 'I' for Inactive)
REMARK    1  A    between atoms: C_1  and  C_2 
REMARK    2  A    between atoms: C_1  and  N_7 
REMARK    3  A    between atoms: C_2  and  S_3 
REMARK    4  A    between atoms: S_3  and  O_6 
ROOT
HETATM    1  C   UNL     1     -22.554  -3.458 -10.125  1.00  0.00     0.185 C 
ENDROOT
BRANCH   1   2
HETATM    2  C   UNL     1     -22.790  -4.459  -9.007  1.00  0.00     0.283 C 
BRANCH   2   3
HETATM    3  N   UNL     1     -23.890  -4.027  -8.142  1.00  0.00     0.079 N 
HETATM    4  H   UNL     1     -23.535  -3.777  -7.220  1.00  0.00     0.312 HD
HETATM    5  H   UNL     1     -24.527  -4.811  -7.991  1.00  0.00     0.312 HD
ENDBRANCH   2   3
ENDBRANCH   1   2
BRANCH   1   6
HETATM    6  S   UNL     1     -23.887  -3.536 -11.309  1.00  0.00     0.095 S 
HETATM    7  O   UNL     1     -23.740  -4.718 -12.126  1.00  0.00    -0.601 OA
HETATM    8  O   UNL     1     -25.134  -3.176 -10.677  1.00  0.00    -0.601 OA
BRANCH   6   9
HETATM    9  O   UNL     1     -23.416  -2.307 -12.247  1.00  0.00    -0.296 OA
HETATM   10  H   UNL     1     -23.408  -2.622 -13.176  1.00  0.00     0.232 HD
ENDBRANCH   6   9
ENDBRANCH   1   6
TORSDOF 4
ENDMDL
MODEL 8
REMARK VINA RESULT:      -3.7      3.553      3.894
REMARK  4 active torsions:
REMARK  status: ('A' for Active; 'I' for Inactive)
REMARK    1  A    between atoms: C_1  and  C_2 
REMARK    2  A    between atoms: C_1  and  N_7 
REMARK    3  A    between atoms: C_2  and  S_3 
REMARK    4  A    between atoms: S_3  and  O_6 
ROOT
HETATM    1  C   UNL     1     -22.764  -3.063 -11.511  1.00  0.00     0.185 C 
ENDROOT
BRANCH   1   2
HETATM    2  C   UNL     1     -23.466  -2.801 -12.833  1.00  0.00     0.283 C 
BRANCH   2   3
HETATM    3  N   UNL     1     -23.986  -4.046 -13.403  1.00  0.00     0.079 N 
HETATM    4  H   UNL     1     -24.413  -3.866 -14.311  1.00  0.00     0.312 HD
HETATM    5  H   UNL     1     -24.738  -4.400 -12.809  1.00  0.00     0.312 HD
ENDBRANCH   2   3
ENDBRANCH   1   2
BRANCH   1   6
HETATM    6  S   UNL     1     -23.932  -3.675 -10.309  1.00  0.00     0.095 S 
HETATM    7  O   UNL     1     -23.364  -3.569  -8.984  1.00  0.00    -0.601 OA
HETATM    8  O   UNL     1     -25.262  -3.210 -10.625  1.00  0.00    -0.601 OA
BRANCH   6   9
HETATM    9  O   UNL     1     -23.836  -5.242 -10.690  1.00  0.00    -0.296 OA
HETATM   10  H   UNL     1     -23.035  -5.370 -11.243  1.00  0.00     0.232 HD
ENDBRANCH   6   9
ENDBRANCH   1   6
TORSDOF 4
ENDMDL
MODEL 9
REMARK VINA RESULT:      -3.7     10.877     11.236
REMARK  4 active torsions:
REMARK  status: ('A' for Active; 'I' for Inactive)
REMARK    1  A    between atoms: C_1  and  C_2 
REMARK    2  A    between atoms: C_1  and  N_7 
REMARK    3  A    between atoms: C_2  and  S_3 
REMARK    4  A    between atoms: S_3  and  O_6 
ROOT
HETATM    1  C   UNL     1     -33.212  -3.267 -11.447  1.00  0.00     0.185 C 
ENDROOT
BRANCH   1   2
HETATM    2  C   UNL     1     -33.409  -4.768 -11.321  1.00  0.00     0.283 C 
BRANCH   2   3
HETATM    3  N   UNL     1     -34.352  -5.257 -12.330  1.00  0.00     0.079 N 
HETATM    4  H   UNL     1     -35.070  -5.833 -11.891  1.00  0.00     0.312 HD
HETATM    5  H   UNL     1     -33.861  -5.874 -12.979  1.00  0.00     0.312 HD
ENDBRANCH   2   3
ENDBRANCH   1   2
BRANCH   1   6
HETATM    6  S   UNL     1     -34.714  -2.500 -12.032  1.00  0.00     0.095 S 
HETATM    7  O   UNL     1     -34.715  -2.478 -13.477  1.00  0.00    -0.601 OA
HETATM    8  O   UNL     1     -35.842  -2.962 -11.259  1.00  0.00    -0.601 OA
BRANCH   6   9
HETATM    9  O   UNL     1     -34.373  -0.986 -11.582  1.00  0.00    -0.296 OA
HETATM   10  H   UNL     1     -33.407  -0.850 -11.685  1.00  0.00     0.232 HD
ENDBRANCH   6   9
ENDBRANCH   1   6
TORSDOF 4
ENDMDL
