MODEL 1
REMARK VINA RESULT:      -6.4      0.000      0.000
REMARK  14 active torsions:
REMARK  status: ('A' for Active; 'I' for Inactive)
REMARK    1  A    between atoms: C_2  and  C_3 
REMARK    2  A    between atoms: C_3  and  C_4 
REMARK    3  A    between atoms: C_4  and  C_5 
REMARK    4  A    between atoms: C_5  and  C_6 
REMARK    5  A    between atoms: C_6  and  C_7 
REMARK    6  A    between atoms: C_7  and  C_8 
REMARK    7  A    between atoms: C_8  and  C_9 
REMARK    8  A    between atoms: C_9  and  C_10 
REMARK    9  A    between atoms: C_10  and  C_11 
REMARK   10  A    between atoms: C_11  and  C_12 
REMARK   11  A    between atoms: C_12  and  O_13 
REMARK   12  A    between atoms: O_13  and  C_14 
REMARK   13  A    between atoms: C_14  and  C_16 
REMARK   14  A    between atoms: C_16  and  O_18 
ROOT
HETATM    1  C   UNL     1     -20.841  -5.243  -7.907  1.00  0.00     0.002 C 
ENDROOT
BRANCH   1   2
HETATM    2  C   UNL     1     -19.960  -4.734  -6.771  1.00  0.00     0.000 C 
BRANCH   2   3
HETATM    3  C   UNL     1     -20.533  -5.126  -5.413  1.00  0.00     0.000 C 
BRANCH   3   4
HETATM    4  C   UNL     1     -21.854  -5.861  -5.571  1.00  0.00     0.000 C 
BRANCH   4   5
HETATM    5  C   UNL     1     -21.987  -6.951  -4.519  1.00  0.00     0.000 C 
BRANCH   5   6
HETATM    6  C   UNL     1     -21.212  -6.579  -3.262  1.00  0.00     0.000 C 
BRANCH   6   7
HETATM    7  C   UNL     1     -22.148  -6.461  -2.067  1.00  0.00     0.000 C 
BRANCH   7   8
HETATM    8  C   UNL     1     -21.655  -7.330  -0.915  1.00  0.00    -0.000 C 
BRANCH   8   9
HETATM    9  C   UNL     1     -22.813  -7.764  -0.025  1.00  0.00    -0.005 C 
HETATM   10  C   UNL     1     -22.991  -9.271  -0.068  1.00  0.00     0.005 C 
ENDBRANCH   8   9
ENDBRANCH   7   8
ENDBRANCH   6   7
ENDBRANCH   5   6
ENDBRANCH   4   5
ENDBRANCH   3   4
ENDBRANCH   2   3
ENDBRANCH   1   2
BRANCH   1  11
HETATM   11  C   UNL     1     -21.220  -4.115  -8.863  1.00  0.00     0.027 C 
BRANCH  11  12
HETATM   12  C   UNL     1     -22.678  -3.723  -8.696  1.00  0.00     0.178 C 
BRANCH  12  13
HETATM   13  O   UNL     1     -23.495  -4.521  -9.564  1.00  0.00    -0.319 OA
BRANCH  13  14
HETATM   14  C   UNL     1     -24.285  -3.782 -10.399  1.00  0.00     0.287 C 
HETATM   15  O   UNL     1     -25.290  -3.179 -10.064  1.00  0.00    -0.262 OA
BRANCH  14  16
HETATM   16  C   UNL     1     -23.759  -3.818 -11.840  1.00  0.00     0.213 C 
HETATM   17  C   UNL     1     -23.062  -2.522 -12.206  1.00  0.00     0.050 C 
BRANCH  16  18
HETATM   18  O   UNL     1     -22.825  -4.884 -12.027  1.00  0.00    -0.386 OA
HETATM   19  H   UNL     1     -22.440  -4.769 -12.917  1.00  0.00     0.210 HD
ENDBRANCH  16  18
ENDBRANCH  14  16
ENDBRANCH  13  14
ENDBRANCH  12  13
ENDBRANCH  11  12
ENDBRANCH   1  11
TORSDOF 14
ENDMDL
MODEL 2
REMARK VINA RESULT:      -6.3      1.416      2.499
REMARK  14 active torsions:
REMARK  status: ('A' for Active; 'I' for Inactive)
REMARK    1  A    between atoms: C_2  and  C_3 
REMARK    2  A    between atoms: C_3  and  C_4 
REMARK    3  A    between atoms: C_4  and  C_5 
REMARK    4  A    between atoms: C_5  and  C_6 
REMARK    5  A    between atoms: C_6  and  C_7 
REMARK    6  A    between atoms: C_7  and  C_8 
REMARK    7  A    between atoms: C_8  and  C_9 
REMARK    8  A    between atoms: C_9  and  C_10 
REMARK    9  A    between atoms: C_10  and  C_11 
REMARK   10  A    between atoms: C_11  and  C_12 
REMARK   11  A    between atoms: C_12  and  O_13 
REMARK   12  A    between atoms: O_13  and  C_14 
REMARK   13  A    between atoms: C_14  and  C_16 
REMARK   14  A    between atoms: C_16  and  O_18 
ROOT
HETATM    1  C   UNL     1     -20.093  -4.791  -9.580  1.00  0.00     0.002 C 
ENDROOT
BRANCH   1   2
HETATM    2  C   UNL     1     -19.925  -3.875  -8.372  1.00  0.00     0.000 C 
BRANCH   2   3
HETATM    3  C   UNL     1     -19.482  -4.661  -7.143  1.00  0.00     0.000 C 
BRANCH   3   4
HETATM    4  C   UNL     1     -20.372  -5.873  -6.921  1.00  0.00     0.000 C 
BRANCH   4   5
HETATM    5  C   UNL     1     -21.687  -5.459  -6.278  1.00  0.00     0.000 C 
BRANCH   5   6
HETATM    6  C   UNL     1     -22.109  -6.473  -5.223  1.00  0.00     0.000 C 
BRANCH   6   7
HETATM    7  C   UNL     1     -20.901  -7.237  -4.697  1.00  0.00     0.000 C 
BRANCH   7   8
HETATM    8  C   UNL     1     -21.003  -7.420  -3.186  1.00  0.00    -0.000 C 
BRANCH   8   9
HETATM    9  C   UNL     1     -21.794  -6.283  -2.551  1.00  0.00    -0.005 C 
HETATM   10  C   UNL     1     -22.283  -6.673  -1.167  1.00  0.00     0.005 C 
ENDBRANCH   8   9
ENDBRANCH   7   8
ENDBRANCH   6   7
ENDBRANCH   5   6
ENDBRANCH   4   5
ENDBRANCH   3   4
ENDBRANCH   2   3
ENDBRANCH   1   2
BRANCH   1  11
HETATM   11  C   UNL     1     -20.390  -3.992 -10.845  1.00  0.00     0.027 C 
BRANCH  11  12
HETATM   12  C   UNL     1     -21.771  -4.320 -11.387  1.00  0.00     0.178 C 
BRANCH  12  13
HETATM   13  O   UNL     1     -22.613  -3.162 -11.294  1.00  0.00    -0.319 OA
BRANCH  13  14
HETATM   14  C   UNL     1     -23.925  -3.462 -11.052  1.00  0.00     0.287 C 
HETATM   15  O   UNL     1     -24.866  -3.100 -11.738  1.00  0.00    -0.262 OA
BRANCH  14  16
HETATM   16  C   UNL     1     -24.078  -4.306  -9.780  1.00  0.00     0.213 C 
HETATM   17  C   UNL     1     -23.663  -3.526  -8.547  1.00  0.00     0.050 C 
BRANCH  16  18
HETATM   18  O   UNL     1     -25.430  -4.729  -9.595  1.00  0.00    -0.386 OA
HETATM   19  H   UNL     1     -25.959  -4.301 -10.295  1.00  0.00     0.210 HD
ENDBRANCH  16  18
ENDBRANCH  14  16
ENDBRANCH  13  14
ENDBRANCH  12  13
ENDBRANCH  11  12
ENDBRANCH   1  11
TORSDOF 14
ENDMDL
MODEL 3
REMARK VINA RESULT:      -6.3      1.930      2.947
REMARK  14 active torsions:
REMARK  status: ('A' for Active; 'I' for Inactive)
REMARK    1  A    between atoms: C_2  and  C_3 
REMARK    2  A    between atoms: C_3  and  C_4 
REMARK    3  A    between atoms: C_4  and  C_5 
REMARK    4  A    between atoms: C_5  and  C_6 
REMARK    5  A    between atoms: C_6  and  C_7 
REMARK    6  A    between atoms: C_7  and  C_8 
REMARK    7  A    between atoms: C_8  and  C_9 
REMARK    8  A    between atoms: C_9  and  C_10 
REMARK    9  A    between atoms: C_10  and  C_11 
REMARK   10  A    between atoms: C_11  and  C_12 
REMARK   11  A    between atoms: C_12  and  O_13 
REMARK   12  A    between atoms: O_13  and  C_14 
REMARK   13  A    between atoms: C_14  and  C_16 
REMARK   14  A    between atoms: C_16  and  O_18 
ROOT
HETATM    1  C   UNL     1     -20.884  -4.326  -9.790  1.00  0.00     0.002 C 
ENDROOT
BRANCH   1   2
HETATM    2  C   UNL     1     -22.042  -4.174  -8.809  1.00  0.00     0.000 C 
BRANCH   2   3
HETATM    3  C   UNL     1     -21.538  -3.820  -7.414  1.00  0.00     0.000 C 
BRANCH   3   4
HETATM    4  C   UNL     1     -20.159  -4.410  -7.167  1.00  0.00     0.000 C 
BRANCH   4   5
HETATM    5  C   UNL     1     -20.274  -5.844  -6.671  1.00  0.00     0.000 C 
BRANCH   5   6
HETATM    6  C   UNL     1     -20.644  -5.871  -5.193  1.00  0.00     0.000 C 
BRANCH   6   7
HETATM    7  C   UNL     1     -21.521  -7.075  -4.880  1.00  0.00     0.000 C 
BRANCH   7   8
HETATM    8  C   UNL     1     -21.400  -7.455  -3.408  1.00  0.00    -0.000 C 
BRANCH   8   9
HETATM    9  C   UNL     1     -21.606  -6.240  -2.512  1.00  0.00    -0.005 C 
HETATM   10  C   UNL     1     -22.326  -6.627  -1.234  1.00  0.00     0.005 C 
ENDBRANCH   8   9
ENDBRANCH   7   8
ENDBRANCH   6   7
ENDBRANCH   5   6
ENDBRANCH   4   5
ENDBRANCH   3   4
ENDBRANCH   2   3
ENDBRANCH   1   2
BRANCH   1  11
HETATM   11  C   UNL     1     -20.975  -3.303 -10.918  1.00  0.00     0.027 C 
BRANCH  11  12
HETATM   12  C   UNL     1     -22.125  -3.625 -11.857  1.00  0.00     0.178 C 
BRANCH  12  13
HETATM   13  O   UNL     1     -23.108  -2.582 -11.792  1.00  0.00    -0.319 OA
BRANCH  13  14
HETATM   14  C   UNL     1     -24.015  -2.625 -12.813  1.00  0.00     0.287 C 
HETATM   15  O   UNL     1     -24.996  -3.349 -12.851  1.00  0.00    -0.262 OA
BRANCH  14  16
HETATM   16  C   UNL     1     -23.636  -1.652 -13.936  1.00  0.00     0.213 C 
HETATM   17  C   UNL     1     -23.002  -2.379 -15.106  1.00  0.00     0.050 C 
BRANCH  16  18
HETATM   18  O   UNL     1     -24.780  -0.949 -14.427  1.00  0.00    -0.386 OA
HETATM   19  H   UNL     1     -25.055  -0.331 -13.723  1.00  0.00     0.210 HD
ENDBRANCH  16  18
ENDBRANCH  14  16
ENDBRANCH  13  14
ENDBRANCH  12  13
ENDBRANCH  11  12
ENDBRANCH   1  11
TORSDOF 14
ENDMDL
MODEL 4
REMARK VINA RESULT:      -5.9      1.372      2.201
REMARK  14 active torsions:
REMARK  status: ('A' for Active; 'I' for Inactive)
REMARK    1  A    between atoms: C_2  and  C_3 
REMARK    2  A    between atoms: C_3  and  C_4 
REMARK    3  A    between atoms: C_4  and  C_5 
REMARK    4  A    between atoms: C_5  and  C_6 
REMARK    5  A    between atoms: C_6  and  C_7 
REMARK    6  A    between atoms: C_7  and  C_8 
REMARK    7  A    between atoms: C_8  and  C_9 
REMARK    8  A    between atoms: C_9  and  C_10 
REMARK    9  A    between atoms: C_10  and  C_11 
REMARK   10  A    between atoms: C_11  and  C_12 
REMARK   11  A    between atoms: C_12  and  O_13 
REMARK   12  A    between atoms: O_13  and  C_14 
REMARK   13  A    between atoms: C_14  and  C_16 
REMARK   14  A    between atoms: C_16  and  O_18 
ROOT
HETATM    1  C   UNL     1     -20.326  -5.119  -5.719  1.00  0.00     0.002 C 
ENDROOT
BRANCH   1   2
HETATM    2  C   UNL     1     -21.575  -5.982  -5.871  1.00  0.00     0.000 C 
BRANCH   2   3
HETATM    3  C   UNL     1     -22.027  -6.537  -4.524  1.00  0.00     0.000 C 
BRANCH   3   4
HETATM    4  C   UNL     1     -21.055  -7.589  -4.014  1.00  0.00     0.000 C 
BRANCH   4   5
HETATM    5  C   UNL     1     -20.963  -7.539  -2.497  1.00  0.00     0.000 C 
BRANCH   5   6
HETATM    6  C   UNL     1     -21.978  -6.554  -1.931  1.00  0.00     0.000 C 
BRANCH   6   7
HETATM    7  C   UNL     1     -22.486  -7.023  -0.575  1.00  0.00     0.000 C 
BRANCH   7   8
HETATM    8  C   UNL     1     -21.973  -8.426  -0.269  1.00  0.00    -0.000 C 
BRANCH   8   9
HETATM    9  C   UNL     1     -23.129  -9.404  -0.096  1.00  0.00    -0.005 C 
HETATM   10  C   UNL     1     -22.634 -10.838  -0.142  1.00  0.00     0.005 C 
ENDBRANCH   8   9
ENDBRANCH   7   8
ENDBRANCH   6   7
ENDBRANCH   5   6
ENDBRANCH   4   5
ENDBRANCH   3   4
ENDBRANCH   2   3
ENDBRANCH   1   2
BRANCH   1  11
HETATM   11  C   UNL     1     -20.037  -4.333  -6.994  1.00  0.00     0.027 C 
BRANCH  11  12
HETATM   12  C   UNL     1     -20.601  -5.042  -8.214  1.00  0.00     0.178 C 
BRANCH  12  13
HETATM   13  O   UNL     1     -20.724  -4.110  -9.298  1.00  0.00    -0.319 OA
BRANCH  13  14
HETATM   14  C   UNL     1     -21.815  -4.339 -10.090  1.00  0.00     0.287 C 
HETATM   15  O   UNL     1     -22.919  -4.665  -9.687  1.00  0.00    -0.262 OA
BRANCH  14  16
HETATM   16  C   UNL     1     -21.475  -4.152 -11.574  1.00  0.00     0.213 C 
HETATM   17  C   UNL     1     -22.319  -3.059 -12.200  1.00  0.00     0.050 C 
BRANCH  16  18
HETATM   18  O   UNL     1     -20.102  -3.801 -11.754  1.00  0.00    -0.386 OA
HETATM   19  H   UNL     1     -20.078  -2.843 -11.943  1.00  0.00     0.210 HD
ENDBRANCH  16  18
ENDBRANCH  14  16
ENDBRANCH  13  14
ENDBRANCH  12  13
ENDBRANCH  11  12
ENDBRANCH   1  11
TORSDOF 14
ENDMDL
MODEL 5
REMARK VINA RESULT:      -5.7      1.621      3.312
REMARK  14 active torsions:
REMARK  status: ('A' for Active; 'I' for Inactive)
REMARK    1  A    between atoms: C_2  and  C_3 
REMARK    2  A    between atoms: C_3  and  C_4 
REMARK    3  A    between atoms: C_4  and  C_5 
REMARK    4  A    between atoms: C_5  and  C_6 
REMARK    5  A    between atoms: C_6  and  C_7 
REMARK    6  A    between atoms: C_7  and  C_8 
REMARK    7  A    between atoms: C_8  and  C_9 
REMARK    8  A    between atoms: C_9  and  C_10 
REMARK    9  A    between atoms: C_10  and  C_11 
REMARK   10  A    between atoms: C_11  and  C_12 
REMARK   11  A    between atoms: C_12  and  O_13 
REMARK   12  A    between atoms: O_13  and  C_14 
REMARK   13  A    between atoms: C_14  and  C_16 
REMARK   14  A    between atoms: C_16  and  O_18 
ROOT
HETATM    1  C   UNL     1     -21.265  -7.205  -5.901  1.00  0.00     0.002 C 
ENDROOT
BRANCH   1   2
HETATM    2  C   UNL     1     -22.042  -7.151  -4.590  1.00  0.00     0.000 C 
BRANCH   2   3
HETATM    3  C   UNL     1     -21.102  -7.198  -3.390  1.00  0.00     0.000 C 
BRANCH   3   4
HETATM    4  C   UNL     1     -21.433  -6.097  -2.395  1.00  0.00     0.000 C 
BRANCH   4   5
HETATM    5  C   UNL     1     -22.400  -6.607  -1.338  1.00  0.00     0.000 C 
BRANCH   5   6
HETATM    6  C   UNL     1     -21.748  -7.698  -0.498  1.00  0.00     0.000 C 
BRANCH   6   7
HETATM    7  C   UNL     1     -22.741  -8.811  -0.196  1.00  0.00     0.000 C 
BRANCH   7   8
HETATM    8  C   UNL     1     -22.046 -10.168  -0.217  1.00  0.00    -0.000 C 
BRANCH   8   9
HETATM    9  C   UNL     1     -21.446 -10.452  -1.589  1.00  0.00    -0.005 C 
HETATM   10  C   UNL     1     -22.538 -10.675  -2.620  1.00  0.00     0.005 C 
ENDBRANCH   8   9
ENDBRANCH   7   8
ENDBRANCH   6   7
ENDBRANCH   5   6
ENDBRANCH   4   5
ENDBRANCH   3   4
ENDBRANCH   2   3
ENDBRANCH   1   2
BRANCH   1  11
HETATM   11  C   UNL     1     -20.240  -6.078  -5.985  1.00  0.00     0.027 C 
BRANCH  11  12
HETATM   12  C   UNL     1     -20.882  -4.789  -6.468  1.00  0.00     0.178 C 
BRANCH  12  13
HETATM   13  O   UNL     1     -21.862  -5.086  -7.474  1.00  0.00    -0.319 OA
BRANCH  13  14
HETATM   14  C   UNL     1     -21.715  -4.344  -8.612  1.00  0.00     0.287 C 
HETATM   15  O   UNL     1     -20.649  -4.032  -9.114  1.00  0.00    -0.262 OA
BRANCH  14  16
HETATM   16  C   UNL     1     -23.076  -3.926  -9.183  1.00  0.00     0.213 C 
HETATM   17  C   UNL     1     -23.534  -4.876 -10.272  1.00  0.00     0.050 C 
BRANCH  16  18
HETATM   18  O   UNL     1     -24.083  -3.906  -8.169  1.00  0.00    -0.386 OA
HETATM   19  H   UNL     1     -23.687  -3.479  -7.386  1.00  0.00     0.210 HD
ENDBRANCH  16  18
ENDBRANCH  14  16
ENDBRANCH  13  14
ENDBRANCH  12  13
ENDBRANCH  11  12
ENDBRANCH   1  11
TORSDOF 14
ENDMDL
MODEL 6
REMARK VINA RESULT:      -5.5      4.183      9.394
REMARK  14 active torsions:
REMARK  status: ('A' for Active; 'I' for Inactive)
REMARK    1  A    between atoms: C_2  and  C_3 
REMARK    2  A    between atoms: C_3  and  C_4 
REMARK    3  A    between atoms: C_4  and  C_5 
REMARK    4  A    between atoms: C_5  and  C_6 
REMARK    5  A    between atoms: C_6  and  C_7 
REMARK    6  A    between atoms: C_7  and  C_8 
REMARK    7  A    between atoms: C_8  and  C_9 
REMARK    8  A    between atoms: C_9  and  C_10 
REMARK    9  A    between atoms: C_10  and  C_11 
REMARK   10  A    between atoms: C_11  and  C_12 
REMARK   11  A    between atoms: C_12  and  O_13 
REMARK   12  A    between atoms: O_13  and  C_14 
REMARK   13  A    between atoms: C_14  and  C_16 
REMARK   14  A    between atoms: C_16  and  O_18 
ROOT
HETATM    1  C   UNL     1     -20.726  -6.710  -5.583  1.00  0.00     0.002 C 
ENDROOT
BRANCH   1   2
HETATM    2  C   UNL     1     -20.443  -5.260  -5.962  1.00  0.00     0.000 C 
BRANCH   2   3
HETATM    3  C   UNL     1     -19.472  -5.178  -7.135  1.00  0.00     0.000 C 
BRANCH   3   4
HETATM    4  C   UNL     1     -19.736  -3.938  -7.974  1.00  0.00     0.000 C 
BRANCH   4   5
HETATM    5  C   UNL     1     -21.227  -3.637  -8.028  1.00  0.00     0.000 C 
BRANCH   5   6
HETATM    6  C   UNL     1     -21.835  -4.176  -9.316  1.00  0.00     0.000 C 
BRANCH   6   7
HETATM    7  C   UNL     1     -20.966  -3.816 -10.513  1.00  0.00     0.000 C 
BRANCH   7   8
HETATM    8  C   UNL     1     -21.737  -4.022 -11.813  1.00  0.00    -0.000 C 
BRANCH   8   9
HETATM    9  C   UNL     1     -22.645  -2.833 -12.102  1.00  0.00    -0.005 C 
HETATM   10  C   UNL     1     -23.066  -2.817 -13.560  1.00  0.00     0.005 C 
ENDBRANCH   8   9
ENDBRANCH   7   8
ENDBRANCH   6   7
ENDBRANCH   5   6
ENDBRANCH   4   5
ENDBRANCH   3   4
ENDBRANCH   2   3
ENDBRANCH   1   2
BRANCH   1  11
HETATM   11  C   UNL     1     -21.297  -6.814  -4.172  1.00  0.00     0.027 C 
BRANCH  11  12
HETATM   12  C   UNL     1     -20.638  -7.942  -3.397  1.00  0.00     0.178 C 
BRANCH  12  13
HETATM   13  O   UNL     1     -20.505  -7.567  -2.018  1.00  0.00    -0.319 OA
BRANCH  13  14
HETATM   14  C   UNL     1     -21.075  -8.460  -1.154  1.00  0.00     0.287 C 
HETATM   15  O   UNL     1     -20.612  -9.551  -0.866  1.00  0.00    -0.262 OA
BRANCH  14  16
HETATM   16  C   UNL     1     -22.401  -7.927  -0.596  1.00  0.00     0.213 C 
HETATM   17  C   UNL     1     -22.421  -7.976   0.919  1.00  0.00     0.050 C 
BRANCH  16  18
HETATM   18  O   UNL     1     -22.626  -6.572  -0.992  1.00  0.00    -0.386 OA
HETATM   19  H   UNL     1     -22.254  -6.475  -1.889  1.00  0.00     0.210 HD
ENDBRANCH  16  18
ENDBRANCH  14  16
ENDBRANCH  13  14
ENDBRANCH  12  13
ENDBRANCH  11  12
ENDBRANCH   1  11
TORSDOF 14
ENDMDL
MODEL 7
REMARK VINA RESULT:      -5.4      2.897      5.804
REMARK  14 active torsions:
REMARK  status: ('A' for Active; 'I' for Inactive)
REMARK    1  A    between atoms: C_2  and  C_3 
REMARK    2  A    between atoms: C_3  and  C_4 
REMARK    3  A    between atoms: C_4  and  C_5 
REMARK    4  A    between atoms: C_5  and  C_6 
REMARK    5  A    between atoms: C_6  and  C_7 
REMARK    6  A    between atoms: C_7  and  C_8 
REMARK    7  A    between atoms: C_8  and  C_9 
REMARK    8  A    between atoms: C_9  and  C_10 
REMARK    9  A    between atoms: C_10  and  C_11 
REMARK   10  A    between atoms: C_11  and  C_12 
REMARK   11  A    between atoms: C_12  and  O_13 
REMARK   12  A    between atoms: O_13  and  C_14 
REMARK   13  A    between atoms: C_14  and  C_16 
REMARK   14  A    between atoms: C_16  and  O_18 
ROOT
HETATM    1  C   UNL     1     -21.514  -7.348  -1.943  1.00  0.00     0.002 C 
ENDROOT
BRANCH   1   2
HETATM    2  C   UNL     1     -22.337  -7.247  -0.663  1.00  0.00     0.000 C 
BRANCH   2   3
HETATM    3  C   UNL     1     -21.715  -8.074   0.458  1.00  0.00     0.000 C 
BRANCH   3   4
HETATM    4  C   UNL     1     -22.041  -9.549   0.292  1.00  0.00     0.000 C 
BRANCH   4   5
HETATM    5  C   UNL     1     -23.522  -9.739   0.001  1.00  0.00     0.000 C 
BRANCH   5   6
HETATM    6  C   UNL     1     -23.855 -11.218  -0.140  1.00  0.00     0.000 C 
BRANCH   6   7
HETATM    7  C   UNL     1     -22.858 -11.909  -1.060  1.00  0.00     0.000 C 
BRANCH   7   8
HETATM    8  C   UNL     1     -23.230 -11.676  -2.521  1.00  0.00    -0.000 C 
BRANCH   8   9
HETATM    9  C   UNL     1     -21.984 -11.495  -3.379  1.00  0.00    -0.005 C 
HETATM   10  C   UNL     1     -21.931 -10.097  -3.968  1.00  0.00     0.005 C 
ENDBRANCH   8   9
ENDBRANCH   7   8
ENDBRANCH   6   7
ENDBRANCH   5   6
ENDBRANCH   4   5
ENDBRANCH   3   4
ENDBRANCH   2   3
ENDBRANCH   1   2
BRANCH   1  11
HETATM   11  C   UNL     1     -21.568  -6.048  -2.741  1.00  0.00     0.027 C 
BRANCH  11  12
HETATM   12  C   UNL     1     -21.649  -6.325  -4.232  1.00  0.00     0.178 C 
BRANCH  12  13
HETATM   13  O   UNL     1     -20.704  -5.499  -4.928  1.00  0.00    -0.319 OA
BRANCH  13  14
HETATM   14  C   UNL     1     -20.851  -5.531  -6.286  1.00  0.00     0.287 C 
HETATM   15  O   UNL     1     -20.958  -6.544  -6.957  1.00  0.00    -0.262 OA
BRANCH  14  16
HETATM   16  C   UNL     1     -20.843  -4.117  -6.881  1.00  0.00     0.213 C 
HETATM   17  C   UNL     1     -19.941  -4.034  -8.097  1.00  0.00     0.050 C 
BRANCH  16  18
HETATM   18  O   UNL     1     -22.154  -3.712  -7.281  1.00  0.00    -0.386 OA
HETATM   19  H   UNL     1     -22.589  -3.341  -6.490  1.00  0.00     0.210 HD
ENDBRANCH  16  18
ENDBRANCH  14  16
ENDBRANCH  13  14
ENDBRANCH  12  13
ENDBRANCH  11  12
ENDBRANCH   1  11
TORSDOF 14
ENDMDL
MODEL 8
REMARK VINA RESULT:      -5.3      2.449      4.721
REMARK  14 active torsions:
REMARK  status: ('A' for Active; 'I' for Inactive)
REMARK    1  A    between atoms: C_2  and  C_3 
REMARK    2  A    between atoms: C_3  and  C_4 
REMARK    3  A    between atoms: C_4  and  C_5 
REMARK    4  A    between atoms: C_5  and  C_6 
REMARK    5  A    between atoms: C_6  and  C_7 
REMARK    6  A    between atoms: C_7  and  C_8 
REMARK    7  A    between atoms: C_8  and  C_9 
REMARK    8  A    between atoms: C_9  and  C_10 
REMARK    9  A    between atoms: C_10  and  C_11 
REMARK   10  A    between atoms: C_11  and  C_12 
REMARK   11  A    between atoms: C_12  and  O_13 
REMARK   12  A    between atoms: O_13  and  C_14 
REMARK   13  A    between atoms: C_14  and  C_16 
REMARK   14  A    between atoms: C_16  and  O_18 
ROOT
HETATM    1  C   UNL     1     -21.932  -7.750  -4.300  1.00  0.00     0.002 C 
ENDROOT
BRANCH   1   2
HETATM    2  C   UNL     1     -21.521  -6.703  -3.269  1.00  0.00     0.000 C 
BRANCH   2   3
HETATM    3  C   UNL     1     -21.350  -7.329  -1.888  1.00  0.00     0.000 C 
BRANCH   3   4
HETATM    4  C   UNL     1     -22.395  -6.801  -0.918  1.00  0.00     0.000 C 
BRANCH   4   5
HETATM    5  C   UNL     1     -22.671  -7.822   0.175  1.00  0.00     0.000 C 
BRANCH   5   6
HETATM    6  C   UNL     1     -22.071  -9.173  -0.190  1.00  0.00     0.000 C 
BRANCH   6   7
HETATM    7  C   UNL     1     -23.162 -10.158  -0.585  1.00  0.00     0.000 C 
BRANCH   7   8
HETATM    8  C   UNL     1     -22.585 -11.279  -1.443  1.00  0.00    -0.000 C 
BRANCH   8   9
HETATM    9  C   UNL     1     -23.033 -11.140  -2.893  1.00  0.00    -0.005 C 
HETATM   10  C   UNL     1     -21.882 -11.418  -3.843  1.00  0.00     0.005 C 
ENDBRANCH   8   9
ENDBRANCH   7   8
ENDBRANCH   6   7
ENDBRANCH   5   6
ENDBRANCH   4   5
ENDBRANCH   3   4
ENDBRANCH   2   3
ENDBRANCH   1   2
BRANCH   1  11
HETATM   11  C   UNL     1     -20.832  -7.974  -5.332  1.00  0.00     0.027 C 
BRANCH  11  12
HETATM   12  C   UNL     1     -20.128  -6.671  -5.673  1.00  0.00     0.178 C 
BRANCH  12  13
HETATM   13  O   UNL     1     -19.923  -6.591  -7.091  1.00  0.00    -0.319 OA
BRANCH  13  14
HETATM   14  C   UNL     1     -19.968  -5.313  -7.575  1.00  0.00     0.287 C 
HETATM   15  O   UNL     1     -19.079  -4.487  -7.458  1.00  0.00    -0.262 OA
BRANCH  14  16
HETATM   16  C   UNL     1     -21.301  -5.031  -8.280  1.00  0.00     0.213 C 
HETATM   17  C   UNL     1     -22.235  -4.231  -7.393  1.00  0.00     0.050 C 
BRANCH  16  18
HETATM   18  O   UNL     1     -21.107  -4.293  -9.488  1.00  0.00    -0.386 OA
HETATM   19  H   UNL     1     -20.143  -4.178  -9.597  1.00  0.00     0.210 HD
ENDBRANCH  16  18
ENDBRANCH  14  16
ENDBRANCH  13  14
ENDBRANCH  12  13
ENDBRANCH  11  12
ENDBRANCH   1  11
TORSDOF 14
ENDMDL
MODEL 9
REMARK VINA RESULT:      -5.3      5.130      9.308
REMARK  14 active torsions:
REMARK  status: ('A' for Active; 'I' for Inactive)
REMARK    1  A    between atoms: C_2  and  C_3 
REMARK    2  A    between atoms: C_3  and  C_4 
REMARK    3  A    between atoms: C_4  and  C_5 
REMARK    4  A    between atoms: C_5  and  C_6 
REMARK    5  A    between atoms: C_6  and  C_7 
REMARK    6  A    between atoms: C_7  and  C_8 
REMARK    7  A    between atoms: C_8  and  C_9 
REMARK    8  A    between atoms: C_9  and  C_10 
REMARK    9  A    between atoms: C_10  and  C_11 
REMARK   10  A    between atoms: C_11  and  C_12 
REMARK   11  A    between atoms: C_12  and  O_13 
REMARK   12  A    between atoms: O_13  and  C_14 
REMARK   13  A    between atoms: C_14  and  C_16 
REMARK   14  A    between atoms: C_16  and  O_18 
ROOT
HETATM    1  C   UNL     1     -21.772  -6.213  -2.578  1.00  0.00     0.002 C 
ENDROOT
BRANCH   1   2
HETATM    2  C   UNL     1     -22.061  -6.705  -3.993  1.00  0.00     0.000 C 
BRANCH   2   3
HETATM    3  C   UNL     1     -20.961  -7.640  -4.485  1.00  0.00     0.000 C 
BRANCH   3   4
HETATM    4  C   UNL     1     -20.220  -7.035  -5.666  1.00  0.00     0.000 C 
BRANCH   4   5
HETATM    5  C   UNL     1     -21.038  -5.915  -6.293  1.00  0.00     0.000 C 
BRANCH   5   6
HETATM    6  C   UNL     1     -20.277  -4.597  -6.230  1.00  0.00     0.000 C 
BRANCH   6   7
HETATM    7  C   UNL     1     -20.395  -3.845  -7.548  1.00  0.00     0.000 C 
BRANCH   7   8
HETATM    8  C   UNL     1     -21.020  -4.735  -8.617  1.00  0.00    -0.000 C 
BRANCH   8   9
HETATM    9  C   UNL     1     -20.260  -4.622  -9.933  1.00  0.00    -0.005 C 
HETATM   10  C   UNL     1     -20.992  -3.712 -10.903  1.00  0.00     0.005 C 
ENDBRANCH   8   9
ENDBRANCH   7   8
ENDBRANCH   6   7
ENDBRANCH   5   6
ENDBRANCH   4   5
ENDBRANCH   3   4
ENDBRANCH   2   3
ENDBRANCH   1   2
BRANCH   1  11
HETATM   11  C   UNL     1     -21.388  -7.368  -1.658  1.00  0.00     0.027 C 
BRANCH  11  12
HETATM   12  C   UNL     1     -22.419  -7.558  -0.559  1.00  0.00     0.178 C 
BRANCH  12  13
HETATM   13  O   UNL     1     -21.939  -8.518   0.393  1.00  0.00    -0.319 OA
BRANCH  13  14
HETATM   14  C   UNL     1     -21.892  -9.793  -0.097  1.00  0.00     0.287 C 
HETATM   15  O   UNL     1     -20.924 -10.534  -0.037  1.00  0.00    -0.262 OA
BRANCH  14  16
HETATM   16  C   UNL     1     -23.218 -10.183  -0.762  1.00  0.00     0.213 C 
HETATM   17  C   UNL     1     -22.989 -11.071  -1.970  1.00  0.00     0.050 C 
BRANCH  16  18
HETATM   18  O   UNL     1     -24.068 -10.889   0.144  1.00  0.00    -0.386 OA
HETATM   19  H   UNL     1     -24.562 -11.545  -0.385  1.00  0.00     0.210 HD
ENDBRANCH  16  18
ENDBRANCH  14  16
ENDBRANCH  13  14
ENDBRANCH  12  13
ENDBRANCH  11  12
ENDBRANCH   1  11
TORSDOF 14
ENDMDL
