MODEL 1
REMARK VINA RESULT:      -5.0      0.000      0.000
REMARK  12 active torsions:
REMARK  status: ('A' for Active; 'I' for Inactive)
REMARK    1  A    between atoms: C_1  and  C_2 
REMARK    2  A    between atoms: C_1  and  O_23 
REMARK    3  A    between atoms: C_3  and  O_22 
REMARK    4  A    between atoms: C_4  and  O_21 
REMARK    5  A    between atoms: C_5  and  O_20 
REMARK    6  A    between atoms: C_6  and  O_8 
REMARK    7  A    between atoms: O_8  and  C_9 
REMARK    8  A    between atoms: C_10  and  C_18 
REMARK    9  A    between atoms: C_12  and  O_17 
REMARK   10  A    between atoms: C_13  and  O_16 
REMARK   11  A    between atoms: C_14  and  O_15 
REMARK   12  A    between atoms: C_18  and  O_19 
ROOT
HETATM    1  O   UNL     1     -20.091  -9.935  -1.986  1.00  0.00    -0.348 OA
ENDROOT
BRANCH   1   2
HETATM    2  C   UNL     1     -19.117  -9.959  -3.053  1.00  0.00     0.292 C 
HETATM    3  C   UNL     1     -19.778 -10.541  -4.316  1.00  0.00     0.204 C 
HETATM    4  C   UNL     1     -18.729 -10.596  -5.434  1.00  0.00     0.183 C 
HETATM    5  C   UNL     1     -17.505 -11.427  -5.000  1.00  0.00     0.180 C 
HETATM    6  C   UNL     1     -16.964 -10.932  -3.647  1.00  0.00     0.179 C 
HETATM    7  O   UNL     1     -18.019 -10.778  -2.678  1.00  0.00    -0.348 OA
BRANCH   3   8
HETATM    8  O   UNL     1     -20.252 -11.883  -4.055  1.00  0.00    -0.388 OA
HETATM    9  H   UNL     1     -19.578 -12.283  -3.468  1.00  0.00     0.210 HD
ENDBRANCH   3   8
BRANCH   4  10
HETATM   10  O   UNL     1     -19.311 -11.140  -6.619  1.00  0.00    -0.390 OA
HETATM   11  H   UNL     1     -18.758 -11.915  -6.850  1.00  0.00     0.210 HD
ENDBRANCH   4  10
BRANCH   5  12
HETATM   12  O   UNL     1     -17.872 -12.814  -4.888  1.00  0.00    -0.390 OA
HETATM   13  H   UNL     1     -17.449 -13.287  -5.637  1.00  0.00     0.210 HD
ENDBRANCH   5  12
BRANCH   6  14
HETATM   14  C   UNL     1     -16.142  -9.641  -3.766  1.00  0.00     0.198 C 
BRANCH  14  15
HETATM   15  O   UNL     1     -15.799  -9.134  -2.477  1.00  0.00    -0.398 OA
HETATM   16  H   UNL     1     -15.150  -8.422  -2.613  1.00  0.00     0.209 HD
ENDBRANCH  14  15
ENDBRANCH   6  14
ENDBRANCH   1   2
BRANCH   1  17
HETATM   17  C   UNL     1     -21.259  -9.146  -2.345  1.00  0.00     0.187 C 
HETATM   18  C   UNL     1     -21.210  -7.730  -1.725  1.00  0.00     0.180 C 
HETATM   19  O   UNL     1     -21.305  -7.762  -0.302  1.00  0.00    -0.349 OA
HETATM   20  C   UNL     1     -22.411  -8.443   0.251  1.00  0.00     0.288 C 
HETATM   21  C   UNL     1     -22.644  -9.859  -0.321  1.00  0.00     0.204 C 
HETATM   22  C   UNL     1     -22.523  -9.872  -1.852  1.00  0.00     0.183 C 
BRANCH  18  23
HETATM   23  C   UNL     1     -22.192  -6.771  -2.407  1.00  0.00     0.198 C 
BRANCH  23  24
HETATM   24  O   UNL     1     -22.365  -5.614  -1.586  1.00  0.00    -0.398 OA
HETATM   25  H   UNL     1     -22.003  -5.824  -0.704  1.00  0.00     0.209 HD
ENDBRANCH  23  24
ENDBRANCH  18  23
BRANCH  20  26
HETATM   26  O   UNL     1     -23.583  -7.639   0.179  1.00  0.00    -0.369 OA
HETATM   27  H   UNL     1     -24.357  -8.224   0.202  1.00  0.00     0.212 HD
ENDBRANCH  20  26
BRANCH  21  28
HETATM   28  O   UNL     1     -23.954 -10.327   0.053  1.00  0.00    -0.388 OA
HETATM   29  H   UNL     1     -24.618  -9.697  -0.284  1.00  0.00     0.210 HD
ENDBRANCH  21  28
BRANCH  22  30
HETATM   30  O   UNL     1     -22.530 -11.214  -2.367  1.00  0.00    -0.390 OA
HETATM   31  H   UNL     1     -23.093 -11.210  -3.161  1.00  0.00     0.210 HD
ENDBRANCH  22  30
ENDBRANCH   1  17
TORSDOF 12
ENDMDL
MODEL 2
REMARK VINA RESULT:      -4.9      1.211      2.151
REMARK  12 active torsions:
REMARK  status: ('A' for Active; 'I' for Inactive)
REMARK    1  A    between atoms: C_1  and  C_2 
REMARK    2  A    between atoms: C_1  and  O_23 
REMARK    3  A    between atoms: C_3  and  O_22 
REMARK    4  A    between atoms: C_4  and  O_21 
REMARK    5  A    between atoms: C_5  and  O_20 
REMARK    6  A    between atoms: C_6  and  O_8 
REMARK    7  A    between atoms: O_8  and  C_9 
REMARK    8  A    between atoms: C_10  and  C_18 
REMARK    9  A    between atoms: C_12  and  O_17 
REMARK   10  A    between atoms: C_13  and  O_16 
REMARK   11  A    between atoms: C_14  and  O_15 
REMARK   12  A    between atoms: C_18  and  O_19 
ROOT
HETATM    1  O   UNL     1     -20.010  -9.951  -1.646  1.00  0.00    -0.348 OA
ENDROOT
BRANCH   1   2
HETATM    2  C   UNL     1     -19.209 -10.437  -2.745  1.00  0.00     0.292 C 
HETATM    3  C   UNL     1     -18.364 -11.627  -2.254  1.00  0.00     0.204 C 
HETATM    4  C   UNL     1     -17.490 -12.116  -3.417  1.00  0.00     0.183 C 
HETATM    5  C   UNL     1     -16.604 -10.976  -3.957  1.00  0.00     0.180 C 
HETATM    6  C   UNL     1     -17.455  -9.734  -4.282  1.00  0.00     0.179 C 
HETATM    7  O   UNL     1     -18.346  -9.404  -3.200  1.00  0.00    -0.348 OA
BRANCH   3   8
HETATM    8  O   UNL     1     -17.504 -11.212  -1.168  1.00  0.00    -0.388 OA
HETATM    9  H   UNL     1     -18.104 -10.817  -0.502  1.00  0.00     0.210 HD
ENDBRANCH   3   8
BRANCH   4  10
HETATM   10  O   UNL     1     -16.687 -13.217  -2.990  1.00  0.00    -0.390 OA
HETATM   11  H   UNL     1     -16.539 -13.078  -2.032  1.00  0.00     0.210 HD
ENDBRANCH   4  10
BRANCH   5  12
HETATM   12  O   UNL     1     -15.606 -10.628  -2.980  1.00  0.00    -0.390 OA
HETATM   13  H   UNL     1     -15.837  -9.740  -2.632  1.00  0.00     0.210 HD
ENDBRANCH   5  12
BRANCH   6  14
HETATM   14  C   UNL     1     -18.225  -9.865  -5.603  1.00  0.00     0.198 C 
BRANCH  14  15
HETATM   15  O   UNL     1     -18.996  -8.692  -5.862  1.00  0.00    -0.398 OA
HETATM   16  H   UNL     1     -19.240  -8.712  -6.803  1.00  0.00     0.209 HD
ENDBRANCH  14  15
ENDBRANCH   6  14
ENDBRANCH   1   2
BRANCH   1  17
HETATM   17  C   UNL     1     -21.159  -9.192  -2.116  1.00  0.00     0.187 C 
HETATM   18  C   UNL     1     -21.186  -7.763  -1.529  1.00  0.00     0.180 C 
HETATM   19  O   UNL     1     -21.395  -7.764  -0.117  1.00  0.00    -0.349 OA
HETATM   20  C   UNL     1     -22.530  -8.454   0.361  1.00  0.00     0.288 C 
HETATM   21  C   UNL     1     -22.690  -9.887  -0.193  1.00  0.00     0.204 C 
HETATM   22  C   UNL     1     -22.446  -9.932  -1.709  1.00  0.00     0.183 C 
BRANCH  18  23
HETATM   23  C   UNL     1     -22.126  -6.838  -2.310  1.00  0.00     0.198 C 
BRANCH  23  24
HETATM   24  O   UNL     1     -22.317  -5.629  -1.573  1.00  0.00    -0.398 OA
HETATM   25  H   UNL     1     -22.807  -5.857  -0.760  1.00  0.00     0.209 HD
ENDBRANCH  23  24
ENDBRANCH  18  23
BRANCH  20  26
HETATM   26  O   UNL     1     -23.706  -7.675   0.176  1.00  0.00    -0.369 OA
HETATM   27  H   UNL     1     -24.109  -7.518   1.045  1.00  0.00     0.212 HD
ENDBRANCH  20  26
BRANCH  21  28
HETATM   28  O   UNL     1     -24.018 -10.372   0.085  1.00  0.00    -0.388 OA
HETATM   29  H   UNL     1     -24.254 -11.037  -0.589  1.00  0.00     0.210 HD
ENDBRANCH  21  28
BRANCH  22  30
HETATM   30  O   UNL     1     -22.388 -11.285  -2.190  1.00  0.00    -0.390 OA
HETATM   31  H   UNL     1     -22.696 -11.858  -1.466  1.00  0.00     0.210 HD
ENDBRANCH  22  30
ENDBRANCH   1  17
TORSDOF 12
ENDMDL
MODEL 3
REMARK VINA RESULT:      -4.7      1.173      2.527
REMARK  12 active torsions:
REMARK  status: ('A' for Active; 'I' for Inactive)
REMARK    1  A    between atoms: C_1  and  C_2 
REMARK    2  A    between atoms: C_1  and  O_23 
REMARK    3  A    between atoms: C_3  and  O_22 
REMARK    4  A    between atoms: C_4  and  O_21 
REMARK    5  A    between atoms: C_5  and  O_20 
REMARK    6  A    between atoms: C_6  and  O_8 
REMARK    7  A    between atoms: O_8  and  C_9 
REMARK    8  A    between atoms: C_10  and  C_18 
REMARK    9  A    between atoms: C_12  and  O_17 
REMARK   10  A    between atoms: C_13  and  O_16 
REMARK   11  A    between atoms: C_14  and  O_15 
REMARK   12  A    between atoms: C_18  and  O_19 
ROOT
HETATM    1  O   UNL     1     -20.003 -10.000  -1.555  1.00  0.00    -0.348 OA
ENDROOT
BRANCH   1   2
HETATM    2  C   UNL     1     -19.418 -10.797  -2.608  1.00  0.00     0.292 C 
HETATM    3  C   UNL     1     -17.894 -10.585  -2.604  1.00  0.00     0.204 C 
HETATM    4  C   UNL     1     -17.284 -11.408  -3.747  1.00  0.00     0.183 C 
HETATM    5  C   UNL     1     -17.908 -11.015  -5.101  1.00  0.00     0.180 C 
HETATM    6  C   UNL     1     -19.444 -11.073  -5.029  1.00  0.00     0.179 C 
HETATM    7  O   UNL     1     -19.946 -10.392  -3.863  1.00  0.00    -0.348 OA
BRANCH   3   8
HETATM    8  O   UNL     1     -17.586  -9.188  -2.821  1.00  0.00    -0.388 OA
HETATM    9  H   UNL     1     -16.631  -9.102  -2.620  1.00  0.00     0.210 HD
ENDBRANCH   3   8
BRANCH   4  10
HETATM   10  O   UNL     1     -15.868 -11.225  -3.775  1.00  0.00    -0.390 OA
HETATM   11  H   UNL     1     -15.639 -11.093  -4.718  1.00  0.00     0.210 HD
ENDBRANCH   4  10
BRANCH   5  12
HETATM   12  O   UNL     1     -17.496  -9.684  -5.461  1.00  0.00    -0.390 OA
HETATM   13  H   UNL     1     -16.702  -9.770  -6.031  1.00  0.00     0.210 HD
ENDBRANCH   5  12
BRANCH   6  14
HETATM   14  C   UNL     1     -19.994 -12.504  -5.102  1.00  0.00     0.198 C 
BRANCH  14  15
HETATM   15  O   UNL     1     -21.396 -12.526  -4.832  1.00  0.00    -0.398 OA
HETATM   16  H   UNL     1     -21.851 -12.606  -5.688  1.00  0.00     0.209 HD
ENDBRANCH  14  15
ENDBRANCH   6  14
ENDBRANCH   1   2
BRANCH   1  17
HETATM   17  C   UNL     1     -21.125  -9.212  -2.041  1.00  0.00     0.187 C 
HETATM   18  C   UNL     1     -21.144  -7.794  -1.424  1.00  0.00     0.180 C 
HETATM   19  O   UNL     1     -21.392  -7.822  -0.018  1.00  0.00    -0.349 OA
HETATM   20  C   UNL     1     -22.552  -8.502   0.413  1.00  0.00     0.288 C 
HETATM   21  C   UNL     1     -22.721  -9.920  -0.176  1.00  0.00     0.204 C 
HETATM   22  C   UNL     1     -22.435  -9.938  -1.685  1.00  0.00     0.183 C 
BRANCH  18  23
HETATM   23  C   UNL     1     -22.046  -6.837  -2.210  1.00  0.00     0.198 C 
BRANCH  23  24
HETATM   24  O   UNL     1     -22.304  -5.676  -1.418  1.00  0.00    -0.398 OA
HETATM   25  H   UNL     1     -23.195  -5.778  -1.031  1.00  0.00     0.209 HD
ENDBRANCH  23  24
ENDBRANCH  18  23
BRANCH  20  26
HETATM   26  O   UNL     1     -23.709  -7.699   0.212  1.00  0.00    -0.369 OA
HETATM   27  H   UNL     1     -23.443  -6.892  -0.259  1.00  0.00     0.212 HD
ENDBRANCH  20  26
BRANCH  21  28
HETATM   28  O   UNL     1     -24.064 -10.388   0.054  1.00  0.00    -0.388 OA
HETATM   29  H   UNL     1     -24.492  -9.800   0.704  1.00  0.00     0.210 HD
ENDBRANCH  21  28
BRANCH  22  30
HETATM   30  O   UNL     1     -22.386 -11.280  -2.194  1.00  0.00    -0.390 OA
HETATM   31  H   UNL     1     -21.572 -11.354  -2.724  1.00  0.00     0.210 HD
ENDBRANCH  22  30
ENDBRANCH   1  17
TORSDOF 12
ENDMDL
MODEL 4
REMARK VINA RESULT:      -4.5      1.821      2.633
REMARK  12 active torsions:
REMARK  status: ('A' for Active; 'I' for Inactive)
REMARK    1  A    between atoms: C_1  and  C_2 
REMARK    2  A    between atoms: C_1  and  O_23 
REMARK    3  A    between atoms: C_3  and  O_22 
REMARK    4  A    between atoms: C_4  and  O_21 
REMARK    5  A    between atoms: C_5  and  O_20 
REMARK    6  A    between atoms: C_6  and  O_8 
REMARK    7  A    between atoms: O_8  and  C_9 
REMARK    8  A    between atoms: C_10  and  C_18 
REMARK    9  A    between atoms: C_12  and  O_17 
REMARK   10  A    between atoms: C_13  and  O_16 
REMARK   11  A    between atoms: C_14  and  O_15 
REMARK   12  A    between atoms: C_18  and  O_19 
ROOT
HETATM    1  O   UNL     1     -19.600  -9.104  -2.073  1.00  0.00    -0.348 OA
ENDROOT
BRANCH   1   2
HETATM    2  C   UNL     1     -18.678  -9.891  -2.858  1.00  0.00     0.292 C 
HETATM    3  C   UNL     1     -18.718 -11.347  -2.361  1.00  0.00     0.204 C 
HETATM    4  C   UNL     1     -17.711 -12.169  -3.176  1.00  0.00     0.183 C 
HETATM    5  C   UNL     1     -16.294 -11.571  -3.064  1.00  0.00     0.180 C 
HETATM    6  C   UNL     1     -16.310 -10.069  -3.404  1.00  0.00     0.179 C 
HETATM    7  O   UNL     1     -17.362  -9.378  -2.704  1.00  0.00    -0.348 OA
BRANCH   3   8
HETATM    8  O   UNL     1     -18.345 -11.406  -0.964  1.00  0.00    -0.388 OA
HETATM    9  H   UNL     1     -18.971 -12.040  -0.558  1.00  0.00     0.210 HD
ENDBRANCH   3   8
BRANCH   4  10
HETATM   10  O   UNL     1     -17.719 -13.526  -2.732  1.00  0.00    -0.390 OA
HETATM   11  H   UNL     1     -17.464 -13.494  -1.786  1.00  0.00     0.210 HD
ENDBRANCH   4  10
BRANCH   5  12
HETATM   12  O   UNL     1     -15.792 -11.752  -1.728  1.00  0.00    -0.390 OA
HETATM   13  H   UNL     1     -15.778 -10.869  -1.301  1.00  0.00     0.210 HD
ENDBRANCH   5  12
BRANCH   6  14
HETATM   14  C   UNL     1     -16.390  -9.798  -4.913  1.00  0.00     0.198 C 
BRANCH  14  15
HETATM   15  O   UNL     1     -15.567 -10.710  -5.639  1.00  0.00    -0.398 OA
HETATM   16  H   UNL     1     -14.990 -11.153  -4.993  1.00  0.00     0.209 HD
ENDBRANCH  14  15
ENDBRANCH   6  14
ENDBRANCH   1   2
BRANCH   1  17
HETATM   17  C   UNL     1     -20.856  -8.892  -2.776  1.00  0.00     0.187 C 
HETATM   18  C   UNL     1     -20.843  -7.583  -3.598  1.00  0.00     0.180 C 
HETATM   19  O   UNL     1     -20.775  -6.426  -2.765  1.00  0.00    -0.349 OA
HETATM   20  C   UNL     1     -21.759  -6.301  -1.760  1.00  0.00     0.288 C 
HETATM   21  C   UNL     1     -21.949  -7.562  -0.889  1.00  0.00     0.204 C 
HETATM   22  C   UNL     1     -22.000  -8.835  -1.747  1.00  0.00     0.183 C 
BRANCH  18  23
HETATM   23  C   UNL     1     -21.963  -7.550  -4.643  1.00  0.00     0.198 C 
BRANCH  23  24
HETATM   24  O   UNL     1     -22.211  -6.195  -5.025  1.00  0.00    -0.398 OA
HETATM   25  H   UNL     1     -21.344  -5.763  -5.147  1.00  0.00     0.209 HD
ENDBRANCH  23  24
ENDBRANCH  18  23
BRANCH  20  26
HETATM   26  O   UNL     1     -22.988  -5.845  -2.315  1.00  0.00    -0.369 OA
HETATM   27  H   UNL     1     -23.434  -5.291  -1.654  1.00  0.00     0.212 HD
ENDBRANCH  20  26
BRANCH  21  28
HETATM   28  O   UNL     1     -23.170  -7.455  -0.133  1.00  0.00    -0.388 OA
HETATM   29  H   UNL     1     -23.357  -8.317   0.282  1.00  0.00     0.210 HD
ENDBRANCH  21  28
BRANCH  22  30
HETATM   30  O   UNL     1     -21.965 -10.018  -0.933  1.00  0.00    -0.390 OA
HETATM   31  H   UNL     1     -21.212 -10.554  -1.242  1.00  0.00     0.210 HD
ENDBRANCH  22  30
ENDBRANCH   1  17
TORSDOF 12
ENDMDL
MODEL 5
REMARK VINA RESULT:      -4.5      1.999      6.108
REMARK  12 active torsions:
REMARK  status: ('A' for Active; 'I' for Inactive)
REMARK    1  A    between atoms: C_1  and  C_2 
REMARK    2  A    between atoms: C_1  and  O_23 
REMARK    3  A    between atoms: C_3  and  O_22 
REMARK    4  A    between atoms: C_4  and  O_21 
REMARK    5  A    between atoms: C_5  and  O_20 
REMARK    6  A    between atoms: C_6  and  O_8 
REMARK    7  A    between atoms: O_8  and  C_9 
REMARK    8  A    between atoms: C_10  and  C_18 
REMARK    9  A    between atoms: C_12  and  O_17 
REMARK   10  A    between atoms: C_13  and  O_16 
REMARK   11  A    between atoms: C_14  and  O_15 
REMARK   12  A    between atoms: C_18  and  O_19 
ROOT
HETATM    1  O   UNL     1     -19.742 -10.725  -2.642  1.00  0.00    -0.348 OA
ENDROOT
BRANCH   1   2
HETATM    2  C   UNL     1     -20.577 -10.545  -1.478  1.00  0.00     0.292 C 
HETATM    3  C   UNL     1     -20.689 -11.889  -0.735  1.00  0.00     0.204 C 
HETATM    4  C   UNL     1     -21.606 -11.699   0.481  1.00  0.00     0.183 C 
HETATM    5  C   UNL     1     -22.989 -11.172   0.049  1.00  0.00     0.180 C 
HETATM    6  C   UNL     1     -22.843  -9.921  -0.836  1.00  0.00     0.179 C 
HETATM    7  O   UNL     1     -21.872 -10.122  -1.881  1.00  0.00    -0.348 OA
BRANCH   3   8
HETATM    8  O   UNL     1     -21.269 -12.890  -1.604  1.00  0.00    -0.388 OA
HETATM    9  H   UNL     1     -21.956 -12.418  -2.117  1.00  0.00     0.210 HD
ENDBRANCH   3   8
BRANCH   4  10
HETATM   10  O   UNL     1     -21.737 -12.932   1.187  1.00  0.00    -0.390 OA
HETATM   11  H   UNL     1     -20.903 -13.035   1.692  1.00  0.00     0.210 HD
ENDBRANCH   4  10
BRANCH   5  12
HETATM   12  O   UNL     1     -23.695 -12.193  -0.680  1.00  0.00    -0.390 OA
HETATM   13  H   UNL     1     -23.935 -11.813  -1.552  1.00  0.00     0.210 HD
ENDBRANCH   5  12
BRANCH   6  14
HETATM   14  C   UNL     1     -22.525  -8.653  -0.033  1.00  0.00     0.198 C 
BRANCH  14  15
HETATM   15  O   UNL     1     -23.687  -8.172   0.642  1.00  0.00    -0.398 OA
HETATM   16  H   UNL     1     -23.491  -8.187   1.595  1.00  0.00     0.209 HD
ENDBRANCH  14  15
ENDBRANCH   6  14
ENDBRANCH   1   2
BRANCH   1  17
HETATM   17  C   UNL     1     -19.369  -9.450  -3.236  1.00  0.00     0.187 C 
HETATM   18  C   UNL     1     -20.142  -9.177  -4.547  1.00  0.00     0.180 C 
HETATM   19  O   UNL     1     -19.789 -10.095  -5.581  1.00  0.00    -0.349 OA
HETATM   20  C   UNL     1     -18.418 -10.207  -5.898  1.00  0.00     0.288 C 
HETATM   21  C   UNL     1     -17.493 -10.412  -4.678  1.00  0.00     0.204 C 
HETATM   22  C   UNL     1     -17.858  -9.459  -3.530  1.00  0.00     0.183 C 
BRANCH  18  23
HETATM   23  C   UNL     1     -20.075  -7.701  -4.956  1.00  0.00     0.198 C 
BRANCH  23  24
HETATM   24  O   UNL     1     -20.662  -7.545  -6.250  1.00  0.00    -0.398 OA
HETATM   25  H   UNL     1     -21.214  -6.740  -6.225  1.00  0.00     0.209 HD
ENDBRANCH  23  24
ENDBRANCH  18  23
BRANCH  20  26
HETATM   26  O   UNL     1     -17.999  -9.114  -6.708  1.00  0.00    -0.369 OA
HETATM   27  H   UNL     1     -17.085  -9.278  -6.993  1.00  0.00     0.212 HD
ENDBRANCH  20  26
BRANCH  21  28
HETATM   28  O   UNL     1     -16.122 -10.186  -5.060  1.00  0.00    -0.388 OA
HETATM   29  H   UNL     1     -15.883 -10.825  -5.756  1.00  0.00     0.210 HD
ENDBRANCH  21  28
BRANCH  22  30
HETATM   30  O   UNL     1     -17.144  -9.788  -2.328  1.00  0.00    -0.390 OA
HETATM   31  H   UNL     1     -17.662  -9.435  -1.583  1.00  0.00     0.210 HD
ENDBRANCH  22  30
ENDBRANCH   1  17
TORSDOF 12
ENDMDL
MODEL 6
REMARK VINA RESULT:      -4.4      2.932      3.578
REMARK  12 active torsions:
REMARK  status: ('A' for Active; 'I' for Inactive)
REMARK    1  A    between atoms: C_1  and  C_2 
REMARK    2  A    between atoms: C_1  and  O_23 
REMARK    3  A    between atoms: C_3  and  O_22 
REMARK    4  A    between atoms: C_4  and  O_21 
REMARK    5  A    between atoms: C_5  and  O_20 
REMARK    6  A    between atoms: C_6  and  O_8 
REMARK    7  A    between atoms: O_8  and  C_9 
REMARK    8  A    between atoms: C_10  and  C_18 
REMARK    9  A    between atoms: C_12  and  O_17 
REMARK   10  A    between atoms: C_13  and  O_16 
REMARK   11  A    between atoms: C_14  and  O_15 
REMARK   12  A    between atoms: C_18  and  O_19 
ROOT
HETATM    1  O   UNL     1     -20.382 -10.427  -0.258  1.00  0.00    -0.348 OA
ENDROOT
BRANCH   1   2
HETATM    2  C   UNL     1     -19.582 -11.554  -0.676  1.00  0.00     0.292 C 
HETATM    3  C   UNL     1     -20.511 -12.755  -0.931  1.00  0.00     0.204 C 
HETATM    4  C   UNL     1     -19.652 -13.958  -1.341  1.00  0.00     0.183 C 
HETATM    5  C   UNL     1     -18.599 -14.275  -0.260  1.00  0.00     0.180 C 
HETATM    6  C   UNL     1     -17.793 -13.014   0.100  1.00  0.00     0.179 C 
HETATM    7  O   UNL     1     -18.655 -11.887   0.347  1.00  0.00    -0.348 OA
BRANCH   3   8
HETATM    8  O   UNL     1     -21.235 -13.089   0.276  1.00  0.00    -0.388 OA
HETATM    9  H   UNL     1     -21.025 -12.371   0.908  1.00  0.00     0.210 HD
ENDBRANCH   3   8
BRANCH   4  10
HETATM   10  O   UNL     1     -20.486 -15.092  -1.578  1.00  0.00    -0.390 OA
HETATM   11  H   UNL     1     -21.232 -15.005  -0.949  1.00  0.00     0.210 HD
ENDBRANCH   4  10
BRANCH   5  12
HETATM   12  O   UNL     1     -19.248 -14.781   0.920  1.00  0.00    -0.390 OA
HETATM   13  H   UNL     1     -18.650 -15.451   1.315  1.00  0.00     0.210 HD
ENDBRANCH   5  12
BRANCH   6  14
HETATM   14  C   UNL     1     -16.726 -12.665  -0.947  1.00  0.00     0.198 C 
BRANCH  14  15
HETATM   15  O   UNL     1     -15.997 -11.500  -0.562  1.00  0.00    -0.398 OA
HETATM   16  H   UNL     1     -15.092 -11.786  -0.350  1.00  0.00     0.209 HD
ENDBRANCH  14  15
ENDBRANCH   6  14
ENDBRANCH   1   2
BRANCH   1  17
HETATM   17  C   UNL     1     -21.290  -9.996  -1.310  1.00  0.00     0.187 C 
HETATM   18  C   UNL     1     -20.725  -8.795  -2.104  1.00  0.00     0.180 C 
HETATM   19  O   UNL     1     -20.625  -7.619  -1.302  1.00  0.00    -0.349 OA
HETATM   20  C   UNL     1     -21.798  -7.192  -0.643  1.00  0.00     0.288 C 
HETATM   21  C   UNL     1     -22.531  -8.301   0.145  1.00  0.00     0.204 C 
HETATM   22  C   UNL     1     -22.635  -9.596  -0.675  1.00  0.00     0.183 C 
BRANCH  18  23
HETATM   23  C   UNL     1     -21.450  -8.596  -3.439  1.00  0.00     0.198 C 
BRANCH  23  24
HETATM   24  O   UNL     1     -21.056  -7.346  -4.007  1.00  0.00    -0.398 OA
HETATM   25  H   UNL     1     -20.150  -7.156  -3.695  1.00  0.00     0.209 HD
ENDBRANCH  23  24
ENDBRANCH  18  23
BRANCH  20  26
HETATM   26  O   UNL     1     -22.666  -6.518  -1.547  1.00  0.00    -0.369 OA
HETATM   27  H   UNL     1     -22.252  -5.677  -1.798  1.00  0.00     0.212 HD
ENDBRANCH  20  26
BRANCH  21  28
HETATM   28  O   UNL     1     -23.856  -7.858   0.495  1.00  0.00    -0.388 OA
HETATM   29  H   UNL     1     -23.868  -7.630   1.443  1.00  0.00     0.210 HD
ENDBRANCH  21  28
BRANCH  22  30
HETATM   30  O   UNL     1     -23.123 -10.685   0.124  1.00  0.00    -0.390 OA
HETATM   31  H   UNL     1     -22.854 -11.508  -0.321  1.00  0.00     0.210 HD
ENDBRANCH  22  30
ENDBRANCH   1  17
TORSDOF 12
ENDMDL
MODEL 7
REMARK VINA RESULT:      -4.3      4.734      6.940
REMARK  12 active torsions:
REMARK  status: ('A' for Active; 'I' for Inactive)
REMARK    1  A    between atoms: C_1  and  C_2 
REMARK    2  A    between atoms: C_1  and  O_23 
REMARK    3  A    between atoms: C_3  and  O_22 
REMARK    4  A    between atoms: C_4  and  O_21 
REMARK    5  A    between atoms: C_5  and  O_20 
REMARK    6  A    between atoms: C_6  and  O_8 
REMARK    7  A    between atoms: O_8  and  C_9 
REMARK    8  A    between atoms: C_10  and  C_18 
REMARK    9  A    between atoms: C_12  and  O_17 
REMARK   10  A    between atoms: C_13  and  O_16 
REMARK   11  A    between atoms: C_14  and  O_15 
REMARK   12  A    between atoms: C_18  and  O_19 
ROOT
HETATM    1  O   UNL     1     -20.735  -6.811  -6.565  1.00  0.00    -0.348 OA
ENDROOT
BRANCH   1   2
HETATM    2  C   UNL     1     -20.557  -7.183  -5.181  1.00  0.00     0.292 C 
HETATM    3  C   UNL     1     -19.677  -8.444  -5.114  1.00  0.00     0.204 C 
HETATM    4  C   UNL     1     -19.521  -8.853  -3.644  1.00  0.00     0.183 C 
HETATM    5  C   UNL     1     -20.897  -9.088  -2.990  1.00  0.00     0.180 C 
HETATM    6  C   UNL     1     -21.820  -7.877  -3.216  1.00  0.00     0.179 C 
HETATM    7  O   UNL     1     -21.821  -7.462  -4.595  1.00  0.00    -0.348 OA
BRANCH   3   8
HETATM    8  O   UNL     1     -20.306  -9.529  -5.835  1.00  0.00    -0.388 OA
HETATM    9  H   UNL     1     -20.897  -9.960  -5.185  1.00  0.00     0.210 HD
ENDBRANCH   3   8
BRANCH   4  10
HETATM   10  O   UNL     1     -18.714 -10.027  -3.549  1.00  0.00    -0.390 OA
HETATM   11  H   UNL     1     -18.665 -10.236  -2.593  1.00  0.00     0.210 HD
ENDBRANCH   4  10
BRANCH   5  12
HETATM   12  O   UNL     1     -21.509 -10.265  -3.548  1.00  0.00    -0.390 OA
HETATM   13  H   UNL     1     -22.288  -9.969  -4.066  1.00  0.00     0.210 HD
ENDBRANCH   5  12
BRANCH   6  14
HETATM   14  C   UNL     1     -21.496  -6.695  -2.292  1.00  0.00     0.198 C 
BRANCH  14  15
HETATM   15  O   UNL     1     -22.616  -5.818  -2.174  1.00  0.00    -0.398 OA
HETATM   16  H   UNL     1     -22.397  -5.007  -2.665  1.00  0.00     0.209 HD
ENDBRANCH  14  15
ENDBRANCH   6  14
ENDBRANCH   1   2
BRANCH   1  17
HETATM   17  C   UNL     1     -21.381  -5.514  -6.692  1.00  0.00     0.187 C 
HETATM   18  C   UNL     1     -22.251  -5.426  -7.967  1.00  0.00     0.180 C 
HETATM   19  O   UNL     1     -21.467  -5.480  -9.158  1.00  0.00    -0.349 OA
HETATM   20  C   UNL     1     -20.419  -4.541  -9.278  1.00  0.00     0.288 C 
HETATM   21  C   UNL     1     -19.492  -4.453  -8.046  1.00  0.00     0.204 C 
HETATM   22  C   UNL     1     -20.299  -4.420  -6.739  1.00  0.00     0.183 C 
BRANCH  18  23
HETATM   23  C   UNL     1     -23.239  -4.256  -7.908  1.00  0.00     0.198 C 
BRANCH  23  24
HETATM   24  O   UNL     1     -24.031  -4.368  -6.724  1.00  0.00    -0.398 OA
HETATM   25  H   UNL     1     -24.005  -5.302  -6.442  1.00  0.00     0.209 HD
ENDBRANCH  23  24
ENDBRANCH  18  23
BRANCH  20  26
HETATM   26  O   UNL     1     -20.928  -3.266  -9.656  1.00  0.00    -0.369 OA
HETATM   27  H   UNL     1     -20.224  -2.609  -9.537  1.00  0.00     0.212 HD
ENDBRANCH  20  26
BRANCH  21  28
HETATM   28  O   UNL     1     -18.681  -3.265  -8.129  1.00  0.00    -0.388 OA
HETATM   29  H   UNL     1     -19.158  -2.598  -8.656  1.00  0.00     0.210 HD
ENDBRANCH  21  28
BRANCH  22  30
HETATM   30  O   UNL     1     -19.444  -4.550  -5.592  1.00  0.00    -0.390 OA
HETATM   31  H   UNL     1     -19.906  -4.131  -4.844  1.00  0.00     0.210 HD
ENDBRANCH  22  30
ENDBRANCH   1  17
TORSDOF 12
ENDMDL
MODEL 8
REMARK VINA RESULT:      -4.2     19.501     21.496
REMARK  12 active torsions:
REMARK  status: ('A' for Active; 'I' for Inactive)
REMARK    1  A    between atoms: C_1  and  C_2 
REMARK    2  A    between atoms: C_1  and  O_23 
REMARK    3  A    between atoms: C_3  and  O_22 
REMARK    4  A    between atoms: C_4  and  O_21 
REMARK    5  A    between atoms: C_5  and  O_20 
REMARK    6  A    between atoms: C_6  and  O_8 
REMARK    7  A    between atoms: O_8  and  C_9 
REMARK    8  A    between atoms: C_10  and  C_18 
REMARK    9  A    between atoms: C_12  and  O_17 
REMARK   10  A    between atoms: C_13  and  O_16 
REMARK   11  A    between atoms: C_14  and  O_15 
REMARK   12  A    between atoms: C_18  and  O_19 
ROOT
HETATM    1  O   UNL     1     -18.027   8.925   4.421  1.00  0.00    -0.348 OA
ENDROOT
BRANCH   1   2
HETATM    2  C   UNL     1     -19.313   9.530   4.163  1.00  0.00     0.292 C 
HETATM    3  C   UNL     1     -19.726  10.361   5.392  1.00  0.00     0.204 C 
HETATM    4  C   UNL     1     -21.108  10.972   5.124  1.00  0.00     0.183 C 
HETATM    5  C   UNL     1     -22.143   9.874   4.809  1.00  0.00     0.180 C 
HETATM    6  C   UNL     1     -21.631   8.950   3.689  1.00  0.00     0.179 C 
HETATM    7  O   UNL     1     -20.281   8.515   3.936  1.00  0.00    -0.348 OA
BRANCH   3   8
HETATM    8  O   UNL     1     -19.810   9.513   6.560  1.00  0.00    -0.388 OA
HETATM    9  H   UNL     1     -20.565   9.862   7.077  1.00  0.00     0.210 HD
ENDBRANCH   3   8
BRANCH   4  10
HETATM   10  O   UNL     1     -21.523  11.744   6.251  1.00  0.00    -0.390 OA
HETATM   11  H   UNL     1     -22.456  11.987   6.074  1.00  0.00     0.210 HD
ENDBRANCH   4  10
BRANCH   5  12
HETATM   12  O   UNL     1     -22.402   9.094   5.990  1.00  0.00    -0.390 OA
HETATM   13  H   UNL     1     -23.194   8.544   5.807  1.00  0.00     0.210 HD
ENDBRANCH   5  12
BRANCH   6  14
HETATM   14  C   UNL     1     -21.755   9.576   2.293  1.00  0.00     0.198 C 
BRANCH  14  15
HETATM   15  O   UNL     1     -22.480   8.718   1.412  1.00  0.00    -0.398 OA
HETATM   16  H   UNL     1     -22.171   7.810   1.578  1.00  0.00     0.209 HD
ENDBRANCH  14  15
ENDBRANCH   6  14
ENDBRANCH   1   2
BRANCH   1  17
HETATM   17  C   UNL     1     -16.959   9.913   4.408  1.00  0.00     0.187 C 
HETATM   18  C   UNL     1     -16.223   9.950   3.050  1.00  0.00     0.180 C 
HETATM   19  O   UNL     1     -15.508   8.742   2.792  1.00  0.00    -0.349 OA
HETATM   20  C   UNL     1     -14.587   8.321   3.776  1.00  0.00     0.288 C 
HETATM   21  C   UNL     1     -15.150   8.299   5.214  1.00  0.00     0.204 C 
HETATM   22  C   UNL     1     -15.952   9.572   5.522  1.00  0.00     0.183 C 
BRANCH  18  23
HETATM   23  C   UNL     1     -15.396  11.228   2.879  1.00  0.00     0.198 C 
BRANCH  23  24
HETATM   24  O   UNL     1     -14.555  11.094   1.731  1.00  0.00    -0.398 OA
HETATM   25  H   UNL     1     -14.857  11.746   1.070  1.00  0.00     0.209 HD
ENDBRANCH  23  24
ENDBRANCH  18  23
BRANCH  20  26
HETATM   26  O   UNL     1     -13.380   9.070   3.687  1.00  0.00    -0.369 OA
HETATM   27  H   UNL     1     -12.678   8.482   3.364  1.00  0.00     0.212 HD
ENDBRANCH  20  26
BRANCH  21  28
HETATM   28  O   UNL     1     -14.070   8.182   6.161  1.00  0.00    -0.388 OA
HETATM   29  H   UNL     1     -13.833   7.240   6.248  1.00  0.00     0.210 HD
ENDBRANCH  21  28
BRANCH  22  30
HETATM   30  O   UNL     1     -16.649   9.464   6.774  1.00  0.00    -0.390 OA
HETATM   31  H   UNL     1     -16.377  10.225   7.317  1.00  0.00     0.210 HD
ENDBRANCH  22  30
ENDBRANCH   1  17
TORSDOF 12
ENDMDL
MODEL 9
REMARK VINA RESULT:      -4.2      1.344      6.431
REMARK  12 active torsions:
REMARK  status: ('A' for Active; 'I' for Inactive)
REMARK    1  A    between atoms: C_1  and  C_2 
REMARK    2  A    between atoms: C_1  and  O_23 
REMARK    3  A    between atoms: C_3  and  O_22 
REMARK    4  A    between atoms: C_4  and  O_21 
REMARK    5  A    between atoms: C_5  and  O_20 
REMARK    6  A    between atoms: C_6  and  O_8 
REMARK    7  A    between atoms: O_8  and  C_9 
REMARK    8  A    between atoms: C_10  and  C_18 
REMARK    9  A    between atoms: C_12  and  O_17 
REMARK   10  A    between atoms: C_13  and  O_16 
REMARK   11  A    between atoms: C_14  and  O_15 
REMARK   12  A    between atoms: C_18  and  O_19 
ROOT
HETATM    1  O   UNL     1     -20.166  -9.593  -3.636  1.00  0.00    -0.348 OA
ENDROOT
BRANCH   1   2
HETATM    2  C   UNL     1     -21.245  -9.477  -2.683  1.00  0.00     0.292 C 
HETATM    3  C   UNL     1     -21.301  -8.026  -2.171  1.00  0.00     0.204 C 
HETATM    4  C   UNL     1     -22.428  -7.918  -1.135  1.00  0.00     0.183 C 
HETATM    5  C   UNL     1     -22.211  -8.918   0.019  1.00  0.00     0.180 C 
HETATM    6  C   UNL     1     -21.987 -10.339  -0.529  1.00  0.00     0.179 C 
HETATM    7  O   UNL     1     -21.012 -10.352  -1.588  1.00  0.00    -0.348 OA
BRANCH   3   8
HETATM    8  O   UNL     1     -20.050  -7.673  -1.538  1.00  0.00    -0.388 OA
HETATM    9  H   UNL     1     -20.274  -6.957  -0.908  1.00  0.00     0.210 HD
ENDBRANCH   3   8
BRANCH   4  10
HETATM   10  O   UNL     1     -22.501  -6.583  -0.634  1.00  0.00    -0.390 OA
HETATM   11  H   UNL     1     -22.243  -6.642   0.309  1.00  0.00     0.210 HD
ENDBRANCH   4  10
BRANCH   5  12
HETATM   12  O   UNL     1     -21.069  -8.522   0.800  1.00  0.00    -0.390 OA
HETATM   13  H   UNL     1     -21.144  -8.968   1.671  1.00  0.00     0.210 HD
ENDBRANCH   5  12
BRANCH   6  14
HETATM   14  C   UNL     1     -23.288 -11.020  -0.978  1.00  0.00     0.198 C 
BRANCH  14  15
HETATM   15  O   UNL     1     -24.292 -10.916   0.032  1.00  0.00    -0.398 OA
HETATM   16  H   UNL     1     -24.612  -9.997   0.023  1.00  0.00     0.209 HD
ENDBRANCH  14  15
ENDBRANCH   6  14
ENDBRANCH   1   2
BRANCH   1  17
HETATM   17  C   UNL     1     -19.232 -10.643  -3.261  1.00  0.00     0.187 C 
HETATM   18  C   UNL     1     -17.853 -10.073  -2.859  1.00  0.00     0.180 C 
HETATM   19  O   UNL     1     -17.180  -9.463  -3.960  1.00  0.00    -0.349 OA
HETATM   20  C   UNL     1     -17.006 -10.250  -5.119  1.00  0.00     0.288 C 
HETATM   21  C   UNL     1     -18.288 -10.955  -5.614  1.00  0.00     0.204 C 
HETATM   22  C   UNL     1     -19.056 -11.603  -4.453  1.00  0.00     0.183 C 
BRANCH  18  23
HETATM   23  C   UNL     1     -17.011 -11.094  -2.087  1.00  0.00     0.198 C 
BRANCH  23  24
HETATM   24  O   UNL     1     -15.667 -10.619  -1.989  1.00  0.00    -0.398 OA
HETATM   25  H   UNL     1     -15.421 -10.630  -1.044  1.00  0.00     0.209 HD
ENDBRANCH  23  24
ENDBRANCH  18  23
BRANCH  20  26
HETATM   26  O   UNL     1     -15.926 -11.162  -4.949  1.00  0.00    -0.369 OA
HETATM   27  H   UNL     1     -16.228 -11.889  -4.382  1.00  0.00     0.212 HD
ENDBRANCH  20  26
BRANCH  21  28
HETATM   28  O   UNL     1     -17.946 -11.971  -6.577  1.00  0.00    -0.388 OA
HETATM   29  H   UNL     1     -18.507 -12.753  -6.417  1.00  0.00     0.210 HD
ENDBRANCH  21  28
BRANCH  22  30
HETATM   30  O   UNL     1     -20.346 -12.074  -4.875  1.00  0.00    -0.390 OA
HETATM   31  H   UNL     1     -21.011 -11.542  -4.405  1.00  0.00     0.210 HD
ENDBRANCH  22  30
ENDBRANCH   1  17
TORSDOF 12
ENDMDL
