MODEL 1
REMARK VINA RESULT:      -6.3      0.000      0.000
REMARK  22 active torsions:
REMARK  status: ('A' for Active; 'I' for Inactive)
REMARK    1  A    between atoms: C_2  and  C_3 
REMARK    2  A    between atoms: C_3  and  C_4 
REMARK    3  A    between atoms: C_4  and  C_5 
REMARK    4  A    between atoms: C_5  and  C_6 
REMARK    5  A    between atoms: C_6  and  C_7 
REMARK    6  A    between atoms: C_7  and  C_8 
REMARK    7  A    between atoms: C_8  and  C_9 
REMARK    8  A    between atoms: C_10  and  C_11 
REMARK    9  A    between atoms: C_11  and  C_12 
REMARK   10  A    between atoms: C_12  and  C_13 
REMARK   11  A    between atoms: C_13  and  C_14 
REMARK   12  A    between atoms: C_14  and  C_15 
REMARK   13  A    between atoms: C_15  and  C_16 
REMARK   14  A    between atoms: C_16  and  C_17 
REMARK   15  A    between atoms: C_17  and  C_18 
REMARK   16  A    between atoms: C_18  and  O_20 
REMARK   17  A    between atoms: O_20  and  C_21 
REMARK   18  A    between atoms: C_21  and  C_22 
REMARK   19  A    between atoms: C_22  and  C_23 
REMARK   20  A    between atoms: C_22  and  C_25 
REMARK   21  A    between atoms: C_25  and  C_26 
REMARK   22  A    between atoms: C_26  and  C_27 
ROOT
HETATM    1  C   UNL     1     -21.470  -6.346  -2.707  1.00  0.00     0.000 C 
ENDROOT
BRANCH   1   2
HETATM    2  C   UNL     1     -22.246  -6.438  -1.396  1.00  0.00     0.000 C 
BRANCH   2   3
HETATM    3  C   UNL     1     -21.882  -7.701  -0.622  1.00  0.00     0.004 C 
BRANCH   3   4
HETATM    4  C   UNL     1     -22.925  -8.006   0.450  1.00  0.00     0.027 C 
BRANCH   4   5
HETATM    5  C   UNL     1     -23.546  -9.340   0.229  1.00  0.00    -0.031 C 
HETATM    6  C   UNL     1     -23.001 -10.256  -0.579  1.00  0.00    -0.031 C 
BRANCH   6   7
HETATM    7  C   UNL     1     -23.617 -11.593  -0.799  1.00  0.00     0.027 C 
BRANCH   7   8
HETATM    8  C   UNL     1     -23.240 -12.133  -2.168  1.00  0.00     0.004 C 
BRANCH   8   9
HETATM    9  C   UNL     1     -22.943 -10.982  -3.116  1.00  0.00     0.000 C 
BRANCH   9  10
HETATM   10  C   UNL     1     -21.719 -11.297  -3.959  1.00  0.00     0.000 C 
BRANCH  10  11
HETATM   11  C   UNL     1     -20.588 -11.799  -3.077  1.00  0.00     0.000 C 
BRANCH  11  12
HETATM   12  C   UNL     1     -19.620 -10.667  -2.767  1.00  0.00    -0.000 C 
BRANCH  12  13
HETATM   13  C   UNL     1     -18.655 -11.074  -1.661  1.00  0.00    -0.005 C 
HETATM   14  C   UNL     1     -19.379 -11.867  -0.589  1.00  0.00     0.005 C 
ENDBRANCH  12  13
ENDBRANCH  11  12
ENDBRANCH  10  11
ENDBRANCH   9  10
ENDBRANCH   8   9
ENDBRANCH   7   8
ENDBRANCH   6   7
ENDBRANCH   4   5
ENDBRANCH   3   4
ENDBRANCH   2   3
ENDBRANCH   1   2
BRANCH   1  15
HETATM   15  C   UNL     1     -21.549  -7.647  -3.486  1.00  0.00     0.000 C 
BRANCH  15  16
HETATM   16  C   UNL     1     -21.608  -7.349  -4.979  1.00  0.00     0.010 C 
BRANCH  16  17
HETATM   17  C   UNL     1     -20.224  -7.260  -5.605  1.00  0.00     0.111 C 
BRANCH  17  18
HETATM   18  C   UNL     1     -20.005  -5.874  -6.181  1.00  0.00     0.258 C 
HETATM   19  O   UNL     1     -20.023  -4.829  -5.561  1.00  0.00    -0.265 OA
BRANCH  18  20
HETATM   20  O   UNL     1     -19.906  -5.967  -7.544  1.00  0.00    -0.321 OA
BRANCH  20  21
HETATM   21  C   UNL     1     -19.564  -4.724  -8.158  1.00  0.00     0.183 C 
BRANCH  21  22
HETATM   22  C   UNL     1     -20.623  -4.206  -9.148  1.00  0.00     0.010 C 
BRANCH  22  23
HETATM   23  C   UNL     1     -20.238  -4.489 -10.617  1.00  0.00     0.002 C 
HETATM   24  C   UNL     1     -20.974  -3.623 -11.632  1.00  0.00     0.005 C 
ENDBRANCH  22  23
BRANCH  22  25
HETATM   25  C   UNL     1     -22.014  -4.804  -8.828  1.00  0.00     0.007 C 
BRANCH  25  26
HETATM   26  C   UNL     1     -23.036  -3.741  -8.427  1.00  0.00     0.000 C 
BRANCH  26  27
HETATM   27  C   UNL     1     -24.220  -3.699  -9.385  1.00  0.00    -0.005 C 
HETATM   28  C   UNL     1     -24.129  -4.854 -10.367  1.00  0.00     0.005 C 
ENDBRANCH  26  27
ENDBRANCH  25  26
ENDBRANCH  22  25
ENDBRANCH  21  22
ENDBRANCH  20  21
ENDBRANCH  18  20
ENDBRANCH  17  18
ENDBRANCH  16  17
ENDBRANCH  15  16
ENDBRANCH   1  15
TORSDOF 22
ENDMDL
MODEL 2
REMARK VINA RESULT:      -6.2      2.769      8.531
REMARK  22 active torsions:
REMARK  status: ('A' for Active; 'I' for Inactive)
REMARK    1  A    between atoms: C_2  and  C_3 
REMARK    2  A    between atoms: C_3  and  C_4 
REMARK    3  A    between atoms: C_4  and  C_5 
REMARK    4  A    between atoms: C_5  and  C_6 
REMARK    5  A    between atoms: C_6  and  C_7 
REMARK    6  A    between atoms: C_7  and  C_8 
REMARK    7  A    between atoms: C_8  and  C_9 
REMARK    8  A    between atoms: C_10  and  C_11 
REMARK    9  A    between atoms: C_11  and  C_12 
REMARK   10  A    between atoms: C_12  and  C_13 
REMARK   11  A    between atoms: C_13  and  C_14 
REMARK   12  A    between atoms: C_14  and  C_15 
REMARK   13  A    between atoms: C_15  and  C_16 
REMARK   14  A    between atoms: C_16  and  C_17 
REMARK   15  A    between atoms: C_17  and  C_18 
REMARK   16  A    between atoms: C_18  and  O_20 
REMARK   17  A    between atoms: O_20  and  C_21 
REMARK   18  A    between atoms: C_21  and  C_22 
REMARK   19  A    between atoms: C_22  and  C_23 
REMARK   20  A    between atoms: C_22  and  C_25 
REMARK   21  A    between atoms: C_25  and  C_26 
REMARK   22  A    between atoms: C_26  and  C_27 
ROOT
HETATM    1  C   UNL     1     -21.678  -8.338   1.096  1.00  0.00     0.000 C 
ENDROOT
BRANCH   1   2
HETATM    2  C   UNL     1     -22.396  -7.472   0.064  1.00  0.00     0.000 C 
BRANCH   2   3
HETATM    3  C   UNL     1     -21.625  -7.420  -1.251  1.00  0.00     0.004 C 
BRANCH   3   4
HETATM    4  C   UNL     1     -22.158  -6.310  -2.154  1.00  0.00     0.027 C 
BRANCH   4   5
HETATM    5  C   UNL     1     -22.083  -6.703  -3.586  1.00  0.00    -0.031 C 
HETATM    6  C   UNL     1     -21.096  -6.293  -4.389  1.00  0.00    -0.031 C 
BRANCH   6   7
HETATM    7  C   UNL     1     -21.015  -6.688  -5.822  1.00  0.00     0.027 C 
BRANCH   7   8
HETATM    8  C   UNL     1     -21.144  -5.467  -6.718  1.00  0.00     0.004 C 
BRANCH   8   9
HETATM    9  C   UNL     1     -19.845  -5.238  -7.473  1.00  0.00     0.000 C 
BRANCH   9  10
HETATM   10  C   UNL     1     -20.001  -4.088  -8.453  1.00  0.00     0.000 C 
BRANCH  10  11
HETATM   11  C   UNL     1     -20.049  -4.615  -9.878  1.00  0.00     0.000 C 
BRANCH  11  12
HETATM   12  C   UNL     1     -21.244  -4.030 -10.616  1.00  0.00    -0.000 C 
BRANCH  12  13
HETATM   13  C   UNL     1     -22.548  -4.503  -9.987  1.00  0.00    -0.005 C 
HETATM   14  C   UNL     1     -23.581  -4.791 -11.060  1.00  0.00     0.005 C 
ENDBRANCH  12  13
ENDBRANCH  11  12
ENDBRANCH  10  11
ENDBRANCH   9  10
ENDBRANCH   8   9
ENDBRANCH   7   8
ENDBRANCH   6   7
ENDBRANCH   4   5
ENDBRANCH   3   4
ENDBRANCH   2   3
ENDBRANCH   1   2
BRANCH   1  15
HETATM   15  C   UNL     1     -20.577  -9.162   0.452  1.00  0.00     0.000 C 
BRANCH  15  16
HETATM   16  C   UNL     1     -20.582 -10.570   1.036  1.00  0.00     0.010 C 
BRANCH  16  17
HETATM   17  C   UNL     1     -19.454 -11.428   0.483  1.00  0.00     0.111 C 
BRANCH  17  18
HETATM   18  C   UNL     1     -20.019 -12.512  -0.414  1.00  0.00     0.258 C 
HETATM   19  O   UNL     1     -20.766 -13.408  -0.073  1.00  0.00    -0.265 OA
BRANCH  18  20
HETATM   20  O   UNL     1     -19.454 -12.403  -1.657  1.00  0.00    -0.321 OA
BRANCH  20  21
HETATM   21  C   UNL     1     -20.414 -12.130  -2.678  1.00  0.00     0.183 C 
BRANCH  21  22
HETATM   22  C   UNL     1     -20.866 -10.659  -2.733  1.00  0.00     0.010 C 
BRANCH  22  23
HETATM   23  C   UNL     1     -19.949  -9.800  -3.630  1.00  0.00     0.002 C 
HETATM   24  C   UNL     1     -18.753  -9.196  -2.903  1.00  0.00     0.005 C 
ENDBRANCH  22  23
BRANCH  22  25
HETATM   25  C   UNL     1     -22.336 -10.552  -3.203  1.00  0.00     0.007 C 
BRANCH  25  26
HETATM   26  C   UNL     1     -23.288 -11.401  -2.361  1.00  0.00     0.000 C 
BRANCH  26  27
HETATM   27  C   UNL     1     -23.615 -10.739  -1.029  1.00  0.00    -0.005 C 
HETATM   28  C   UNL     1     -23.797 -11.801   0.043  1.00  0.00     0.005 C 
ENDBRANCH  26  27
ENDBRANCH  25  26
ENDBRANCH  22  25
ENDBRANCH  21  22
ENDBRANCH  20  21
ENDBRANCH  18  20
ENDBRANCH  17  18
ENDBRANCH  16  17
ENDBRANCH  15  16
ENDBRANCH   1  15
TORSDOF 22
ENDMDL
MODEL 3
REMARK VINA RESULT:      -6.2      1.203      2.518
REMARK  22 active torsions:
REMARK  status: ('A' for Active; 'I' for Inactive)
REMARK    1  A    between atoms: C_2  and  C_3 
REMARK    2  A    between atoms: C_3  and  C_4 
REMARK    3  A    between atoms: C_4  and  C_5 
REMARK    4  A    between atoms: C_5  and  C_6 
REMARK    5  A    between atoms: C_6  and  C_7 
REMARK    6  A    between atoms: C_7  and  C_8 
REMARK    7  A    between atoms: C_8  and  C_9 
REMARK    8  A    between atoms: C_10  and  C_11 
REMARK    9  A    between atoms: C_11  and  C_12 
REMARK   10  A    between atoms: C_12  and  C_13 
REMARK   11  A    between atoms: C_13  and  C_14 
REMARK   12  A    between atoms: C_14  and  C_15 
REMARK   13  A    between atoms: C_15  and  C_16 
REMARK   14  A    between atoms: C_16  and  C_17 
REMARK   15  A    between atoms: C_17  and  C_18 
REMARK   16  A    between atoms: C_18  and  O_20 
REMARK   17  A    between atoms: O_20  and  C_21 
REMARK   18  A    between atoms: C_21  and  C_22 
REMARK   19  A    between atoms: C_22  and  C_23 
REMARK   20  A    between atoms: C_22  and  C_25 
REMARK   21  A    between atoms: C_25  and  C_26 
REMARK   22  A    between atoms: C_26  and  C_27 
ROOT
HETATM    1  C   UNL     1     -22.273  -6.297  -1.381  1.00  0.00     0.000 C 
ENDROOT
BRANCH   1   2
HETATM    2  C   UNL     1     -22.037  -7.761  -1.020  1.00  0.00     0.000 C 
BRANCH   2   3
HETATM    3  C   UNL     1     -22.637  -8.103   0.339  1.00  0.00     0.004 C 
BRANCH   3   4
HETATM    4  C   UNL     1     -21.615  -8.808   1.227  1.00  0.00     0.027 C 
BRANCH   4   5
HETATM    5  C   UNL     1     -20.687  -9.642   0.416  1.00  0.00    -0.031 C 
HETATM    6  C   UNL     1     -20.410 -10.912   0.730  1.00  0.00    -0.031 C 
BRANCH   6   7
HETATM    7  C   UNL     1     -19.486 -11.752  -0.081  1.00  0.00     0.027 C 
BRANCH   7   8
HETATM    8  C   UNL     1     -19.325 -11.168  -1.475  1.00  0.00     0.004 C 
BRANCH   8   9
HETATM    9  C   UNL     1     -20.207 -11.921  -2.458  1.00  0.00     0.000 C 
BRANCH   9  10
HETATM   10  C   UNL     1     -20.883 -10.950  -3.410  1.00  0.00     0.000 C 
BRANCH  10  11
HETATM   11  C   UNL     1     -22.248 -10.551  -2.872  1.00  0.00     0.000 C 
BRANCH  11  12
HETATM   12  C   UNL     1     -22.936 -11.751  -2.240  1.00  0.00    -0.000 C 
BRANCH  12  13
HETATM   13  C   UNL     1     -24.027 -11.299  -1.278  1.00  0.00    -0.005 C 
HETATM   14  C   UNL     1     -23.744 -11.805   0.123  1.00  0.00     0.005 C 
ENDBRANCH  12  13
ENDBRANCH  11  12
ENDBRANCH  10  11
ENDBRANCH   9  10
ENDBRANCH   8   9
ENDBRANCH   7   8
ENDBRANCH   6   7
ENDBRANCH   4   5
ENDBRANCH   3   4
ENDBRANCH   2   3
ENDBRANCH   1   2
BRANCH   1  15
HETATM   15  C   UNL     1     -21.468  -5.895  -2.604  1.00  0.00     0.000 C 
BRANCH  15  16
HETATM   16  C   UNL     1     -21.877  -6.757  -3.793  1.00  0.00     0.010 C 
BRANCH  16  17
HETATM   17  C   UNL     1     -21.576  -6.085  -5.124  1.00  0.00     0.111 C 
BRANCH  17  18
HETATM   18  C   UNL     1     -20.775  -7.022  -6.007  1.00  0.00     0.258 C 
HETATM   19  O   UNL     1     -20.110  -7.968  -5.632  1.00  0.00    -0.265 OA
BRANCH  18  20
HETATM   20  O   UNL     1     -20.813  -6.561  -7.297  1.00  0.00    -0.321 OA
BRANCH  20  21
HETATM   21  C   UNL     1     -21.690  -5.446  -7.460  1.00  0.00     0.183 C 
BRANCH  21  22
HETATM   22  C   UNL     1     -21.034  -4.230  -8.137  1.00  0.00     0.010 C 
BRANCH  22  23
HETATM   23  C   UNL     1     -19.782  -4.621  -8.953  1.00  0.00     0.002 C 
HETATM   24  C   UNL     1     -20.024  -4.721 -10.455  1.00  0.00     0.005 C 
ENDBRANCH  22  23
BRANCH  22  25
HETATM   25  C   UNL     1     -22.052  -3.483  -9.032  1.00  0.00     0.007 C 
BRANCH  25  26
HETATM   26  C   UNL     1     -23.342  -4.273  -9.245  1.00  0.00     0.000 C 
BRANCH  26  27
HETATM   27  C   UNL     1     -24.495  -3.376  -9.679  1.00  0.00    -0.005 C 
HETATM   28  C   UNL     1     -24.559  -3.317 -11.196  1.00  0.00     0.005 C 
ENDBRANCH  26  27
ENDBRANCH  25  26
ENDBRANCH  22  25
ENDBRANCH  21  22
ENDBRANCH  20  21
ENDBRANCH  18  20
ENDBRANCH  17  18
ENDBRANCH  16  17
ENDBRANCH  15  16
ENDBRANCH   1  15
TORSDOF 22
ENDMDL
MODEL 4
REMARK VINA RESULT:      -6.1      2.753      8.977
REMARK  22 active torsions:
REMARK  status: ('A' for Active; 'I' for Inactive)
REMARK    1  A    between atoms: C_2  and  C_3 
REMARK    2  A    between atoms: C_3  and  C_4 
REMARK    3  A    between atoms: C_4  and  C_5 
REMARK    4  A    between atoms: C_5  and  C_6 
REMARK    5  A    between atoms: C_6  and  C_7 
REMARK    6  A    between atoms: C_7  and  C_8 
REMARK    7  A    between atoms: C_8  and  C_9 
REMARK    8  A    between atoms: C_10  and  C_11 
REMARK    9  A    between atoms: C_11  and  C_12 
REMARK   10  A    between atoms: C_12  and  C_13 
REMARK   11  A    between atoms: C_13  and  C_14 
REMARK   12  A    between atoms: C_14  and  C_15 
REMARK   13  A    between atoms: C_15  and  C_16 
REMARK   14  A    between atoms: C_16  and  C_17 
REMARK   15  A    between atoms: C_17  and  C_18 
REMARK   16  A    between atoms: C_18  and  O_20 
REMARK   17  A    between atoms: O_20  and  C_21 
REMARK   18  A    between atoms: C_21  and  C_22 
REMARK   19  A    between atoms: C_22  and  C_23 
REMARK   20  A    between atoms: C_22  and  C_25 
REMARK   21  A    between atoms: C_25  and  C_26 
REMARK   22  A    between atoms: C_26  and  C_27 
ROOT
HETATM    1  C   UNL     1     -21.289  -6.820  -2.085  1.00  0.00     0.000 C 
ENDROOT
BRANCH   1   2
HETATM    2  C   UNL     1     -21.900  -6.342  -3.400  1.00  0.00     0.000 C 
BRANCH   2   3
HETATM    3  C   UNL     1     -21.704  -7.368  -4.511  1.00  0.00     0.004 C 
BRANCH   3   4
HETATM    4  C   UNL     1     -20.497  -7.013  -5.376  1.00  0.00     0.027 C 
BRANCH   4   5
HETATM    5  C   UNL     1     -20.924  -6.420  -6.672  1.00  0.00    -0.031 C 
HETATM    6  C   UNL     1     -21.324  -5.149  -6.779  1.00  0.00    -0.031 C 
BRANCH   6   7
HETATM    7  C   UNL     1     -21.748  -4.552  -8.076  1.00  0.00     0.027 C 
BRANCH   7   8
HETATM    8  C   UNL     1     -20.575  -3.857  -8.748  1.00  0.00     0.004 C 
BRANCH   8   9
HETATM    9  C   UNL     1     -20.225  -4.568 -10.046  1.00  0.00     0.000 C 
BRANCH   9  10
HETATM   10  C   UNL     1     -21.400  -4.515 -11.008  1.00  0.00     0.000 C 
BRANCH  10  11
HETATM   11  C   UNL     1     -21.614  -3.092 -11.498  1.00  0.00     0.000 C 
BRANCH  11  12
HETATM   12  C   UNL     1     -23.094  -2.837 -11.740  1.00  0.00    -0.000 C 
BRANCH  12  13
HETATM   13  C   UNL     1     -23.943  -3.885 -11.032  1.00  0.00    -0.005 C 
HETATM   14  C   UNL     1     -24.690  -3.265  -9.867  1.00  0.00     0.005 C 
ENDBRANCH  12  13
ENDBRANCH  11  12
ENDBRANCH  10  11
ENDBRANCH   9  10
ENDBRANCH   8   9
ENDBRANCH   7   8
ENDBRANCH   6   7
ENDBRANCH   4   5
ENDBRANCH   3   4
ENDBRANCH   2   3
ENDBRANCH   1   2
BRANCH   1  15
HETATM   15  C   UNL     1     -22.341  -6.922  -0.995  1.00  0.00     0.000 C 
BRANCH  15  16
HETATM   16  C   UNL     1     -21.894  -7.930   0.056  1.00  0.00     0.010 C 
BRANCH  16  17
HETATM   17  C   UNL     1     -22.246  -9.359  -0.329  1.00  0.00     0.111 C 
BRANCH  17  18
HETATM   18  C   UNL     1     -21.128 -10.297   0.084  1.00  0.00     0.258 C 
HETATM   19  O   UNL     1     -20.669 -10.417   1.204  1.00  0.00    -0.265 OA
BRANCH  18  20
HETATM   20  O   UNL     1     -20.620 -10.907  -1.032  1.00  0.00    -0.321 OA
BRANCH  20  21
HETATM   21  C   UNL     1     -19.672 -10.092  -1.723  1.00  0.00     0.183 C 
BRANCH  21  22
HETATM   22  C   UNL     1     -19.351 -10.581  -3.147  1.00  0.00     0.010 C 
BRANCH  22  23
HETATM   23  C   UNL     1     -20.623 -10.762  -4.003  1.00  0.00     0.002 C 
HETATM   24  C   UNL     1     -20.369 -10.762  -5.506  1.00  0.00     0.005 C 
ENDBRANCH  22  23
BRANCH  22  25
HETATM   25  C   UNL     1     -18.360  -9.620  -3.848  1.00  0.00     0.007 C 
BRANCH  25  26
HETATM   26  C   UNL     1     -16.938  -9.736  -3.301  1.00  0.00     0.000 C 
BRANCH  26  27
HETATM   27  C   UNL     1     -15.903  -9.811  -4.416  1.00  0.00    -0.005 C 
HETATM   28  C   UNL     1     -16.602  -9.912  -5.762  1.00  0.00     0.005 C 
ENDBRANCH  26  27
ENDBRANCH  25  26
ENDBRANCH  22  25
ENDBRANCH  21  22
ENDBRANCH  20  21
ENDBRANCH  18  20
ENDBRANCH  17  18
ENDBRANCH  16  17
ENDBRANCH  15  16
ENDBRANCH   1  15
TORSDOF 22
ENDMDL
MODEL 5
REMARK VINA RESULT:      -6.1      2.604      9.479
REMARK  22 active torsions:
REMARK  status: ('A' for Active; 'I' for Inactive)
REMARK    1  A    between atoms: C_2  and  C_3 
REMARK    2  A    between atoms: C_3  and  C_4 
REMARK    3  A    between atoms: C_4  and  C_5 
REMARK    4  A    between atoms: C_5  and  C_6 
REMARK    5  A    between atoms: C_6  and  C_7 
REMARK    6  A    between atoms: C_7  and  C_8 
REMARK    7  A    between atoms: C_8  and  C_9 
REMARK    8  A    between atoms: C_10  and  C_11 
REMARK    9  A    between atoms: C_11  and  C_12 
REMARK   10  A    between atoms: C_12  and  C_13 
REMARK   11  A    between atoms: C_13  and  C_14 
REMARK   12  A    between atoms: C_14  and  C_15 
REMARK   13  A    between atoms: C_15  and  C_16 
REMARK   14  A    between atoms: C_16  and  C_17 
REMARK   15  A    between atoms: C_17  and  C_18 
REMARK   16  A    between atoms: C_18  and  O_20 
REMARK   17  A    between atoms: O_20  and  C_21 
REMARK   18  A    between atoms: C_21  and  C_22 
REMARK   19  A    between atoms: C_22  and  C_23 
REMARK   20  A    between atoms: C_22  and  C_25 
REMARK   21  A    between atoms: C_25  and  C_26 
REMARK   22  A    between atoms: C_26  and  C_27 
ROOT
HETATM    1  C   UNL     1     -21.418  -7.228  -2.282  1.00  0.00     0.000 C 
ENDROOT
BRANCH   1   2
HETATM    2  C   UNL     1     -21.890  -6.709  -3.638  1.00  0.00     0.000 C 
BRANCH   2   3
HETATM    3  C   UNL     1     -21.548  -7.688  -4.757  1.00  0.00     0.004 C 
BRANCH   3   4
HETATM    4  C   UNL     1     -20.265  -7.274  -5.472  1.00  0.00     0.027 C 
BRANCH   4   5
HETATM    5  C   UNL     1     -20.353  -5.872  -5.963  1.00  0.00    -0.031 C 
HETATM    6  C   UNL     1     -20.995  -5.550  -7.091  1.00  0.00    -0.031 C 
BRANCH   6   7
HETATM    7  C   UNL     1     -21.089  -4.147  -7.582  1.00  0.00     0.027 C 
BRANCH   7   8
HETATM    8  C   UNL     1     -19.968  -3.852  -8.565  1.00  0.00     0.004 C 
BRANCH   8   9
HETATM    9  C   UNL     1     -20.126  -4.714  -9.807  1.00  0.00     0.000 C 
BRANCH   9  10
HETATM   10  C   UNL     1     -20.447  -3.846 -11.012  1.00  0.00     0.000 C 
BRANCH  10  11
HETATM   11  C   UNL     1     -21.797  -4.234 -11.593  1.00  0.00     0.000 C 
BRANCH  11  12
HETATM   12  C   UNL     1     -22.766  -3.065 -11.498  1.00  0.00    -0.000 C 
BRANCH  12  13
HETATM   13  C   UNL     1     -24.131  -3.538 -11.015  1.00  0.00    -0.005 C 
HETATM   14  C   UNL     1     -23.987  -4.758 -10.125  1.00  0.00     0.005 C 
ENDBRANCH  12  13
ENDBRANCH  11  12
ENDBRANCH  10  11
ENDBRANCH   9  10
ENDBRANCH   8   9
ENDBRANCH   7   8
ENDBRANCH   6   7
ENDBRANCH   4   5
ENDBRANCH   3   4
ENDBRANCH   2   3
ENDBRANCH   1   2
BRANCH   1  15
HETATM   15  C   UNL     1     -22.253  -6.651  -1.152  1.00  0.00     0.000 C 
BRANCH  15  16
HETATM   16  C   UNL     1     -22.621  -7.758  -0.171  1.00  0.00     0.010 C 
BRANCH  16  17
HETATM   17  C   UNL     1     -21.640  -7.850   0.989  1.00  0.00     0.111 C 
BRANCH  17  18
HETATM   18  C   UNL     1     -21.198  -9.288   1.180  1.00  0.00     0.258 C 
HETATM   19  O   UNL     1     -20.321  -9.675   1.929  1.00  0.00    -0.265 OA
BRANCH  18  20
HETATM   20  O   UNL     1     -21.855 -10.082   0.277  1.00  0.00    -0.321 OA
BRANCH  20  21
HETATM   21  C   UNL     1     -21.330 -11.409   0.225  1.00  0.00     0.183 C 
BRANCH  21  22
HETATM   22  C   UNL     1     -21.179 -11.965  -1.203  1.00  0.00     0.010 C 
BRANCH  22  23
HETATM   23  C   UNL     1     -22.355 -12.885  -1.598  1.00  0.00     0.002 C 
HETATM   24  C   UNL     1     -23.729 -12.318  -1.266  1.00  0.00     0.005 C 
ENDBRANCH  22  23
BRANCH  22  25
HETATM   25  C   UNL     1     -21.025 -10.815  -2.227  1.00  0.00     0.007 C 
BRANCH  25  26
HETATM   26  C   UNL     1     -19.676 -10.838  -2.943  1.00  0.00     0.000 C 
BRANCH  26  27
HETATM   27  C   UNL     1     -18.866  -9.576  -2.674  1.00  0.00    -0.005 C 
HETATM   28  C   UNL     1     -17.745  -9.457  -3.692  1.00  0.00     0.005 C 
ENDBRANCH  26  27
ENDBRANCH  25  26
ENDBRANCH  22  25
ENDBRANCH  21  22
ENDBRANCH  20  21
ENDBRANCH  18  20
ENDBRANCH  17  18
ENDBRANCH  16  17
ENDBRANCH  15  16
ENDBRANCH   1  15
TORSDOF 22
ENDMDL
MODEL 6
REMARK VINA RESULT:      -6.0      2.680      9.821
REMARK  22 active torsions:
REMARK  status: ('A' for Active; 'I' for Inactive)
REMARK    1  A    between atoms: C_2  and  C_3 
REMARK    2  A    between atoms: C_3  and  C_4 
REMARK    3  A    between atoms: C_4  and  C_5 
REMARK    4  A    between atoms: C_5  and  C_6 
REMARK    5  A    between atoms: C_6  and  C_7 
REMARK    6  A    between atoms: C_7  and  C_8 
REMARK    7  A    between atoms: C_8  and  C_9 
REMARK    8  A    between atoms: C_10  and  C_11 
REMARK    9  A    between atoms: C_11  and  C_12 
REMARK   10  A    between atoms: C_12  and  C_13 
REMARK   11  A    between atoms: C_13  and  C_14 
REMARK   12  A    between atoms: C_14  and  C_15 
REMARK   13  A    between atoms: C_15  and  C_16 
REMARK   14  A    between atoms: C_16  and  C_17 
REMARK   15  A    between atoms: C_17  and  C_18 
REMARK   16  A    between atoms: C_18  and  O_20 
REMARK   17  A    between atoms: O_20  and  C_21 
REMARK   18  A    between atoms: C_21  and  C_22 
REMARK   19  A    between atoms: C_22  and  C_23 
REMARK   20  A    between atoms: C_22  and  C_25 
REMARK   21  A    between atoms: C_25  and  C_26 
REMARK   22  A    between atoms: C_26  and  C_27 
ROOT
HETATM    1  C   UNL     1     -21.344  -6.647  -2.239  1.00  0.00     0.000 C 
ENDROOT
BRANCH   1   2
HETATM    2  C   UNL     1     -21.919  -6.552  -3.650  1.00  0.00     0.000 C 
BRANCH   2   3
HETATM    3  C   UNL     1     -21.882  -7.903  -4.357  1.00  0.00     0.004 C 
BRANCH   3   4
HETATM    4  C   UNL     1     -20.978  -7.852  -5.587  1.00  0.00     0.027 C 
BRANCH   4   5
HETATM    5  C   UNL     1     -20.348  -6.512  -5.733  1.00  0.00    -0.031 C 
HETATM    6  C   UNL     1     -19.953  -6.034  -6.918  1.00  0.00    -0.031 C 
BRANCH   6   7
HETATM    7  C   UNL     1     -19.327  -4.692  -7.068  1.00  0.00     0.027 C 
BRANCH   7   8
HETATM    8  C   UNL     1     -20.125  -3.840  -8.041  1.00  0.00     0.004 C 
BRANCH   8   9
HETATM    9  C   UNL     1     -21.522  -3.595  -7.492  1.00  0.00     0.000 C 
BRANCH   9  10
HETATM   10  C   UNL     1     -22.567  -3.959  -8.533  1.00  0.00     0.000 C 
BRANCH  10  11
HETATM   11  C   UNL     1     -21.894  -4.427  -9.813  1.00  0.00     0.000 C 
BRANCH  11  12
HETATM   12  C   UNL     1     -22.782  -4.132 -11.012  1.00  0.00    -0.000 C 
BRANCH  12  13
HETATM   13  C   UNL     1     -22.252  -2.934 -11.790  1.00  0.00    -0.005 C 
HETATM   14  C   UNL     1     -23.218  -2.547 -12.893  1.00  0.00     0.005 C 
ENDBRANCH  12  13
ENDBRANCH  11  12
ENDBRANCH  10  11
ENDBRANCH   9  10
ENDBRANCH   8   9
ENDBRANCH   7   8
ENDBRANCH   6   7
ENDBRANCH   4   5
ENDBRANCH   3   4
ENDBRANCH   2   3
ENDBRANCH   1   2
BRANCH   1  15
HETATM   15  C   UNL     1     -22.448  -6.671  -1.196  1.00  0.00     0.000 C 
BRANCH  15  16
HETATM   16  C   UNL     1     -22.069  -7.626  -0.070  1.00  0.00     0.010 C 
BRANCH  16  17
HETATM   17  C   UNL     1     -23.221  -8.536   0.327  1.00  0.00     0.111 C 
BRANCH  17  18
HETATM   18  C   UNL     1     -22.951  -9.951  -0.147  1.00  0.00     0.258 C 
HETATM   19  O   UNL     1     -23.775 -10.730  -0.584  1.00  0.00    -0.265 OA
BRANCH  18  20
HETATM   20  O   UNL     1     -21.644 -10.267   0.113  1.00  0.00    -0.321 OA
BRANCH  20  21
HETATM   21  C   UNL     1     -21.251 -11.512  -0.468  1.00  0.00     0.183 C 
BRANCH  21  22
HETATM   22  C   UNL     1     -20.176 -11.377  -1.562  1.00  0.00     0.010 C 
BRANCH  22  23
HETATM   23  C   UNL     1     -19.696  -9.919  -1.732  1.00  0.00     0.002 C 
HETATM   24  C   UNL     1     -18.966  -9.653  -3.043  1.00  0.00     0.005 C 
ENDBRANCH  22  23
BRANCH  22  25
HETATM   25  C   UNL     1     -18.976 -12.311  -1.272  1.00  0.00     0.007 C 
BRANCH  25  26
HETATM   26  C   UNL     1     -18.398 -12.112   0.129  1.00  0.00     0.000 C 
BRANCH  26  27
HETATM   27  C   UNL     1     -16.878 -12.023   0.110  1.00  0.00    -0.005 C 
HETATM   28  C   UNL     1     -16.311 -12.631   1.382  1.00  0.00     0.005 C 
ENDBRANCH  26  27
ENDBRANCH  25  26
ENDBRANCH  22  25
ENDBRANCH  21  22
ENDBRANCH  20  21
ENDBRANCH  18  20
ENDBRANCH  17  18
ENDBRANCH  16  17
ENDBRANCH  15  16
ENDBRANCH   1  15
TORSDOF 22
ENDMDL
MODEL 7
REMARK VINA RESULT:      -5.9      2.262      3.194
REMARK  22 active torsions:
REMARK  status: ('A' for Active; 'I' for Inactive)
REMARK    1  A    between atoms: C_2  and  C_3 
REMARK    2  A    between atoms: C_3  and  C_4 
REMARK    3  A    between atoms: C_4  and  C_5 
REMARK    4  A    between atoms: C_5  and  C_6 
REMARK    5  A    between atoms: C_6  and  C_7 
REMARK    6  A    between atoms: C_7  and  C_8 
REMARK    7  A    between atoms: C_8  and  C_9 
REMARK    8  A    between atoms: C_10  and  C_11 
REMARK    9  A    between atoms: C_11  and  C_12 
REMARK   10  A    between atoms: C_12  and  C_13 
REMARK   11  A    between atoms: C_13  and  C_14 
REMARK   12  A    between atoms: C_14  and  C_15 
REMARK   13  A    between atoms: C_15  and  C_16 
REMARK   14  A    between atoms: C_16  and  C_17 
REMARK   15  A    between atoms: C_17  and  C_18 
REMARK   16  A    between atoms: C_18  and  O_20 
REMARK   17  A    between atoms: O_20  and  C_21 
REMARK   18  A    between atoms: C_21  and  C_22 
REMARK   19  A    between atoms: C_22  and  C_23 
REMARK   20  A    between atoms: C_22  and  C_25 
REMARK   21  A    between atoms: C_25  and  C_26 
REMARK   22  A    between atoms: C_26  and  C_27 
ROOT
HETATM    1  C   UNL     1     -22.302  -6.362  -1.961  1.00  0.00     0.000 C 
ENDROOT
BRANCH   1   2
HETATM    2  C   UNL     1     -21.754  -7.107  -0.747  1.00  0.00     0.000 C 
BRANCH   2   3
HETATM    3  C   UNL     1     -22.727  -8.179  -0.266  1.00  0.00     0.004 C 
BRANCH   3   4
HETATM    4  C   UNL     1     -22.018  -9.519  -0.084  1.00  0.00     0.027 C 
BRANCH   4   5
HETATM    5  C   UNL     1     -20.848  -9.633  -0.994  1.00  0.00    -0.031 C 
HETATM    6  C   UNL     1     -20.877 -10.376  -2.106  1.00  0.00    -0.031 C 
BRANCH   6   7
HETATM    7  C   UNL     1     -19.708 -10.490  -3.021  1.00  0.00     0.027 C 
BRANCH   7   8
HETATM    8  C   UNL     1     -18.671  -9.428  -2.693  1.00  0.00     0.004 C 
BRANCH   8   9
HETATM    9  C   UNL     1     -17.304 -10.071  -2.527  1.00  0.00     0.000 C 
BRANCH   9  10
HETATM   10  C   UNL     1     -16.321  -9.482  -3.524  1.00  0.00     0.000 C 
BRANCH  10  11
HETATM   11  C   UNL     1     -16.387 -10.242  -4.839  1.00  0.00     0.000 C 
BRANCH  11  12
HETATM   12  C   UNL     1     -15.053 -10.916  -5.125  1.00  0.00    -0.000 C 
BRANCH  12  13
HETATM   13  C   UNL     1     -15.098 -12.385  -4.722  1.00  0.00    -0.005 C 
HETATM   14  C   UNL     1     -14.390 -12.593  -3.396  1.00  0.00     0.005 C 
ENDBRANCH  12  13
ENDBRANCH  11  12
ENDBRANCH  10  11
ENDBRANCH   9  10
ENDBRANCH   8   9
ENDBRANCH   7   8
ENDBRANCH   6   7
ENDBRANCH   4   5
ENDBRANCH   3   4
ENDBRANCH   2   3
ENDBRANCH   1   2
BRANCH   1  15
HETATM   15  C   UNL     1     -21.278  -6.305  -3.080  1.00  0.00     0.000 C 
BRANCH  15  16
HETATM   16  C   UNL     1     -21.559  -7.413  -4.089  1.00  0.00     0.010 C 
BRANCH  16  17
HETATM   17  C   UNL     1     -21.149  -7.025  -5.501  1.00  0.00     0.111 C 
BRANCH  17  18
HETATM   18  C   UNL     1     -21.886  -5.771  -5.929  1.00  0.00     0.258 C 
HETATM   19  O   UNL     1     -23.071  -5.546  -5.770  1.00  0.00    -0.265 OA
BRANCH  18  20
HETATM   20  O   UNL     1     -21.034  -4.971  -6.643  1.00  0.00    -0.321 OA
BRANCH  20  21
HETATM   21  C   UNL     1     -21.698  -3.867  -7.258  1.00  0.00     0.183 C 
BRANCH  21  22
HETATM   22  C   UNL     1     -21.642  -3.883  -8.797  1.00  0.00     0.010 C 
BRANCH  22  23
HETATM   23  C   UNL     1     -20.285  -4.398  -9.326  1.00  0.00     0.002 C 
HETATM   24  C   UNL     1     -20.212  -4.513 -10.844  1.00  0.00     0.005 C 
ENDBRANCH  22  23
BRANCH  22  25
HETATM   25  C   UNL     1     -22.804  -4.723  -9.380  1.00  0.00     0.007 C 
BRANCH  25  26
HETATM   26  C   UNL     1     -24.068  -3.898  -9.615  1.00  0.00     0.000 C 
BRANCH  26  27
HETATM   27  C   UNL     1     -24.072  -3.240 -10.988  1.00  0.00    -0.005 C 
HETATM   28  C   UNL     1     -23.664  -4.251 -12.046  1.00  0.00     0.005 C 
ENDBRANCH  26  27
ENDBRANCH  25  26
ENDBRANCH  22  25
ENDBRANCH  21  22
ENDBRANCH  20  21
ENDBRANCH  18  20
ENDBRANCH  17  18
ENDBRANCH  16  17
ENDBRANCH  15  16
ENDBRANCH   1  15
TORSDOF 22
ENDMDL
MODEL 8
REMARK VINA RESULT:      -5.9      2.731      8.237
REMARK  22 active torsions:
REMARK  status: ('A' for Active; 'I' for Inactive)
REMARK    1  A    between atoms: C_2  and  C_3 
REMARK    2  A    between atoms: C_3  and  C_4 
REMARK    3  A    between atoms: C_4  and  C_5 
REMARK    4  A    between atoms: C_5  and  C_6 
REMARK    5  A    between atoms: C_6  and  C_7 
REMARK    6  A    between atoms: C_7  and  C_8 
REMARK    7  A    between atoms: C_8  and  C_9 
REMARK    8  A    between atoms: C_10  and  C_11 
REMARK    9  A    between atoms: C_11  and  C_12 
REMARK   10  A    between atoms: C_12  and  C_13 
REMARK   11  A    between atoms: C_13  and  C_14 
REMARK   12  A    between atoms: C_14  and  C_15 
REMARK   13  A    between atoms: C_15  and  C_16 
REMARK   14  A    between atoms: C_16  and  C_17 
REMARK   15  A    between atoms: C_17  and  C_18 
REMARK   16  A    between atoms: C_18  and  O_20 
REMARK   17  A    between atoms: O_20  and  C_21 
REMARK   18  A    between atoms: C_21  and  C_22 
REMARK   19  A    between atoms: C_22  and  C_23 
REMARK   20  A    between atoms: C_22  and  C_25 
REMARK   21  A    between atoms: C_25  and  C_26 
REMARK   22  A    between atoms: C_26  and  C_27 
ROOT
HETATM    1  C   UNL     1     -22.140  -8.225   0.261  1.00  0.00     0.000 C 
ENDROOT
BRANCH   1   2
HETATM    2  C   UNL     1     -22.387  -7.042  -0.672  1.00  0.00     0.000 C 
BRANCH   2   3
HETATM    3  C   UNL     1     -21.768  -7.278  -2.045  1.00  0.00     0.004 C 
BRANCH   3   4
HETATM    4  C   UNL     1     -21.673  -5.974  -2.834  1.00  0.00     0.027 C 
BRANCH   4   5
HETATM    5  C   UNL     1     -21.398  -6.237  -4.271  1.00  0.00    -0.031 C 
HETATM    6  C   UNL     1     -20.560  -5.480  -4.988  1.00  0.00    -0.031 C 
BRANCH   6   7
HETATM    7  C   UNL     1     -20.279  -5.743  -6.427  1.00  0.00     0.027 C 
BRANCH   7   8
HETATM    8  C   UNL     1     -20.169  -4.435  -7.194  1.00  0.00     0.004 C 
BRANCH   8   9
HETATM    9  C   UNL     1     -21.509  -3.719  -7.194  1.00  0.00     0.000 C 
BRANCH   9  10
HETATM   10  C   UNL     1     -22.450  -4.363  -8.198  1.00  0.00     0.000 C 
BRANCH  10  11
HETATM   11  C   UNL     1     -22.473  -3.558  -9.488  1.00  0.00     0.000 C 
BRANCH  11  12
HETATM   12  C   UNL     1     -21.876  -4.371 -10.626  1.00  0.00    -0.000 C 
BRANCH  12  13
HETATM   13  C   UNL     1     -21.752  -3.522 -11.885  1.00  0.00    -0.005 C 
HETATM   14  C   UNL     1     -23.104  -2.964 -12.284  1.00  0.00     0.005 C 
ENDBRANCH  12  13
ENDBRANCH  11  12
ENDBRANCH  10  11
ENDBRANCH   9  10
ENDBRANCH   8   9
ENDBRANCH   7   8
ENDBRANCH   6   7
ENDBRANCH   4   5
ENDBRANCH   3   4
ENDBRANCH   2   3
ENDBRANCH   1   2
BRANCH   1  15
HETATM   15  C   UNL     1     -22.994  -9.419  -0.126  1.00  0.00     0.000 C 
BRANCH  15  16
HETATM   16  C   UNL     1     -22.143 -10.683  -0.113  1.00  0.00     0.010 C 
BRANCH  16  17
HETATM   17  C   UNL     1     -21.165 -10.732  -1.278  1.00  0.00     0.111 C 
BRANCH  17  18
HETATM   18  C   UNL     1     -19.796 -11.163  -0.787  1.00  0.00     0.258 C 
HETATM   19  O   UNL     1     -19.549 -11.676   0.287  1.00  0.00    -0.265 OA
BRANCH  18  20
HETATM   20  O   UNL     1     -18.850 -10.768  -1.696  1.00  0.00    -0.321 OA
BRANCH  20  21
HETATM   21  C   UNL     1     -19.225  -9.585  -2.404  1.00  0.00     0.183 C 
BRANCH  21  22
HETATM   22  C   UNL     1     -18.282  -9.230  -3.568  1.00  0.00     0.010 C 
BRANCH  22  23
HETATM   23  C   UNL     1     -17.162 -10.277  -3.751  1.00  0.00     0.002 C 
HETATM   24  C   UNL     1     -16.299 -10.056  -4.988  1.00  0.00     0.005 C 
ENDBRANCH  22  23
BRANCH  22  25
HETATM   25  C   UNL     1     -19.077  -9.052  -4.884  1.00  0.00     0.007 C 
BRANCH  25  26
HETATM   26  C   UNL     1     -20.417  -9.785  -4.869  1.00  0.00     0.000 C 
BRANCH  26  27
HETATM   27  C   UNL     1     -20.348 -11.114  -5.611  1.00  0.00    -0.005 C 
HETATM   28  C   UNL     1     -21.708 -11.790  -5.585  1.00  0.00     0.005 C 
ENDBRANCH  26  27
ENDBRANCH  25  26
ENDBRANCH  22  25
ENDBRANCH  21  22
ENDBRANCH  20  21
ENDBRANCH  18  20
ENDBRANCH  17  18
ENDBRANCH  16  17
ENDBRANCH  15  16
ENDBRANCH   1  15
TORSDOF 22
ENDMDL
MODEL 9
REMARK VINA RESULT:      -5.9      2.890      9.556
REMARK  22 active torsions:
REMARK  status: ('A' for Active; 'I' for Inactive)
REMARK    1  A    between atoms: C_2  and  C_3 
REMARK    2  A    between atoms: C_3  and  C_4 
REMARK    3  A    between atoms: C_4  and  C_5 
REMARK    4  A    between atoms: C_5  and  C_6 
REMARK    5  A    between atoms: C_6  and  C_7 
REMARK    6  A    between atoms: C_7  and  C_8 
REMARK    7  A    between atoms: C_8  and  C_9 
REMARK    8  A    between atoms: C_10  and  C_11 
REMARK    9  A    between atoms: C_11  and  C_12 
REMARK   10  A    between atoms: C_12  and  C_13 
REMARK   11  A    between atoms: C_13  and  C_14 
REMARK   12  A    between atoms: C_14  and  C_15 
REMARK   13  A    between atoms: C_15  and  C_16 
REMARK   14  A    between atoms: C_16  and  C_17 
REMARK   15  A    between atoms: C_17  and  C_18 
REMARK   16  A    between atoms: C_18  and  O_20 
REMARK   17  A    between atoms: O_20  and  C_21 
REMARK   18  A    between atoms: C_21  and  C_22 
REMARK   19  A    between atoms: C_22  and  C_23 
REMARK   20  A    between atoms: C_22  and  C_25 
REMARK   21  A    between atoms: C_25  and  C_26 
REMARK   22  A    between atoms: C_26  and  C_27 
ROOT
HETATM    1  C   UNL     1     -21.071 -10.906  -5.005  1.00  0.00     0.000 C 
ENDROOT
BRANCH   1   2
HETATM    2  C   UNL     1     -21.394  -9.429  -5.220  1.00  0.00     0.000 C 
BRANCH   2   3
HETATM    3  C   UNL     1     -20.733  -8.555  -4.160  1.00  0.00     0.004 C 
BRANCH   3   4
HETATM    4  C   UNL     1     -20.996  -7.076  -4.430  1.00  0.00     0.027 C 
BRANCH   4   5
HETATM    5  C   UNL     1     -20.198  -6.593  -5.589  1.00  0.00    -0.031 C 
HETATM    6  C   UNL     1     -20.111  -5.297  -5.906  1.00  0.00    -0.031 C 
BRANCH   6   7
HETATM    7  C   UNL     1     -19.309  -4.810  -7.062  1.00  0.00     0.027 C 
BRANCH   7   8
HETATM    8  C   UNL     1     -20.170  -3.967  -7.988  1.00  0.00     0.004 C 
BRANCH   8   9
HETATM    9  C   UNL     1     -21.459  -3.574  -7.283  1.00  0.00     0.000 C 
BRANCH   9  10
HETATM   10  C   UNL     1     -22.658  -4.144  -8.023  1.00  0.00     0.000 C 
BRANCH  10  11
HETATM   11  C   UNL     1     -22.251  -4.594  -9.417  1.00  0.00     0.000 C 
BRANCH  11  12
HETATM   12  C   UNL     1     -23.242  -4.075 -10.447  1.00  0.00    -0.000 C 
BRANCH  12  13
HETATM   13  C   UNL     1     -22.536  -3.207 -11.481  1.00  0.00    -0.005 C 
HETATM   14  C   UNL     1     -21.047  -3.495 -11.489  1.00  0.00     0.005 C 
ENDBRANCH  12  13
ENDBRANCH  11  12
ENDBRANCH  10  11
ENDBRANCH   9  10
ENDBRANCH   8   9
ENDBRANCH   7   8
ENDBRANCH   6   7
ENDBRANCH   4   5
ENDBRANCH   3   4
ENDBRANCH   2   3
ENDBRANCH   1   2
BRANCH   1  15
HETATM   15  C   UNL     1     -22.289 -11.670  -4.517  1.00  0.00     0.000 C 
BRANCH  15  16
HETATM   16  C   UNL     1     -22.135 -11.988  -3.035  1.00  0.00     0.010 C 
BRANCH  16  17
HETATM   17  C   UNL     1     -23.125 -11.217  -2.174  1.00  0.00     0.111 C 
BRANCH  17  18
HETATM   18  C   UNL     1     -23.507 -12.042  -0.960  1.00  0.00     0.258 C 
HETATM   19  O   UNL     1     -24.225 -13.023  -0.958  1.00  0.00    -0.265 OA
BRANCH  18  20
HETATM   20  O   UNL     1     -23.020 -11.433   0.166  1.00  0.00    -0.321 OA
BRANCH  20  21
HETATM   21  C   UNL     1     -21.789 -12.004   0.612  1.00  0.00     0.183 C 
BRANCH  21  22
HETATM   22  C   UNL     1     -20.621 -11.002   0.669  1.00  0.00     0.010 C 
BRANCH  22  23
HETATM   23  C   UNL     1     -19.698 -11.112  -0.565  1.00  0.00     0.002 C 
HETATM   24  C   UNL     1     -19.234 -12.530  -0.872  1.00  0.00     0.005 C 
ENDBRANCH  22  23
BRANCH  22  25
HETATM   25  C   UNL     1     -21.145  -9.555   0.826  1.00  0.00     0.007 C 
BRANCH  25  26
HETATM   26  C   UNL     1     -21.014  -8.737  -0.458  1.00  0.00     0.000 C 
BRANCH  26  27
HETATM   27  C   UNL     1     -22.182  -7.776  -0.643  1.00  0.00    -0.005 C 
HETATM   28  C   UNL     1     -23.192  -7.971   0.475  1.00  0.00     0.005 C 
ENDBRANCH  26  27
ENDBRANCH  25  26
ENDBRANCH  22  25
ENDBRANCH  21  22
ENDBRANCH  20  21
ENDBRANCH  18  20
ENDBRANCH  17  18
ENDBRANCH  16  17
ENDBRANCH  15  16
ENDBRANCH   1  15
TORSDOF 22
ENDMDL
