MODEL 1
REMARK VINA RESULT:      -7.0      0.000      0.000
REMARK  6 active torsions:
REMARK  status: ('A' for Active; 'I' for Inactive)
REMARK    1  A    between atoms: C_3  and  N_11 
REMARK    2  A    between atoms: C_4  and  N_8 
REMARK    3  A    between atoms: C_6  and  N_7 
REMARK    4  A    between atoms: N_11  and  C_12 
REMARK    5  A    between atoms: C_12  and  C_13 
REMARK    6  A    between atoms: C_13  and  O_14 
ROOT
HETATM    1  C   UNL     1     -20.509  -3.515 -10.930  1.00  0.00     0.025 A 
HETATM    2  C   UNL     1     -21.456  -2.916 -11.770  1.00  0.00     0.028 A 
HETATM    3  C   UNL     1     -22.841  -3.063 -11.574  1.00  0.00     0.041 A 
HETATM    4  C   UNL     1     -23.227  -3.768 -10.406  1.00  0.00     0.125 A 
HETATM    5  C   UNL     1     -22.262  -4.366  -9.557  1.00  0.00     0.061 A 
HETATM    6  C   UNL     1     -20.904  -4.294  -9.853  1.00  0.00     0.008 A 
ENDROOT
BRANCH   3   7
HETATM    7  N   UNL     1     -23.738  -2.393 -12.448  1.00  0.00    -0.289 NA
HETATM    8  H   UNL     1     -24.708  -2.488 -12.118  1.00  0.00     0.127 HD
BRANCH   7   9
HETATM    9  C   UNL     1     -23.598  -2.700 -13.888  1.00  0.00     0.118 C 
BRANCH   9  10
HETATM   10  C   UNL     1     -23.638  -1.432 -14.748  1.00  0.00     0.178 C 
BRANCH  10  11
HETATM   11  O   UNL     1     -24.855  -0.720 -14.537  1.00  0.00    -0.400 OA
HETATM   12  H   UNL     1     -25.141  -0.414 -15.419  1.00  0.00     0.209 HD
ENDBRANCH  10  11
ENDBRANCH   9  10
ENDBRANCH   7   9
ENDBRANCH   3   7
BRANCH   4  13
HETATM   13  N   UNL     1     -24.639  -3.948 -10.028  1.00  0.00    -0.114 N 
HETATM   14  O   UNL     1     -25.393  -2.962 -10.071  1.00  0.00    -0.532 OA
HETATM   15  O   UNL     1     -25.017  -5.089  -9.713  1.00  0.00    -0.532 OA
ENDBRANCH   4  13
BRANCH   6  16
HETATM   16  N   UNL     1     -19.948  -4.776  -8.954  1.00  0.00    -0.303 NA
HETATM   17  H   UNL     1     -19.231  -4.103  -8.699  1.00  0.00     0.124 HD
HETATM   18  H   UNL     1     -20.337  -5.253  -8.147  1.00  0.00     0.124 HD
ENDBRANCH   6  16
TORSDOF 6
ENDMDL
MODEL 2
REMARK VINA RESULT:      -6.6      2.406      3.074
REMARK  6 active torsions:
REMARK  status: ('A' for Active; 'I' for Inactive)
REMARK    1  A    between atoms: C_3  and  N_11 
REMARK    2  A    between atoms: C_4  and  N_8 
REMARK    3  A    between atoms: C_6  and  N_7 
REMARK    4  A    between atoms: N_11  and  C_12 
REMARK    5  A    between atoms: C_12  and  C_13 
REMARK    6  A    between atoms: C_13  and  O_14 
ROOT
HETATM    1  C   UNL     1     -24.561  -3.562  -9.487  1.00  0.00     0.025 A 
HETATM    2  C   UNL     1     -24.296  -3.215 -10.818  1.00  0.00     0.028 A 
HETATM    3  C   UNL     1     -22.994  -3.191 -11.348  1.00  0.00     0.041 A 
HETATM    4  C   UNL     1     -21.968  -3.647 -10.483  1.00  0.00     0.125 A 
HETATM    5  C   UNL     1     -22.245  -4.003  -9.139  1.00  0.00     0.061 A 
HETATM    6  C   UNL     1     -23.533  -3.901  -8.621  1.00  0.00     0.008 A 
ENDROOT
BRANCH   3   7
HETATM    7  N   UNL     1     -22.811  -2.865 -12.718  1.00  0.00    -0.289 NA
HETATM    8  H   UNL     1     -22.087  -2.142 -12.828  1.00  0.00     0.127 HD
BRANCH   7   9
HETATM    9  C   UNL     1     -24.038  -2.560 -13.486  1.00  0.00     0.118 C 
BRANCH   9  10
HETATM   10  C   UNL     1     -23.776  -1.539 -14.598  1.00  0.00     0.178 C 
BRANCH  10  11
HETATM   11  O   UNL     1     -24.840  -0.593 -14.673  1.00  0.00    -0.400 OA
HETATM   12  H   UNL     1     -25.664  -1.113 -14.612  1.00  0.00     0.209 HD
ENDBRANCH  10  11
ENDBRANCH   9  10
ENDBRANCH   7   9
ENDBRANCH   3   7
BRANCH   4  13
HETATM   13  N   UNL     1     -20.563  -3.746 -10.913  1.00  0.00    -0.114 N 
HETATM   14  O   UNL     1     -20.034  -2.751 -11.437  1.00  0.00    -0.532 OA
HETATM   15  O   UNL     1     -19.962  -4.812 -10.701  1.00  0.00    -0.532 OA
ENDBRANCH   4  13
BRANCH   6  16
HETATM   16  N   UNL     1     -23.828  -4.366  -7.337  1.00  0.00    -0.303 NA
HETATM   17  H   UNL     1     -24.287  -3.687  -6.737  1.00  0.00     0.124 HD
HETATM   18  H   UNL     1     -24.285  -5.273  -7.315  1.00  0.00     0.124 HD
ENDBRANCH   6  16
TORSDOF 6
ENDMDL
MODEL 3
REMARK VINA RESULT:      -6.5      1.576      2.093
REMARK  6 active torsions:
REMARK  status: ('A' for Active; 'I' for Inactive)
REMARK    1  A    between atoms: C_3  and  N_11 
REMARK    2  A    between atoms: C_4  and  N_8 
REMARK    3  A    between atoms: C_6  and  N_7 
REMARK    4  A    between atoms: N_11  and  C_12 
REMARK    5  A    between atoms: C_12  and  C_13 
REMARK    6  A    between atoms: C_13  and  O_14 
ROOT
HETATM    1  C   UNL     1     -20.092  -4.392  -8.870  1.00  0.00     0.025 A 
HETATM    2  C   UNL     1     -20.520  -4.419 -10.203  1.00  0.00     0.028 A 
HETATM    3  C   UNL     1     -21.877  -4.344 -10.564  1.00  0.00     0.041 A 
HETATM    4  C   UNL     1     -22.787  -4.127  -9.498  1.00  0.00     0.125 A 
HETATM    5  C   UNL     1     -22.345  -4.094  -8.151  1.00  0.00     0.061 A 
HETATM    6  C   UNL     1     -21.004  -4.289  -7.831  1.00  0.00     0.008 A 
ENDROOT
BRANCH   3   7
HETATM    7  N   UNL     1     -22.229  -4.342 -11.940  1.00  0.00    -0.289 NA
HETATM    8  H   UNL     1     -21.585  -4.932 -12.482  1.00  0.00     0.127 HD
BRANCH   7   9
HETATM    9  C   UNL     1     -22.436  -3.014 -12.557  1.00  0.00     0.118 C 
BRANCH   9  10
HETATM   10  C   UNL     1     -23.758  -2.943 -13.329  1.00  0.00     0.178 C 
BRANCH  10  11
HETATM   11  O   UNL     1     -23.618  -3.531 -14.620  1.00  0.00    -0.400 OA
HETATM   12  H   UNL     1     -24.417  -3.272 -15.119  1.00  0.00     0.209 HD
ENDBRANCH  10  11
ENDBRANCH   9  10
ENDBRANCH   7   9
ENDBRANCH   3   7
BRANCH   4  13
HETATM   13  N   UNL     1     -24.233  -3.960  -9.721  1.00  0.00    -0.114 N 
HETATM   14  O   UNL     1     -24.897  -4.951 -10.068  1.00  0.00    -0.532 OA
HETATM   15  O   UNL     1     -24.727  -2.838  -9.519  1.00  0.00    -0.532 OA
ENDBRANCH   4  13
BRANCH   6  16
HETATM   16  N   UNL     1     -20.551  -4.134  -6.518  1.00  0.00    -0.303 NA
HETATM   17  H   UNL     1     -19.735  -3.537  -6.421  1.00  0.00     0.124 HD
HETATM   18  H   UNL     1     -21.280  -3.907  -5.849  1.00  0.00     0.124 HD
ENDBRANCH   6  16
TORSDOF 6
ENDMDL
MODEL 4
REMARK VINA RESULT:      -6.5      1.959      4.595
REMARK  6 active torsions:
REMARK  status: ('A' for Active; 'I' for Inactive)
REMARK    1  A    between atoms: C_3  and  N_11 
REMARK    2  A    between atoms: C_4  and  N_8 
REMARK    3  A    between atoms: C_6  and  N_7 
REMARK    4  A    between atoms: N_11  and  C_12 
REMARK    5  A    between atoms: C_12  and  C_13 
REMARK    6  A    between atoms: C_13  and  O_14 
ROOT
HETATM    1  C   UNL     1     -22.084  -3.230 -13.095  1.00  0.00     0.025 A 
HETATM    2  C   UNL     1     -21.679  -3.791 -11.877  1.00  0.00     0.028 A 
HETATM    3  C   UNL     1     -22.562  -3.981 -10.800  1.00  0.00     0.041 A 
HETATM    4  C   UNL     1     -23.922  -3.672 -11.057  1.00  0.00     0.125 A 
HETATM    5  C   UNL     1     -24.326  -3.112 -12.294  1.00  0.00     0.061 A 
HETATM    6  C   UNL     1     -23.397  -2.832 -13.292  1.00  0.00     0.008 A 
ENDROOT
BRANCH   3   7
HETATM    7  N   UNL     1     -22.083  -4.590  -9.610  1.00  0.00    -0.289 NA
HETATM    8  H   UNL     1     -22.550  -5.491  -9.446  1.00  0.00     0.127 HD
BRANCH   7   9
HETATM    9  C   UNL     1     -22.061  -3.735  -8.402  1.00  0.00     0.118 C 
BRANCH   9  10
HETATM   10  C   UNL     1     -22.496  -4.505  -7.151  1.00  0.00     0.178 C 
BRANCH  10  11
HETATM   11  O   UNL     1     -23.889  -4.326  -6.909  1.00  0.00    -0.400 OA
HETATM   12  H   UNL     1     -23.954  -3.632  -6.225  1.00  0.00     0.209 HD
ENDBRANCH  10  11
ENDBRANCH   9  10
ENDBRANCH   7   9
ENDBRANCH   3   7
BRANCH   4  13
HETATM   13  N   UNL     1     -24.979  -3.881 -10.052  1.00  0.00    -0.114 N 
HETATM   14  O   UNL     1     -25.095  -5.008  -9.542  1.00  0.00    -0.532 OA
HETATM   15  O   UNL     1     -25.685  -2.908  -9.738  1.00  0.00    -0.532 OA
ENDBRANCH   4  13
BRANCH   6  16
HETATM   16  N   UNL     1     -23.810  -2.395 -14.554  1.00  0.00    -0.303 NA
HETATM   17  H   UNL     1     -24.738  -2.708 -14.826  1.00  0.00     0.124 HD
HETATM   18  H   UNL     1     -23.672  -1.403 -14.719  1.00  0.00     0.124 HD
ENDBRANCH   6  16
TORSDOF 6
ENDMDL
MODEL 5
REMARK VINA RESULT:      -6.1     11.622     12.876
REMARK  6 active torsions:
REMARK  status: ('A' for Active; 'I' for Inactive)
REMARK    1  A    between atoms: C_3  and  N_11 
REMARK    2  A    between atoms: C_4  and  N_8 
REMARK    3  A    between atoms: C_6  and  N_7 
REMARK    4  A    between atoms: N_11  and  C_12 
REMARK    5  A    between atoms: C_12  and  C_13 
REMARK    6  A    between atoms: C_13  and  O_14 
ROOT
HETATM    1  C   UNL     1     -33.686  -3.172 -10.643  1.00  0.00     0.025 A 
HETATM    2  C   UNL     1     -34.403  -1.998 -10.377  1.00  0.00     0.028 A 
HETATM    3  C   UNL     1     -35.033  -1.251 -11.388  1.00  0.00     0.041 A 
HETATM    4  C   UNL     1     -34.993  -1.817 -12.688  1.00  0.00     0.125 A 
HETATM    5  C   UNL     1     -34.271  -3.009 -12.947  1.00  0.00     0.061 A 
HETATM    6  C   UNL     1     -33.564  -3.654 -11.936  1.00  0.00     0.008 A 
ENDROOT
BRANCH   3   7
HETATM    7  N   UNL     1     -35.772  -0.092 -11.034  1.00  0.00    -0.289 NA
HETATM    8  H   UNL     1     -35.150   0.639 -10.663  1.00  0.00     0.127 HD
BRANCH   7   9
HETATM    9  C   UNL     1     -36.960  -0.311 -10.180  1.00  0.00     0.118 C 
BRANCH   9  10
HETATM   10  C   UNL     1     -37.315   0.937  -9.364  1.00  0.00     0.178 C 
BRANCH  10  11
HETATM   11  O   UNL     1     -36.177   1.410  -8.648  1.00  0.00    -0.400 OA
HETATM   12  H   UNL     1     -36.362   1.234  -7.706  1.00  0.00     0.209 HD
ENDBRANCH  10  11
ENDBRANCH   9  10
ENDBRANCH   7   9
ENDBRANCH   3   7
BRANCH   4  13
HETATM   13  N   UNL     1     -35.664  -1.190 -13.839  1.00  0.00    -0.114 N 
HETATM   14  O   UNL     1     -36.873  -0.920 -13.744  1.00  0.00    -0.532 OA
HETATM   15  O   UNL     1     -34.978  -0.929 -14.841  1.00  0.00    -0.532 OA
ENDBRANCH   4  13
BRANCH   6  16
HETATM   16  N   UNL     1     -32.956  -4.892 -12.165  1.00  0.00    -0.303 NA
HETATM   17  H   UNL     1     -33.340  -5.658 -11.618  1.00  0.00     0.124 HD
HETATM   18  H   UNL     1     -32.850  -5.131 -13.146  1.00  0.00     0.124 HD
ENDBRANCH   6  16
TORSDOF 6
ENDMDL
MODEL 6
REMARK VINA RESULT:      -5.8      2.344      5.128
REMARK  6 active torsions:
REMARK  status: ('A' for Active; 'I' for Inactive)
REMARK    1  A    between atoms: C_3  and  N_11 
REMARK    2  A    between atoms: C_4  and  N_8 
REMARK    3  A    between atoms: C_6  and  N_7 
REMARK    4  A    between atoms: N_11  and  C_12 
REMARK    5  A    between atoms: C_12  and  C_13 
REMARK    6  A    between atoms: C_13  and  O_14 
ROOT
HETATM    1  C   UNL     1     -20.780  -3.748 -11.705  1.00  0.00     0.025 A 
HETATM    2  C   UNL     1     -20.590  -3.964 -10.334  1.00  0.00     0.028 A 
HETATM    3  C   UNL     1     -21.636  -3.859  -9.400  1.00  0.00     0.041 A 
HETATM    4  C   UNL     1     -22.926  -3.629  -9.942  1.00  0.00     0.125 A 
HETATM    5  C   UNL     1     -23.111  -3.419 -11.332  1.00  0.00     0.061 A 
HETATM    6  C   UNL     1     -22.029  -3.416 -12.207  1.00  0.00     0.008 A 
ENDROOT
BRANCH   3   7
HETATM    7  N   UNL     1     -21.371  -4.129  -8.031  1.00  0.00    -0.289 NA
HETATM    8  H   UNL     1     -21.140  -3.263  -7.526  1.00  0.00     0.127 HD
BRANCH   7   9
HETATM    9  C   UNL     1     -20.410  -5.219  -7.755  1.00  0.00     0.118 C 
BRANCH   9  10
HETATM   10  C   UNL     1     -20.958  -6.216  -6.729  1.00  0.00     0.178 C 
BRANCH  10  11
HETATM   11  O   UNL     1     -19.944  -7.136  -6.331  1.00  0.00    -0.400 OA
HETATM   12  H   UNL     1     -20.116  -7.956  -6.832  1.00  0.00     0.209 HD
ENDBRANCH  10  11
ENDBRANCH   9  10
ENDBRANCH   7   9
ENDBRANCH   3   7
BRANCH   4  13
HETATM   13  N   UNL     1     -24.132  -3.562  -9.100  1.00  0.00    -0.114 N 
HETATM   14  O   UNL     1     -25.094  -2.882  -9.496  1.00  0.00    -0.532 OA
HETATM   15  O   UNL     1     -24.142  -4.217  -8.044  1.00  0.00    -0.532 OA
ENDBRANCH   4  13
BRANCH   6  16
HETATM   16  N   UNL     1     -22.225  -3.331 -13.588  1.00  0.00    -0.303 NA
HETATM   17  H   UNL     1     -22.066  -2.407 -13.981  1.00  0.00     0.124 HD
HETATM   18  H   UNL     1     -21.766  -4.063 -14.121  1.00  0.00     0.124 HD
ENDBRANCH   6  16
TORSDOF 6
ENDMDL
MODEL 7
REMARK VINA RESULT:      -5.8     11.812     13.381
REMARK  6 active torsions:
REMARK  status: ('A' for Active; 'I' for Inactive)
REMARK    1  A    between atoms: C_3  and  N_11 
REMARK    2  A    between atoms: C_4  and  N_8 
REMARK    3  A    between atoms: C_6  and  N_7 
REMARK    4  A    between atoms: N_11  and  C_12 
REMARK    5  A    between atoms: C_12  and  C_13 
REMARK    6  A    between atoms: C_13  and  O_14 
ROOT
HETATM    1  C   UNL     1     -36.307  -1.304 -10.294  1.00  0.00     0.025 A 
HETATM    2  C   UNL     1     -35.442  -2.218 -10.910  1.00  0.00     0.028 A 
HETATM    3  C   UNL     1     -35.058  -2.104 -12.258  1.00  0.00     0.041 A 
HETATM    4  C   UNL     1     -35.512  -0.942 -12.933  1.00  0.00     0.125 A 
HETATM    5  C   UNL     1     -36.381  -0.019 -12.300  1.00  0.00     0.061 A 
HETATM    6  C   UNL     1     -36.830  -0.232 -11.000  1.00  0.00     0.008 A 
ENDROOT
BRANCH   3   7
HETATM    7  N   UNL     1     -34.148  -3.050 -12.801  1.00  0.00    -0.289 NA
HETATM    8  H   UNL     1     -34.449  -3.352 -13.737  1.00  0.00     0.127 HD
BRANCH   7   9
HETATM    9  C   UNL     1     -33.792  -4.188 -11.926  1.00  0.00     0.118 C 
BRANCH   9  10
HETATM   10  C   UNL     1     -34.729  -5.383 -12.133  1.00  0.00     0.178 C 
BRANCH  10  11
HETATM   11  O   UNL     1     -35.067  -5.524 -13.511  1.00  0.00    -0.400 OA
HETATM   12  H   UNL     1     -35.390  -4.648 -13.797  1.00  0.00     0.209 HD
ENDBRANCH  10  11
ENDBRANCH   9  10
ENDBRANCH   7   9
ENDBRANCH   3   7
BRANCH   4  13
HETATM   13  N   UNL     1     -35.139  -0.647 -14.326  1.00  0.00    -0.114 N 
HETATM   14  O   UNL     1     -34.589   0.440 -14.574  1.00  0.00    -0.532 OA
HETATM   15  O   UNL     1     -35.363  -1.515 -15.186  1.00  0.00    -0.532 OA
ENDBRANCH   4  13
BRANCH   6  16
HETATM   16  N   UNL     1     -37.586   0.737 -10.335  1.00  0.00    -0.303 NA
HETATM   17  H   UNL     1     -37.151   1.654 -10.290  1.00  0.00     0.124 HD
HETATM   18  H   UNL     1     -38.558   0.783 -10.627  1.00  0.00     0.124 HD
ENDBRANCH   6  16
TORSDOF 6
ENDMDL
MODEL 8
REMARK VINA RESULT:      -5.6     16.197     17.581
REMARK  6 active torsions:
REMARK  status: ('A' for Active; 'I' for Inactive)
REMARK    1  A    between atoms: C_3  and  N_11 
REMARK    2  A    between atoms: C_4  and  N_8 
REMARK    3  A    between atoms: C_6  and  N_7 
REMARK    4  A    between atoms: N_11  and  C_12 
REMARK    5  A    between atoms: C_12  and  C_13 
REMARK    6  A    between atoms: C_13  and  O_14 
ROOT
HETATM    1  C   UNL     1     -13.722   4.614 -20.884  1.00  0.00     0.025 A 
HETATM    2  C   UNL     1     -13.511   5.931 -20.457  1.00  0.00     0.028 A 
HETATM    3  C   UNL     1     -12.302   6.354 -19.876  1.00  0.00     0.041 A 
HETATM    4  C   UNL     1     -11.262   5.390 -19.846  1.00  0.00     0.125 A 
HETATM    5  C   UNL     1     -11.481   4.061 -20.287  1.00  0.00     0.061 A 
HETATM    6  C   UNL     1     -12.731   3.655 -20.747  1.00  0.00     0.008 A 
ENDROOT
BRANCH   3   7
HETATM    7  N   UNL     1     -12.153   7.716 -19.502  1.00  0.00    -0.289 NA
HETATM    8  H   UNL     1     -13.069   8.150 -19.329  1.00  0.00     0.127 HD
BRANCH   7   9
HETATM    9  C   UNL     1     -11.291   8.542 -20.376  1.00  0.00     0.118 C 
BRANCH   9  10
HETATM   10  C   UNL     1     -10.202   9.269 -19.582  1.00  0.00     0.178 C 
BRANCH  10  11
HETATM   11  O   UNL     1     -10.177   8.815 -18.231  1.00  0.00    -0.400 OA
HETATM   12  H   UNL     1      -9.338   8.325 -18.130  1.00  0.00     0.209 HD
ENDBRANCH  10  11
ENDBRANCH   9  10
ENDBRANCH   7   9
ENDBRANCH   3   7
BRANCH   4  13
HETATM   13  N   UNL     1      -9.918   5.700 -19.331  1.00  0.00    -0.114 N 
HETATM   14  O   UNL     1      -9.004   5.906 -20.148  1.00  0.00    -0.532 OA
HETATM   15  O   UNL     1      -9.769   5.775 -18.100  1.00  0.00    -0.532 OA
ENDBRANCH   4  13
BRANCH   6  16
HETATM   16  N   UNL     1     -12.913   2.382 -21.295  1.00  0.00    -0.303 NA
HETATM   17  H   UNL     1     -13.562   1.791 -20.782  1.00  0.00     0.124 HD
HETATM   18  H   UNL     1     -13.092   2.378 -22.294  1.00  0.00     0.124 HD
ENDBRANCH   6  16
TORSDOF 6
ENDMDL
MODEL 9
REMARK VINA RESULT:      -5.6      2.753      3.705
REMARK  6 active torsions:
REMARK  status: ('A' for Active; 'I' for Inactive)
REMARK    1  A    between atoms: C_3  and  N_11 
REMARK    2  A    between atoms: C_4  and  N_8 
REMARK    3  A    between atoms: C_6  and  N_7 
REMARK    4  A    between atoms: N_11  and  C_12 
REMARK    5  A    between atoms: C_12  and  C_13 
REMARK    6  A    between atoms: C_13  and  O_14 
ROOT
HETATM    1  C   UNL     1     -22.286  -4.662  -6.752  1.00  0.00     0.025 A 
HETATM    2  C   UNL     1     -23.091  -4.699  -7.897  1.00  0.00     0.028 A 
HETATM    3  C   UNL     1     -22.585  -4.460  -9.187  1.00  0.00     0.041 A 
HETATM    4  C   UNL     1     -21.180  -4.287  -9.275  1.00  0.00     0.125 A 
HETATM    5  C   UNL     1     -20.370  -4.258  -8.112  1.00  0.00     0.061 A 
HETATM    6  C   UNL     1     -20.931  -4.382  -6.844  1.00  0.00     0.008 A 
ENDROOT
BRANCH   3   7
HETATM    7  N   UNL     1     -23.459  -4.552 -10.302  1.00  0.00    -0.289 NA
HETATM    8  H   UNL     1     -22.960  -4.904 -11.130  1.00  0.00     0.127 HD
BRANCH   7   9
HETATM    9  C   UNL     1     -24.268  -3.349 -10.597  1.00  0.00     0.118 C 
BRANCH   9  10
HETATM   10  C   UNL     1     -24.353  -3.073 -12.102  1.00  0.00     0.178 C 
BRANCH  10  11
HETATM   11  O   UNL     1     -23.319  -2.181 -12.509  1.00  0.00    -0.400 OA
HETATM   12  H   UNL     1     -22.930  -1.829 -11.684  1.00  0.00     0.209 HD
ENDBRANCH  10  11
ENDBRANCH   9  10
ENDBRANCH   7   9
ENDBRANCH   3   7
BRANCH   4  13
HETATM   13  N   UNL     1     -20.491  -4.095 -10.562  1.00  0.00    -0.114 N 
HETATM   14  O   UNL     1     -20.822  -3.131 -11.273  1.00  0.00    -0.532 OA
HETATM   15  O   UNL     1     -19.585  -4.891 -10.862  1.00  0.00    -0.532 OA
ENDBRANCH   4  13
BRANCH   6  16
HETATM   16  N   UNL     1     -20.122  -4.476  -5.708  1.00  0.00    -0.303 NA
HETATM   17  H   UNL     1     -20.599  -4.284  -4.832  1.00  0.00     0.124 HD
HETATM   18  H   UNL     1     -19.558  -5.319  -5.665  1.00  0.00     0.124 HD
ENDBRANCH   6  16
TORSDOF 6
ENDMDL
