MODEL 1
REMARK VINA RESULT:      -6.1      0.000      0.000
REMARK  11 active torsions:
REMARK  status: ('A' for Active; 'I' for Inactive)
REMARK    1  A    between atoms: C_1  and  C_2 
REMARK    2  A    between atoms: C_1  and  O_13 
REMARK    3  A    between atoms: C_2  and  C_3 
REMARK    4  A    between atoms: C_2  and  O_12 
REMARK    5  A    between atoms: C_3  and  C_4 
REMARK    6  A    between atoms: C_3  and  O_11 
REMARK    7  A    between atoms: C_4  and  C_5 
REMARK    8  A    between atoms: C_4  and  O_10 
REMARK    9  A    between atoms: C_5  and  C_6 
REMARK   10  A    between atoms: C_5  and  O_9 
REMARK   11  A    between atoms: C_6  and  O_8 
ROOT
HETATM    1  C   UNL     1     -23.787  -3.605 -12.116  1.00  0.00     0.188 C 
ENDROOT
BRANCH   1   2
HETATM    2  C   UNL     1     -22.652  -2.928 -12.927  1.00  0.00     0.180 C 
BRANCH   2   3
HETATM    3  C   UNL     1     -22.956  -2.903 -14.437  1.00  0.00     0.173 C 
BRANCH   3   4
HETATM    4  C   UNL     1     -23.396  -1.513 -14.920  1.00  0.00     0.198 C 
BRANCH   4   5
HETATM    5  O   UNL     1     -24.710  -1.245 -14.425  1.00  0.00    -0.398 OA
HETATM    6  H   UNL     1     -24.915  -1.919 -13.754  1.00  0.00     0.209 HD
ENDBRANCH   4   5
ENDBRANCH   3   4
BRANCH   3   7
HETATM    7  O   UNL     1     -23.974  -3.876 -14.727  1.00  0.00    -0.391 OA
HETATM    8  H   UNL     1     -24.798  -3.552 -14.306  1.00  0.00     0.210 HD
ENDBRANCH   3   7
ENDBRANCH   2   3
BRANCH   2   9
HETATM    9  O   UNL     1     -21.403  -3.576 -12.694  1.00  0.00    -0.390 OA
HETATM   10  H   UNL     1     -21.505  -4.537 -12.825  1.00  0.00     0.210 HD
ENDBRANCH   2   9
ENDBRANCH   1   2
BRANCH   1  11
HETATM   11  C   UNL     1     -23.486  -3.653 -10.607  1.00  0.00     0.246 C 
BRANCH  11  12
HETATM   12  C   UNL     1     -24.788  -3.652  -9.798  1.00  0.00     0.172 C 
HETATM   13  O   UNL     1     -25.363  -2.642  -9.415  1.00  0.00    -0.648 OA
BRANCH  12  14
HETATM   14  O   UNL     1     -25.224  -4.898  -9.484  1.00  0.00    -0.774 OA
HETATM   15  H   UNL     1     -24.934  -5.555 -10.165  1.00  0.00     0.167 HD
ENDBRANCH  12  14
ENDBRANCH  11  12
BRANCH  11  16
HETATM   16  O   UNL     1     -22.700  -4.815 -10.313  1.00  0.00    -0.382 OA
HETATM   17  H   UNL     1     -21.775  -4.531 -10.200  1.00  0.00     0.210 HD
ENDBRANCH  11  16
ENDBRANCH   1  11
BRANCH   1  18
HETATM   18  O   UNL     1     -25.060  -2.941 -12.297  1.00  0.00    -0.390 OA
HETATM   19  H   UNL     1     -25.173  -2.350 -11.512  1.00  0.00     0.210 HD
ENDBRANCH   1  18
TORSDOF 11
ENDMDL
MODEL 2
REMARK VINA RESULT:      -5.9      1.358      4.734
REMARK  11 active torsions:
REMARK  status: ('A' for Active; 'I' for Inactive)
REMARK    1  A    between atoms: C_1  and  C_2 
REMARK    2  A    between atoms: C_1  and  O_13 
REMARK    3  A    between atoms: C_2  and  C_3 
REMARK    4  A    between atoms: C_2  and  O_12 
REMARK    5  A    between atoms: C_3  and  C_4 
REMARK    6  A    between atoms: C_3  and  O_11 
REMARK    7  A    between atoms: C_4  and  C_5 
REMARK    8  A    between atoms: C_4  and  O_10 
REMARK    9  A    between atoms: C_5  and  C_6 
REMARK   10  A    between atoms: C_5  and  O_9 
REMARK   11  A    between atoms: C_6  and  O_8 
ROOT
HETATM    1  C   UNL     1     -23.892  -2.743 -12.373  1.00  0.00     0.188 C 
ENDROOT
BRANCH   1   2
HETATM    2  C   UNL     1     -23.173  -3.553 -11.264  1.00  0.00     0.180 C 
BRANCH   2   3
HETATM    3  C   UNL     1     -23.948  -3.523  -9.932  1.00  0.00     0.173 C 
BRANCH   3   4
HETATM    4  C   UNL     1     -23.038  -3.782  -8.721  1.00  0.00     0.198 C 
BRANCH   4   5
HETATM    5  O   UNL     1     -23.848  -4.162  -7.606  1.00  0.00    -0.398 OA
HETATM    6  H   UNL     1     -24.672  -4.544  -7.957  1.00  0.00     0.209 HD
ENDBRANCH   4   5
ENDBRANCH   3   4
BRANCH   3   7
HETATM    7  O   UNL     1     -25.001  -4.500  -9.980  1.00  0.00    -0.391 OA
HETATM    8  H   UNL     1     -25.516  -4.397  -9.152  1.00  0.00     0.210 HD
ENDBRANCH   3   7
ENDBRANCH   2   3
BRANCH   2   9
HETATM    9  O   UNL     1     -21.845  -3.075 -11.062  1.00  0.00    -0.390 OA
HETATM   10  H   UNL     1     -21.843  -2.101 -11.081  1.00  0.00     0.210 HD
ENDBRANCH   2   9
ENDBRANCH   1   2
BRANCH   1  11
HETATM   11  C   UNL     1     -23.374  -3.085 -13.782  1.00  0.00     0.246 C 
BRANCH  11  12
HETATM   12  C   UNL     1     -23.604  -1.912 -14.740  1.00  0.00     0.172 C 
HETATM   13  O   UNL     1     -24.575  -1.169 -14.704  1.00  0.00    -0.648 OA
BRANCH  12  14
HETATM   14  O   UNL     1     -22.643  -1.802 -15.693  1.00  0.00    -0.774 OA
HETATM   15  H   UNL     1     -21.741  -1.890 -15.295  1.00  0.00     0.167 HD
ENDBRANCH  12  14
ENDBRANCH  11  12
BRANCH  11  16
HETATM   16  O   UNL     1     -21.983  -3.425 -13.710  1.00  0.00    -0.382 OA
HETATM   17  H   UNL     1     -21.806  -4.112 -14.378  1.00  0.00     0.210 HD
ENDBRANCH  11  16
ENDBRANCH   1  11
BRANCH   1  18
HETATM   18  O   UNL     1     -25.324  -2.951 -12.362  1.00  0.00    -0.390 OA
HETATM   19  H   UNL     1     -25.566  -3.231 -13.279  1.00  0.00     0.210 HD
ENDBRANCH   1  18
TORSDOF 11
ENDMDL
MODEL 3
REMARK VINA RESULT:      -5.7      1.505      2.145
REMARK  11 active torsions:
REMARK  status: ('A' for Active; 'I' for Inactive)
REMARK    1  A    between atoms: C_1  and  C_2 
REMARK    2  A    between atoms: C_1  and  O_13 
REMARK    3  A    between atoms: C_2  and  C_3 
REMARK    4  A    between atoms: C_2  and  O_12 
REMARK    5  A    between atoms: C_3  and  C_4 
REMARK    6  A    between atoms: C_3  and  O_11 
REMARK    7  A    between atoms: C_4  and  C_5 
REMARK    8  A    between atoms: C_4  and  O_10 
REMARK    9  A    between atoms: C_5  and  C_6 
REMARK   10  A    between atoms: C_5  and  O_9 
REMARK   11  A    between atoms: C_6  and  O_8 
ROOT
HETATM    1  C   UNL     1     -23.180  -4.610 -11.383  1.00  0.00     0.188 C 
ENDROOT
BRANCH   1   2
HETATM    2  C   UNL     1     -22.926  -3.293 -12.161  1.00  0.00     0.180 C 
BRANCH   2   3
HETATM    3  C   UNL     1     -23.722  -3.238 -13.479  1.00  0.00     0.173 C 
BRANCH   3   4
HETATM    4  C   UNL     1     -23.105  -2.264 -14.494  1.00  0.00     0.198 C 
BRANCH   4   5
HETATM    5  O   UNL     1     -22.223  -2.989 -15.355  1.00  0.00    -0.398 OA
HETATM    6  H   UNL     1     -22.039  -3.847 -14.933  1.00  0.00     0.209 HD
ENDBRANCH   4   5
ENDBRANCH   3   4
BRANCH   3   7
HETATM    7  O   UNL     1     -25.080  -2.861 -13.192  1.00  0.00    -0.391 OA
HETATM    8  H   UNL     1     -25.035  -2.121 -12.550  1.00  0.00     0.210 HD
ENDBRANCH   3   7
ENDBRANCH   2   3
BRANCH   2   9
HETATM    9  O   UNL     1     -21.536  -3.117 -12.427  1.00  0.00    -0.390 OA
HETATM   10  H   UNL     1     -21.422  -2.682 -13.291  1.00  0.00     0.210 HD
ENDBRANCH   2   9
ENDBRANCH   1   2
BRANCH   1  11
HETATM   11  C   UNL     1     -24.077  -4.402 -10.149  1.00  0.00     0.246 C 
BRANCH  11  12
HETATM   12  C   UNL     1     -23.225  -4.128  -8.905  1.00  0.00     0.172 C 
HETATM   13  O   UNL     1     -22.005  -4.033  -8.908  1.00  0.00    -0.648 OA
BRANCH  12  14
HETATM   14  O   UNL     1     -23.954  -4.059  -7.762  1.00  0.00    -0.774 OA
HETATM   15  H   UNL     1     -24.819  -4.528  -7.866  1.00  0.00     0.167 HD
ENDBRANCH  12  14
ENDBRANCH  11  12
BRANCH  11  16
HETATM   16  O   UNL     1     -24.987  -3.323 -10.397  1.00  0.00    -0.382 OA
HETATM   17  H   UNL     1     -25.866  -3.590 -10.071  1.00  0.00     0.210 HD
ENDBRANCH  11  16
ENDBRANCH   1  11
BRANCH   1  18
HETATM   18  O   UNL     1     -23.791  -5.627 -12.212  1.00  0.00    -0.390 OA
HETATM   19  H   UNL     1     -24.689  -5.286 -12.444  1.00  0.00     0.210 HD
ENDBRANCH   1  18
TORSDOF 11
ENDMDL
MODEL 4
REMARK VINA RESULT:      -5.7      1.427      4.928
REMARK  11 active torsions:
REMARK  status: ('A' for Active; 'I' for Inactive)
REMARK    1  A    between atoms: C_1  and  C_2 
REMARK    2  A    between atoms: C_1  and  O_13 
REMARK    3  A    between atoms: C_2  and  C_3 
REMARK    4  A    between atoms: C_2  and  O_12 
REMARK    5  A    between atoms: C_3  and  C_4 
REMARK    6  A    between atoms: C_3  and  O_11 
REMARK    7  A    between atoms: C_4  and  C_5 
REMARK    8  A    between atoms: C_4  and  O_10 
REMARK    9  A    between atoms: C_5  and  C_6 
REMARK   10  A    between atoms: C_5  and  O_9 
REMARK   11  A    between atoms: C_6  and  O_8 
ROOT
HETATM    1  C   UNL     1     -22.989  -3.656 -12.153  1.00  0.00     0.188 C 
ENDROOT
BRANCH   1   2
HETATM    2  C   UNL     1     -22.997  -3.233 -10.661  1.00  0.00     0.180 C 
BRANCH   2   3
HETATM    3  C   UNL     1     -22.397  -4.320  -9.749  1.00  0.00     0.173 C 
BRANCH   3   4
HETATM    4  C   UNL     1     -22.539  -3.976  -8.259  1.00  0.00     0.198 C 
BRANCH   4   5
HETATM    5  O   UNL     1     -23.900  -4.167  -7.866  1.00  0.00    -0.398 OA
HETATM    6  H   UNL     1     -24.372  -3.329  -8.020  1.00  0.00     0.209 HD
ENDBRANCH   4   5
ENDBRANCH   3   4
BRANCH   3   7
HETATM    7  O   UNL     1     -21.011  -4.503 -10.087  1.00  0.00    -0.391 OA
HETATM    8  H   UNL     1     -20.784  -5.425  -9.843  1.00  0.00     0.210 HD
ENDBRANCH   3   7
ENDBRANCH   2   3
BRANCH   2   9
HETATM    9  O   UNL     1     -24.317  -2.912 -10.229  1.00  0.00    -0.390 OA
HETATM   10  H   UNL     1     -24.381  -1.955 -10.058  1.00  0.00     0.210 HD
ENDBRANCH   2   9
ENDBRANCH   1   2
BRANCH   1  11
HETATM   11  C   UNL     1     -23.630  -2.597 -13.069  1.00  0.00     0.246 C 
BRANCH  11  12
HETATM   12  C   UNL     1     -23.335  -2.909 -14.540  1.00  0.00     0.172 C 
HETATM   13  O   UNL     1     -22.704  -2.176 -15.290  1.00  0.00    -0.648 OA
BRANCH  12  14
HETATM   14  O   UNL     1     -23.901  -4.066 -14.966  1.00  0.00    -0.774 OA
HETATM   15  H   UNL     1     -23.220  -4.779 -15.056  1.00  0.00     0.167 HD
ENDBRANCH  12  14
ENDBRANCH  11  12
BRANCH  11  16
HETATM   16  O   UNL     1     -25.042  -2.546 -12.827  1.00  0.00    -0.382 OA
HETATM   17  H   UNL     1     -25.496  -2.566 -13.688  1.00  0.00     0.210 HD
ENDBRANCH  11  16
ENDBRANCH   1  11
BRANCH   1  18
HETATM   18  O   UNL     1     -21.653  -3.919 -12.641  1.00  0.00    -0.390 OA
HETATM   19  H   UNL     1     -21.041  -3.430 -12.036  1.00  0.00     0.210 HD
ENDBRANCH   1  18
TORSDOF 11
ENDMDL
MODEL 5
REMARK VINA RESULT:      -5.6     11.342     12.959
REMARK  11 active torsions:
REMARK  status: ('A' for Active; 'I' for Inactive)
REMARK    1  A    between atoms: C_1  and  C_2 
REMARK    2  A    between atoms: C_1  and  O_13 
REMARK    3  A    between atoms: C_2  and  C_3 
REMARK    4  A    between atoms: C_2  and  O_12 
REMARK    5  A    between atoms: C_3  and  C_4 
REMARK    6  A    between atoms: C_3  and  O_11 
REMARK    7  A    between atoms: C_4  and  C_5 
REMARK    8  A    between atoms: C_4  and  O_10 
REMARK    9  A    between atoms: C_5  and  C_6 
REMARK   10  A    between atoms: C_5  and  O_9 
REMARK   11  A    between atoms: C_6  and  O_8 
ROOT
HETATM    1  C   UNL     1     -36.277   0.099 -13.931  1.00  0.00     0.188 C 
ENDROOT
BRANCH   1   2
HETATM    2  C   UNL     1     -35.244  -0.316 -12.852  1.00  0.00     0.180 C 
BRANCH   2   3
HETATM    3  C   UNL     1     -35.389  -1.798 -12.454  1.00  0.00     0.173 C 
BRANCH   3   4
HETATM    4  C   UNL     1     -34.896  -2.069 -11.024  1.00  0.00     0.198 C 
BRANCH   4   5
HETATM    5  O   UNL     1     -33.573  -1.546 -10.883  1.00  0.00    -0.398 OA
HETATM    6  H   UNL     1     -33.282  -1.240 -11.759  1.00  0.00     0.209 HD
ENDBRANCH   4   5
ENDBRANCH   3   4
BRANCH   3   7
HETATM    7  O   UNL     1     -34.661  -2.609 -13.392  1.00  0.00    -0.391 OA
HETATM    8  H   UNL     1     -33.710  -2.435 -13.233  1.00  0.00     0.210 HD
ENDBRANCH   3   7
ENDBRANCH   2   3
BRANCH   2   9
HETATM    9  O   UNL     1     -35.354   0.510 -11.695  1.00  0.00    -0.390 OA
HETATM   10  H   UNL     1     -35.177   1.436 -11.938  1.00  0.00     0.210 HD
ENDBRANCH   2   9
ENDBRANCH   1   2
BRANCH   1  11
HETATM   11  C   UNL     1     -35.624   0.366 -15.300  1.00  0.00     0.246 C 
BRANCH  11  12
HETATM   12  C   UNL     1     -35.777  -0.853 -16.216  1.00  0.00     0.172 C 
HETATM   13  O   UNL     1     -35.134  -1.888 -16.104  1.00  0.00    -0.648 OA
BRANCH  12  14
HETATM   14  O   UNL     1     -36.664  -0.657 -17.224  1.00  0.00    -0.774 OA
HETATM   15  H   UNL     1     -36.689   0.295 -17.492  1.00  0.00     0.167 HD
ENDBRANCH  12  14
ENDBRANCH  11  12
BRANCH  11  16
HETATM   16  O   UNL     1     -36.214   1.531 -15.892  1.00  0.00    -0.382 OA
HETATM   17  H   UNL     1     -36.052   2.285 -15.297  1.00  0.00     0.210 HD
ENDBRANCH  11  16
ENDBRANCH   1  11
BRANCH   1  18
HETATM   18  O   UNL     1     -37.308  -0.899 -14.116  1.00  0.00    -0.390 OA
HETATM   19  H   UNL     1     -38.089  -0.419 -14.485  1.00  0.00     0.210 HD
ENDBRANCH   1  18
TORSDOF 11
ENDMDL
MODEL 6
REMARK VINA RESULT:      -5.6      1.884      3.163
REMARK  11 active torsions:
REMARK  status: ('A' for Active; 'I' for Inactive)
REMARK    1  A    between atoms: C_1  and  C_2 
REMARK    2  A    between atoms: C_1  and  O_13 
REMARK    3  A    between atoms: C_2  and  C_3 
REMARK    4  A    between atoms: C_2  and  O_12 
REMARK    5  A    between atoms: C_3  and  C_4 
REMARK    6  A    between atoms: C_3  and  O_11 
REMARK    7  A    between atoms: C_4  and  C_5 
REMARK    8  A    between atoms: C_4  and  O_10 
REMARK    9  A    between atoms: C_5  and  C_6 
REMARK   10  A    between atoms: C_5  and  O_9 
REMARK   11  A    between atoms: C_6  and  O_8 
ROOT
HETATM    1  C   UNL     1     -22.632  -3.391 -10.124  1.00  0.00     0.188 C 
ENDROOT
BRANCH   1   2
HETATM    2  C   UNL     1     -23.438  -3.584 -11.435  1.00  0.00     0.180 C 
BRANCH   2   3
HETATM    3  C   UNL     1     -22.793  -2.848 -12.624  1.00  0.00     0.173 C 
BRANCH   3   4
HETATM    4  C   UNL     1     -23.798  -2.566 -13.752  1.00  0.00     0.198 C 
BRANCH   4   5
HETATM    5  O   UNL     1     -23.694  -3.599 -14.734  1.00  0.00    -0.398 OA
HETATM    6  H   UNL     1     -24.155  -4.383 -14.387  1.00  0.00     0.209 HD
ENDBRANCH   4   5
ENDBRANCH   3   4
BRANCH   3   7
HETATM    7  O   UNL     1     -21.695  -3.634 -13.123  1.00  0.00    -0.391 OA
HETATM    8  H   UNL     1     -21.003  -3.618 -12.430  1.00  0.00     0.210 HD
ENDBRANCH   3   7
ENDBRANCH   2   3
BRANCH   2   9
HETATM    9  O   UNL     1     -24.787  -3.153 -11.272  1.00  0.00    -0.390 OA
HETATM   10  H   UNL     1     -25.104  -3.401 -10.385  1.00  0.00     0.210 HD
ENDBRANCH   2   9
ENDBRANCH   1   2
BRANCH   1  11
HETATM   11  C   UNL     1     -23.128  -4.302  -8.987  1.00  0.00     0.246 C 
BRANCH  11  12
HETATM   12  C   UNL     1     -22.038  -4.478  -7.924  1.00  0.00     0.172 C 
HETATM   13  O   UNL     1     -21.468  -5.534  -7.685  1.00  0.00    -0.648 OA
BRANCH  12  14
HETATM   14  O   UNL     1     -21.798  -3.348  -7.212  1.00  0.00    -0.774 OA
HETATM   15  H   UNL     1     -22.596  -2.762  -7.200  1.00  0.00     0.167 HD
ENDBRANCH  12  14
ENDBRANCH  11  12
BRANCH  11  16
HETATM   16  O   UNL     1     -24.320  -3.748  -8.416  1.00  0.00    -0.382 OA
HETATM   17  H   UNL     1     -24.709  -4.416  -7.824  1.00  0.00     0.210 HD
ENDBRANCH  11  16
ENDBRANCH   1  11
BRANCH   1  18
HETATM   18  O   UNL     1     -21.218  -3.637 -10.310  1.00  0.00    -0.390 OA
HETATM   19  H   UNL     1     -20.981  -4.357  -9.674  1.00  0.00     0.210 HD
ENDBRANCH   1  18
TORSDOF 11
ENDMDL
MODEL 7
REMARK VINA RESULT:      -5.5      1.573      2.396
REMARK  11 active torsions:
REMARK  status: ('A' for Active; 'I' for Inactive)
REMARK    1  A    between atoms: C_1  and  C_2 
REMARK    2  A    between atoms: C_1  and  O_13 
REMARK    3  A    between atoms: C_2  and  C_3 
REMARK    4  A    between atoms: C_2  and  O_12 
REMARK    5  A    between atoms: C_3  and  C_4 
REMARK    6  A    between atoms: C_3  and  O_11 
REMARK    7  A    between atoms: C_4  and  C_5 
REMARK    8  A    between atoms: C_4  and  O_10 
REMARK    9  A    between atoms: C_5  and  C_6 
REMARK   10  A    between atoms: C_5  and  O_9 
REMARK   11  A    between atoms: C_6  and  O_8 
ROOT
HETATM    1  C   UNL     1     -22.428  -4.514 -10.575  1.00  0.00     0.188 C 
ENDROOT
BRANCH   1   2
HETATM    2  C   UNL     1     -22.492  -3.512 -11.756  1.00  0.00     0.180 C 
BRANCH   2   3
HETATM    3  C   UNL     1     -23.870  -3.519 -12.445  1.00  0.00     0.173 C 
BRANCH   3   4
HETATM    4  C   UNL     1     -23.899  -2.638 -13.703  1.00  0.00     0.198 C 
BRANCH   4   5
HETATM    5  O   UNL     1     -23.498  -3.423 -14.828  1.00  0.00    -0.398 OA
HETATM    6  H   UNL     1     -22.562  -3.225 -15.008  1.00  0.00     0.209 HD
ENDBRANCH   4   5
ENDBRANCH   3   4
BRANCH   3   7
HETATM    7  O   UNL     1     -24.866  -3.076 -11.506  1.00  0.00    -0.391 OA
HETATM    8  H   UNL     1     -24.382  -2.713 -10.735  1.00  0.00     0.210 HD
ENDBRANCH   3   7
ENDBRANCH   2   3
BRANCH   2   9
HETATM    9  O   UNL     1     -21.471  -3.784 -12.713  1.00  0.00    -0.390 OA
HETATM   10  H   UNL     1     -20.907  -4.511 -12.391  1.00  0.00     0.210 HD
ENDBRANCH   2   9
ENDBRANCH   1   2
BRANCH   1  11
HETATM   11  C   UNL     1     -22.132  -3.823  -9.231  1.00  0.00     0.246 C 
BRANCH  11  12
HETATM   12  C   UNL     1     -23.333  -3.944  -8.287  1.00  0.00     0.172 C 
HETATM   13  O   UNL     1     -23.334  -4.592  -7.249  1.00  0.00    -0.648 OA
BRANCH  12  14
HETATM   14  O   UNL     1     -24.439  -3.305  -8.744  1.00  0.00    -0.774 OA
HETATM   15  H   UNL     1     -24.224  -2.378  -9.017  1.00  0.00     0.167 HD
ENDBRANCH  12  14
ENDBRANCH  11  12
BRANCH  11  16
HETATM   16  O   UNL     1     -20.957  -4.401  -8.645  1.00  0.00    -0.382 OA
HETATM   17  H   UNL     1     -20.786  -3.944  -7.802  1.00  0.00     0.210 HD
ENDBRANCH  11  16
ENDBRANCH   1  11
BRANCH   1  18
HETATM   18  O   UNL     1     -23.654  -5.268 -10.428  1.00  0.00    -0.390 OA
HETATM   19  H   UNL     1     -23.489  -5.919  -9.703  1.00  0.00     0.210 HD
ENDBRANCH   1  18
TORSDOF 11
ENDMDL
MODEL 8
REMARK VINA RESULT:      -5.4      6.683      8.178
REMARK  11 active torsions:
REMARK  status: ('A' for Active; 'I' for Inactive)
REMARK    1  A    between atoms: C_1  and  C_2 
REMARK    2  A    between atoms: C_1  and  O_13 
REMARK    3  A    between atoms: C_2  and  C_3 
REMARK    4  A    between atoms: C_2  and  O_12 
REMARK    5  A    between atoms: C_3  and  C_4 
REMARK    6  A    between atoms: C_3  and  O_11 
REMARK    7  A    between atoms: C_4  and  C_5 
REMARK    8  A    between atoms: C_4  and  O_10 
REMARK    9  A    between atoms: C_5  and  C_6 
REMARK   10  A    between atoms: C_5  and  O_9 
REMARK   11  A    between atoms: C_6  and  O_8 
ROOT
HETATM    1  C   UNL     1     -27.771  -7.029 -16.568  1.00  0.00     0.188 C 
ENDROOT
BRANCH   1   2
HETATM    2  C   UNL     1     -29.021  -6.352 -17.189  1.00  0.00     0.180 C 
BRANCH   2   3
HETATM    3  C   UNL     1     -30.191  -7.341 -17.352  1.00  0.00     0.173 C 
BRANCH   3   4
HETATM    4  C   UNL     1     -30.341  -7.835 -18.799  1.00  0.00     0.198 C 
BRANCH   4   5
HETATM    5  O   UNL     1     -29.337  -8.819 -19.059  1.00  0.00    -0.398 OA
HETATM    6  H   UNL     1     -29.368  -9.470 -18.336  1.00  0.00     0.209 HD
ENDBRANCH   4   5
ENDBRANCH   3   4
BRANCH   3   7
HETATM    7  O   UNL     1     -31.406  -6.705 -16.917  1.00  0.00    -0.391 OA
HETATM    8  H   UNL     1     -32.145  -7.212 -17.314  1.00  0.00     0.210 HD
ENDBRANCH   3   7
ENDBRANCH   2   3
BRANCH   2   9
HETATM    9  O   UNL     1     -28.708  -5.760 -18.448  1.00  0.00    -0.390 OA
HETATM   10  H   UNL     1     -28.992  -6.353 -19.167  1.00  0.00     0.210 HD
ENDBRANCH   2   9
ENDBRANCH   1   2
BRANCH   1  11
HETATM   11  C   UNL     1     -26.466  -6.290 -16.918  1.00  0.00     0.246 C 
BRANCH  11  12
HETATM   12  C   UNL     1     -25.391  -6.567 -15.861  1.00  0.00     0.172 C 
HETATM   13  O   UNL     1     -24.961  -7.679 -15.587  1.00  0.00    -0.648 OA
BRANCH  12  14
HETATM   14  O   UNL     1     -24.992  -5.452 -15.199  1.00  0.00    -0.774 OA
HETATM   15  H   UNL     1     -24.168  -5.627 -14.678  1.00  0.00     0.167 HD
ENDBRANCH  12  14
ENDBRANCH  11  12
BRANCH  11  16
HETATM   16  O   UNL     1     -26.023  -6.692 -18.220  1.00  0.00    -0.382 OA
HETATM   17  H   UNL     1     -26.684  -7.308 -18.586  1.00  0.00     0.210 HD
ENDBRANCH  11  16
ENDBRANCH   1  11
BRANCH   1  18
HETATM   18  O   UNL     1     -27.859  -7.123 -15.127  1.00  0.00    -0.390 OA
HETATM   19  H   UNL     1     -26.927  -7.143 -14.798  1.00  0.00     0.210 HD
ENDBRANCH   1  18
TORSDOF 11
ENDMDL
MODEL 9
REMARK VINA RESULT:      -5.4      1.886      4.932
REMARK  11 active torsions:
REMARK  status: ('A' for Active; 'I' for Inactive)
REMARK    1  A    between atoms: C_1  and  C_2 
REMARK    2  A    between atoms: C_1  and  O_13 
REMARK    3  A    between atoms: C_2  and  C_3 
REMARK    4  A    between atoms: C_2  and  O_12 
REMARK    5  A    between atoms: C_3  and  C_4 
REMARK    6  A    between atoms: C_3  and  O_11 
REMARK    7  A    between atoms: C_4  and  C_5 
REMARK    8  A    between atoms: C_4  and  O_10 
REMARK    9  A    between atoms: C_5  and  C_6 
REMARK   10  A    between atoms: C_5  and  O_9 
REMARK   11  A    between atoms: C_6  and  O_8 
ROOT
HETATM    1  C   UNL     1     -23.885  -3.336 -11.005  1.00  0.00     0.188 C 
ENDROOT
BRANCH   1   2
HETATM    2  C   UNL     1     -22.973  -4.283 -10.184  1.00  0.00     0.180 C 
BRANCH   2   3
HETATM    3  C   UNL     1     -22.792  -3.796  -8.733  1.00  0.00     0.173 C 
BRANCH   3   4
HETATM    4  C   UNL     1     -21.617  -4.489  -8.027  1.00  0.00     0.198 C 
BRANCH   4   5
HETATM    5  O   UNL     1     -22.059  -4.972  -6.756  1.00  0.00    -0.398 OA
HETATM    6  H   UNL     1     -22.946  -4.605  -6.593  1.00  0.00     0.209 HD
ENDBRANCH   4   5
ENDBRANCH   3   4
BRANCH   3   7
HETATM    7  O   UNL     1     -24.012  -4.024  -8.006  1.00  0.00    -0.391 OA
HETATM    8  H   UNL     1     -24.639  -4.439  -8.635  1.00  0.00     0.210 HD
ENDBRANCH   3   7
ENDBRANCH   2   3
BRANCH   2   9
HETATM    9  O   UNL     1     -21.699  -4.433 -10.807  1.00  0.00    -0.390 OA
HETATM   10  H   UNL     1     -21.414  -5.363 -10.747  1.00  0.00     0.210 HD
ENDBRANCH   2   9
ENDBRANCH   1   2
BRANCH   1  11
HETATM   11  C   UNL     1     -24.116  -3.840 -12.442  1.00  0.00     0.246 C 
BRANCH  11  12
HETATM   12  C   UNL     1     -23.390  -2.943 -13.451  1.00  0.00     0.172 C 
HETATM   13  O   UNL     1     -23.925  -2.047 -14.090  1.00  0.00    -0.648 OA
BRANCH  12  14
HETATM   14  O   UNL     1     -22.086  -3.275 -13.622  1.00  0.00    -0.774 OA
HETATM   15  H   UNL     1     -21.579  -3.159 -12.779  1.00  0.00     0.167 HD
ENDBRANCH  12  14
ENDBRANCH  11  12
BRANCH  11  16
HETATM   16  O   UNL     1     -23.670  -5.198 -12.549  1.00  0.00    -0.382 OA
HETATM   17  H   UNL     1     -23.338  -5.476 -11.676  1.00  0.00     0.210 HD
ENDBRANCH  11  16
ENDBRANCH   1  11
BRANCH   1  18
HETATM   18  O   UNL     1     -25.178  -3.148 -10.385  1.00  0.00    -0.390 OA
HETATM   19  H   UNL     1     -25.173  -3.705  -9.569  1.00  0.00     0.210 HD
ENDBRANCH   1  18
TORSDOF 11
ENDMDL
