MODEL 1
REMARK VINA RESULT:      -6.5      0.000      0.000
REMARK WARNING: 32 MAX_TORS EXCEEDED!!!
REMARK  62 active torsions:
REMARK  status: ('A' for Active; 'I' for Inactive)
REMARK    1  A    between atoms: C_2  and  C_3 
REMARK    2  A    between atoms: C_3  and  C_4 
REMARK    3  A    between atoms: C_4  and  C_5 
REMARK    4  A    between atoms: C_5  and  C_6 
REMARK    5  A    between atoms: C_6  and  C_7 
REMARK    6  A    between atoms: C_7  and  C_8 
REMARK    7  A    between atoms: C_8  and  C_9 
REMARK    8  A    between atoms: C_9  and  C_10 
REMARK    9  A    between atoms: C_9  and  C_16 
REMARK   10  A    between atoms: C_10  and  C_11 
REMARK   11  A    between atoms: C_11  and  C_12 
REMARK   12  A    between atoms: C_12  and  C_13 
REMARK   13  A    between atoms: C_13  and  C_14 
REMARK   14  A    between atoms: C_16  and  O_18 
REMARK   15  A    between atoms: O_18  and  C_19 
REMARK   16  A    between atoms: C_19  and  C_20 
REMARK   17  A    between atoms: C_20  and  C_21 
REMARK   18  A    between atoms: C_20  and  O_63 
REMARK   19  A    between atoms: C_22  and  O_45 
REMARK   20  A    between atoms: C_23  and  O_27 
REMARK   21  A    between atoms: O_27  and  C_28 
REMARK   22  A    between atoms: C_28  and  C_30 
REMARK   23  A    between atoms: C_30  and  C_31 
REMARK   24  A    between atoms: C_30  and  C_37 
REMARK   25  A    between atoms: C_31  and  C_32 
REMARK   26  A    between atoms: C_32  and  C_33 
REMARK   27  A    between atoms: C_33  and  C_34 
REMARK   28  A    between atoms: C_34  and  C_35 
REMARK   29  A    between atoms: C_37  and  C_38 
REMARK   30  A    between atoms: C_38  and  C_39 
REMARK   31  A    between atoms: C_39  and  C_40 
REMARK   32  A    between atoms: C_40  and  C_41 
REMARK   33  A    between atoms: C_41  and  C_42 
REMARK   34  A    between atoms: C_42  and  C_43 
REMARK   35  A    between atoms: O_45  and  C_46 
REMARK   36  A    between atoms: C_46  and  C_48 
REMARK   37  A    between atoms: C_48  and  C_49 
REMARK   38  A    between atoms: C_48  and  C_55 
REMARK   39  A    between atoms: C_49  and  C_50 
REMARK   40  A    between atoms: C_50  and  C_51 
REMARK   41  A    between atoms: C_51  and  C_52 
REMARK   42  A    between atoms: C_52  and  C_53 
REMARK   43  A    between atoms: C_55  and  C_56 
REMARK   44  A    between atoms: C_56  and  C_57 
REMARK   45  A    between atoms: C_57  and  C_58 
REMARK   46  A    between atoms: C_58  and  C_59 
REMARK   47  A    between atoms: C_59  and  C_60 
REMARK   48  A    between atoms: C_60  and  C_61 
REMARK   49  A    between atoms: O_63  and  C_64 
REMARK   50  A    between atoms: C_64  and  C_66 
REMARK   51  A    between atoms: C_66  and  C_67 
REMARK   52  A    between atoms: C_66  and  C_73 
REMARK   53  A    between atoms: C_67  and  C_68 
REMARK   54  A    between atoms: C_68  and  C_69 
REMARK   55  A    between atoms: C_69  and  C_70 
REMARK   56  A    between atoms: C_70  and  C_71 
REMARK   57  A    between atoms: C_73  and  C_74 
REMARK   58  A    between atoms: C_74  and  C_75 
REMARK   59  A    between atoms: C_75  and  C_76 
REMARK   60  A    between atoms: C_76  and  C_77 
REMARK   61  A    between atoms: C_77  and  C_78 
REMARK   62  A    between atoms: C_78  and  C_79 
ROOT
HETATM    1  C   UNL     1     -18.542 -10.038  -2.527  1.00  0.00     0.224 C 
HETATM    2  C   UNL     1     -18.571 -11.248  -1.631  1.00  0.00     0.129 C 
HETATM    3  C   UNL     1     -17.307 -11.751  -1.472  1.00  0.00     0.186 C 
HETATM    4  C   UNL     1     -16.393 -10.782  -2.106  1.00  0.00     0.321 C 
HETATM    5  O   UNL     1     -15.194 -10.866  -2.133  1.00  0.00    -0.257 OA
HETATM    6  O   UNL     1     -17.133  -9.778  -2.655  1.00  0.00    -0.301 OA
ENDROOT
BRANCH   1   7
HETATM    7  C   UNL     1     -19.185 -10.121  -3.974  1.00  0.00     0.192 C 
BRANCH   7   8
HETATM    8  C   UNL     1     -18.270 -10.718  -5.085  1.00  0.00     0.214 C 
BRANCH   8   9
HETATM    9  O   UNL     1     -18.735 -12.051  -5.490  1.00  0.00    -0.319 OA
BRANCH   9  10
HETATM   10  C   UNL     1     -18.792 -12.378  -6.814  1.00  0.00     0.263 C 
HETATM   11  O   UNL     1     -19.361 -11.676  -7.642  1.00  0.00    -0.265 OA
BRANCH  10  12
HETATM   12  C   UNL     1     -18.204 -13.780  -7.150  1.00  0.00     0.085 C 
BRANCH  12  13
HETATM   13  C   UNL     1     -18.929 -14.365  -8.408  1.00  0.00     0.014 C 
BRANCH  13  14
HETATM   14  C   UNL     1     -18.208 -14.699  -9.742  1.00  0.00     0.001 C 
BRANCH  14  15
HETATM   15  C   UNL     1     -18.097 -16.170 -10.180  1.00  0.00     0.000 C 
BRANCH  15  16
HETATM   16  C   UNL     1     -18.026 -16.291 -11.721  1.00  0.00     0.000 C 
BRANCH  16  17
HETATM   17  C   UNL     1     -16.711 -15.751 -12.297  1.00  0.00     0.000 C 
BRANCH  17  18
HETATM   18  C   UNL     1     -16.652 -15.941 -13.816  1.00  0.00    -0.000 C 
BRANCH  18  19
HETATM   19  C   UNL     1     -18.023 -15.758 -14.469  1.00  0.00    -0.005 C 
HETATM   20  C   UNL     1     -17.903 -15.007 -15.786  1.00  0.00     0.005 C 
ENDBRANCH  18  19
ENDBRANCH  17  18
ENDBRANCH  16  17
ENDBRANCH  15  16
ENDBRANCH  14  15
ENDBRANCH  13  14
ENDBRANCH  12  13
BRANCH  12  21
HETATM   21  C   UNL     1     -16.649 -13.847  -7.108  1.00  0.00     0.014 C 
BRANCH  21  22
HETATM   22  C   UNL     1     -15.714 -12.633  -6.910  1.00  0.00     0.001 C 
BRANCH  22  23
HETATM   23  C   UNL     1     -14.334 -12.717  -6.227  1.00  0.00     0.000 C 
BRANCH  23  24
HETATM   24  C   UNL     1     -13.804 -13.992  -5.542  1.00  0.00    -0.000 C 
BRANCH  24  25
HETATM   25  C   UNL     1     -13.013 -15.049  -6.324  1.00  0.00    -0.005 C 
HETATM   26  C   UNL     1     -12.754 -16.368  -5.607  1.00  0.00     0.005 C 
ENDBRANCH  24  25
ENDBRANCH  23  24
ENDBRANCH  22  23
ENDBRANCH  21  22
ENDBRANCH  12  21
ENDBRANCH  10  12
ENDBRANCH   9  10
ENDBRANCH   8   9
ENDBRANCH   7   8
BRANCH   7  27
HETATM   27  O   UNL     1     -19.568  -8.769  -4.333  1.00  0.00    -0.310 OA
BRANCH  27  28
HETATM   28  C   UNL     1     -20.618  -8.592  -5.196  1.00  0.00     0.263 C 
HETATM   29  O   UNL     1     -21.217  -9.477  -5.798  1.00  0.00    -0.265 OA
BRANCH  28  30
HETATM   30  C   UNL     1     -20.962  -7.118  -5.323  1.00  0.00     0.085 C 
BRANCH  30  31
HETATM   31  C   UNL     1     -20.866  -6.483  -3.940  1.00  0.00     0.014 C 
BRANCH  31  32
HETATM   32  C   UNL     1     -21.710  -7.226  -2.910  1.00  0.00     0.001 C 
BRANCH  32  33
HETATM   33  C   UNL     1     -22.191  -6.292  -1.812  1.00  0.00     0.000 C 
BRANCH  33  34
HETATM   34  C   UNL     1     -22.589  -7.110  -0.588  1.00  0.00    -0.000 C 
BRANCH  34  35
HETATM   35  C   UNL     1     -21.486  -8.082  -0.195  1.00  0.00    -0.005 C 
HETATM   36  C   UNL     1     -21.476  -8.299   1.308  1.00  0.00     0.005 C 
ENDBRANCH  34  35
ENDBRANCH  33  34
ENDBRANCH  32  33
ENDBRANCH  31  32
ENDBRANCH  30  31
BRANCH  30  37
HETATM   37  C   UNL     1     -20.065  -6.398  -6.334  1.00  0.00     0.014 C 
BRANCH  37  38
HETATM   38  C   UNL     1     -20.134  -4.906  -6.136  1.00  0.00     0.001 C 
BRANCH  38  39
HETATM   39  C   UNL     1     -19.631  -4.204  -7.362  1.00  0.00     0.000 C 
BRANCH  39  40
HETATM   40  C   UNL     1     -20.296  -4.869  -8.532  1.00  0.00     0.000 C 
BRANCH  40  41
HETATM   41  C   UNL     1     -20.488  -3.838  -9.577  1.00  0.00     0.000 C 
BRANCH  41  42
HETATM   42  C   UNL     1     -20.425  -4.526 -10.908  1.00  0.00    -0.000 C 
BRANCH  42  43
HETATM   43  C   UNL     1     -21.506  -3.917 -11.724  1.00  0.00    -0.005 C 
HETATM   44  C   UNL     1     -22.797  -4.576 -11.353  1.00  0.00     0.005 C 
ENDBRANCH  42  43
ENDBRANCH  41  42
ENDBRANCH  40  41
ENDBRANCH  39  40
ENDBRANCH  38  39
ENDBRANCH  37  38
ENDBRANCH  30  37
ENDBRANCH  28  30
ENDBRANCH  27  28
ENDBRANCH   7  27
ENDBRANCH   1   7
BRANCH   2  45
HETATM   45  O   UNL     1     -19.744 -11.905  -1.287  1.00  0.00    -0.277 OA
BRANCH  45  46
HETATM   46  C   UNL     1     -20.118 -11.951   0.054  1.00  0.00     0.268 C 
HETATM   47  O   UNL     1     -19.889 -11.042   0.834  1.00  0.00    -0.264 OA
BRANCH  46  48
HETATM   48  C   UNL     1     -20.852 -13.265   0.357  1.00  0.00     0.086 C 
BRANCH  48  49
HETATM   49  C   UNL     1     -22.363 -13.139   0.103  1.00  0.00     0.014 C 
BRANCH  49  50
HETATM   50  C   UNL     1     -23.047 -11.770   0.145  1.00  0.00     0.001 C 
BRANCH  50  51
HETATM   51  C   UNL     1     -23.757 -11.271  -1.110  1.00  0.00     0.000 C 
BRANCH  51  52
HETATM   52  C   UNL     1     -22.797 -10.669  -2.134  1.00  0.00    -0.000 C 
BRANCH  52  53
HETATM   53  C   UNL     1     -22.682 -11.408  -3.475  1.00  0.00    -0.005 C 
HETATM   54  C   UNL     1     -22.463 -12.914  -3.400  1.00  0.00     0.005 C 
ENDBRANCH  52  53
ENDBRANCH  51  52
ENDBRANCH  50  51
ENDBRANCH  49  50
ENDBRANCH  48  49
BRANCH  48  55
HETATM   55  C   UNL     1     -20.336 -14.521  -0.351  1.00  0.00     0.014 C 
BRANCH  55  56
HETATM   56  C   UNL     1     -19.532 -15.464   0.522  1.00  0.00     0.001 C 
BRANCH  56  57
HETATM   57  C   UNL     1     -20.043 -15.339   1.959  1.00  0.00     0.000 C 
BRANCH  57  58
HETATM   58  C   UNL     1     -20.623 -16.670   2.399  1.00  0.00     0.000 C 
BRANCH  58  59
HETATM   59  C   UNL     1     -21.855 -16.451   3.261  1.00  0.00     0.000 C 
BRANCH  59  60
HETATM   60  C   UNL     1     -22.137 -14.963   3.418  1.00  0.00    -0.000 C 
BRANCH  60  61
HETATM   61  C   UNL     1     -23.605 -14.673   3.129  1.00  0.00    -0.005 C 
HETATM   62  C   UNL     1     -24.176 -15.676   2.151  1.00  0.00     0.005 C 
ENDBRANCH  60  61
ENDBRANCH  59  60
ENDBRANCH  58  59
ENDBRANCH  57  58
ENDBRANCH  56  57
ENDBRANCH  55  56
ENDBRANCH  48  55
ENDBRANCH  46  48
ENDBRANCH  45  46
ENDBRANCH   2  45
BRANCH   3  63
HETATM   63  O   UNL     1     -16.877 -13.052  -1.102  1.00  0.00    -0.270 OA
BRANCH  63  64
HETATM   64  C   UNL     1     -16.396 -13.286   0.174  1.00  0.00     0.268 C 
HETATM   65  O   UNL     1     -16.964 -12.884   1.176  1.00  0.00    -0.264 OA
BRANCH  64  66
HETATM   66  C   UNL     1     -15.151 -14.190   0.151  1.00  0.00     0.086 C 
BRANCH  66  67
HETATM   67  C   UNL     1     -14.705 -14.396  -1.319  1.00  0.00     0.014 C 
BRANCH  67  68
HETATM   68  C   UNL     1     -14.464 -15.851  -1.790  1.00  0.00     0.001 C 
BRANCH  68  69
HETATM   69  C   UNL     1     -15.256 -16.301  -3.022  1.00  0.00     0.000 C 
BRANCH  69  70
HETATM   70  C   UNL     1     -16.777 -16.083  -2.879  1.00  0.00    -0.000 C 
BRANCH  70  71
HETATM   71  C   UNL     1     -17.446 -15.095  -3.843  1.00  0.00    -0.005 C 
HETATM   72  C   UNL     1     -18.926 -14.893  -3.581  1.00  0.00     0.005 C 
ENDBRANCH  70  71
ENDBRANCH  69  70
ENDBRANCH  68  69
ENDBRANCH  67  68
ENDBRANCH  66  67
BRANCH  66  73
HETATM   73  C   UNL     1     -14.003 -13.537   0.928  1.00  0.00     0.014 C 
BRANCH  73  74
HETATM   74  C   UNL     1     -12.802 -14.433   1.207  1.00  0.00     0.001 C 
BRANCH  74  75
HETATM   75  C   UNL     1     -11.555 -13.764   0.601  1.00  0.00     0.000 C 
BRANCH  75  76
HETATM   76  C   UNL     1     -10.269 -14.510   0.924  1.00  0.00     0.000 C 
BRANCH  76  77
HETATM   77  C   UNL     1      -9.424 -13.785   2.016  1.00  0.00     0.000 C 
BRANCH  77  78
HETATM   78  C   UNL     1      -8.528 -14.748   2.819  1.00  0.00    -0.000 C 
BRANCH  78  79
HETATM   79  C   UNL     1      -8.147 -14.531   4.298  1.00  0.00    -0.005 C 
HETATM   80  C   UNL     1      -9.045 -13.588   5.149  1.00  0.00     0.005 C 
ENDBRANCH  78  79
ENDBRANCH  77  78
ENDBRANCH  76  77
ENDBRANCH  75  76
ENDBRANCH  74  75
ENDBRANCH  73  74
ENDBRANCH  66  73
ENDBRANCH  64  66
ENDBRANCH  63  64
ENDBRANCH   3  63
TORSDOF 62
ENDMDL
MODEL 2
REMARK VINA RESULT:      -6.4      2.195      9.098
REMARK WARNING: 32 MAX_TORS EXCEEDED!!!
REMARK  62 active torsions:
REMARK  status: ('A' for Active; 'I' for Inactive)
REMARK    1  A    between atoms: C_2  and  C_3 
REMARK    2  A    between atoms: C_3  and  C_4 
REMARK    3  A    between atoms: C_4  and  C_5 
REMARK    4  A    between atoms: C_5  and  C_6 
REMARK    5  A    between atoms: C_6  and  C_7 
REMARK    6  A    between atoms: C_7  and  C_8 
REMARK    7  A    between atoms: C_8  and  C_9 
REMARK    8  A    between atoms: C_9  and  C_10 
REMARK    9  A    between atoms: C_9  and  C_16 
REMARK   10  A    between atoms: C_10  and  C_11 
REMARK   11  A    between atoms: C_11  and  C_12 
REMARK   12  A    between atoms: C_12  and  C_13 
REMARK   13  A    between atoms: C_13  and  C_14 
REMARK   14  A    between atoms: C_16  and  O_18 
REMARK   15  A    between atoms: O_18  and  C_19 
REMARK   16  A    between atoms: C_19  and  C_20 
REMARK   17  A    between atoms: C_20  and  C_21 
REMARK   18  A    between atoms: C_20  and  O_63 
REMARK   19  A    between atoms: C_22  and  O_45 
REMARK   20  A    between atoms: C_23  and  O_27 
REMARK   21  A    between atoms: O_27  and  C_28 
REMARK   22  A    between atoms: C_28  and  C_30 
REMARK   23  A    between atoms: C_30  and  C_31 
REMARK   24  A    between atoms: C_30  and  C_37 
REMARK   25  A    between atoms: C_31  and  C_32 
REMARK   26  A    between atoms: C_32  and  C_33 
REMARK   27  A    between atoms: C_33  and  C_34 
REMARK   28  A    between atoms: C_34  and  C_35 
REMARK   29  A    between atoms: C_37  and  C_38 
REMARK   30  A    between atoms: C_38  and  C_39 
REMARK   31  A    between atoms: C_39  and  C_40 
REMARK   32  A    between atoms: C_40  and  C_41 
REMARK   33  A    between atoms: C_41  and  C_42 
REMARK   34  A    between atoms: C_42  and  C_43 
REMARK   35  A    between atoms: O_45  and  C_46 
REMARK   36  A    between atoms: C_46  and  C_48 
REMARK   37  A    between atoms: C_48  and  C_49 
REMARK   38  A    between atoms: C_48  and  C_55 
REMARK   39  A    between atoms: C_49  and  C_50 
REMARK   40  A    between atoms: C_50  and  C_51 
REMARK   41  A    between atoms: C_51  and  C_52 
REMARK   42  A    between atoms: C_52  and  C_53 
REMARK   43  A    between atoms: C_55  and  C_56 
REMARK   44  A    between atoms: C_56  and  C_57 
REMARK   45  A    between atoms: C_57  and  C_58 
REMARK   46  A    between atoms: C_58  and  C_59 
REMARK   47  A    between atoms: C_59  and  C_60 
REMARK   48  A    between atoms: C_60  and  C_61 
REMARK   49  A    between atoms: O_63  and  C_64 
REMARK   50  A    between atoms: C_64  and  C_66 
REMARK   51  A    between atoms: C_66  and  C_67 
REMARK   52  A    between atoms: C_66  and  C_73 
REMARK   53  A    between atoms: C_67  and  C_68 
REMARK   54  A    between atoms: C_68  and  C_69 
REMARK   55  A    between atoms: C_69  and  C_70 
REMARK   56  A    between atoms: C_70  and  C_71 
REMARK   57  A    between atoms: C_73  and  C_74 
REMARK   58  A    between atoms: C_74  and  C_75 
REMARK   59  A    between atoms: C_75  and  C_76 
REMARK   60  A    between atoms: C_76  and  C_77 
REMARK   61  A    between atoms: C_77  and  C_78 
REMARK   62  A    between atoms: C_78  and  C_79 
ROOT
HETATM    1  C   UNL     1     -19.467  -8.980  -4.403  1.00  0.00     0.224 C 
HETATM    2  C   UNL     1     -18.617 -10.131  -3.933  1.00  0.00     0.129 C 
HETATM    3  C   UNL     1     -18.819 -11.225  -4.732  1.00  0.00     0.186 C 
HETATM    4  C   UNL     1     -19.662 -10.771  -5.854  1.00  0.00     0.321 C 
HETATM    5  O   UNL     1     -20.017 -11.448  -6.781  1.00  0.00    -0.257 OA
HETATM    6  O   UNL     1     -19.971  -9.457  -5.663  1.00  0.00    -0.301 OA
ENDROOT
BRANCH   1   7
HETATM    7  C   UNL     1     -20.683  -8.491  -3.511  1.00  0.00     0.192 C 
BRANCH   7   8
HETATM    8  C   UNL     1     -21.280  -7.102  -3.889  1.00  0.00     0.214 C 
BRANCH   8   9
HETATM    9  O   UNL     1     -22.054  -7.184  -5.135  1.00  0.00    -0.319 OA
BRANCH   9  10
HETATM   10  C   UNL     1     -22.778  -6.106  -5.558  1.00  0.00     0.263 C 
HETATM   11  O   UNL     1     -23.954  -5.942  -5.255  1.00  0.00    -0.265 OA
BRANCH  10  12
HETATM   12  C   UNL     1     -22.026  -5.191  -6.570  1.00  0.00     0.085 C 
BRANCH  12  13
HETATM   13  C   UNL     1     -23.058  -4.288  -7.326  1.00  0.00     0.014 C 
BRANCH  13  14
HETATM   14  C   UNL     1     -23.432  -4.472  -8.821  1.00  0.00     0.001 C 
BRANCH  14  15
HETATM   15  C   UNL     1     -24.053  -3.289  -9.584  1.00  0.00     0.000 C 
BRANCH  15  16
HETATM   16  C   UNL     1     -24.455  -3.697 -11.022  1.00  0.00     0.000 C 
BRANCH  16  17
HETATM   17  C   UNL     1     -23.821  -2.800 -12.091  1.00  0.00     0.000 C 
BRANCH  17  18
HETATM   18  C   UNL     1     -23.570  -3.576 -13.388  1.00  0.00    -0.000 C 
BRANCH  18  19
HETATM   19  C   UNL     1     -23.012  -2.680 -14.493  1.00  0.00    -0.005 C 
HETATM   20  C   UNL     1     -23.805  -1.388 -14.601  1.00  0.00     0.005 C 
ENDBRANCH  18  19
ENDBRANCH  17  18
ENDBRANCH  16  17
ENDBRANCH  15  16
ENDBRANCH  14  15
ENDBRANCH  13  14
ENDBRANCH  12  13
BRANCH  12  21
HETATM   21  C   UNL     1     -20.751  -4.513  -5.992  1.00  0.00     0.014 C 
BRANCH  21  22
HETATM   22  C   UNL     1     -19.304  -4.810  -6.447  1.00  0.00     0.001 C 
BRANCH  22  23
HETATM   23  C   UNL     1     -18.666  -4.215  -7.718  1.00  0.00     0.000 C 
BRANCH  23  24
HETATM   24  C   UNL     1     -19.487  -3.724  -8.927  1.00  0.00    -0.000 C 
BRANCH  24  25
HETATM   25  C   UNL     1     -20.084  -4.709  -9.941  1.00  0.00    -0.005 C 
HETATM   26  C   UNL     1     -20.603  -4.110 -11.242  1.00  0.00     0.005 C 
ENDBRANCH  24  25
ENDBRANCH  23  24
ENDBRANCH  22  23
ENDBRANCH  21  22
ENDBRANCH  12  21
ENDBRANCH  10  12
ENDBRANCH   9  10
ENDBRANCH   8   9
ENDBRANCH   7   8
BRANCH   7  27
HETATM   27  O   UNL     1     -20.205  -8.459  -2.142  1.00  0.00    -0.310 OA
BRANCH  27  28
HETATM   28  C   UNL     1     -21.122  -8.515  -1.126  1.00  0.00     0.263 C 
HETATM   29  O   UNL     1     -21.468  -7.581  -0.410  1.00  0.00    -0.265 OA
BRANCH  28  30
HETATM   30  C   UNL     1     -21.677  -9.922  -0.983  1.00  0.00     0.085 C 
BRANCH  30  31
HETATM   31  C   UNL     1     -20.508 -10.876  -0.761  1.00  0.00     0.014 C 
BRANCH  31  32
HETATM   32  C   UNL     1     -20.280 -11.165   0.719  1.00  0.00     0.001 C 
BRANCH  32  33
HETATM   33  C   UNL     1     -20.016 -12.643   0.960  1.00  0.00     0.000 C 
BRANCH  33  34
HETATM   34  C   UNL     1     -20.191 -13.409  -0.346  1.00  0.00    -0.000 C 
BRANCH  34  35
HETATM   35  C   UNL     1     -19.970 -14.901  -0.143  1.00  0.00    -0.005 C 
HETATM   36  C   UNL     1     -20.935 -15.706  -0.996  1.00  0.00     0.005 C 
ENDBRANCH  34  35
ENDBRANCH  33  34
ENDBRANCH  32  33
ENDBRANCH  31  32
ENDBRANCH  30  31
BRANCH  30  37
HETATM   37  C   UNL     1     -22.708 -10.028   0.143  1.00  0.00     0.014 C 
BRANCH  37  38
HETATM   38  C   UNL     1     -23.955 -10.721  -0.343  1.00  0.00     0.001 C 
BRANCH  38  39
HETATM   39  C   UNL     1     -23.602 -11.724  -1.401  1.00  0.00     0.000 C 
BRANCH  39  40
HETATM   40  C   UNL     1     -23.881 -13.075  -0.812  1.00  0.00     0.000 C 
BRANCH  40  41
HETATM   41  C   UNL     1     -23.659 -12.977   0.648  1.00  0.00     0.000 C 
BRANCH  41  42
HETATM   42  C   UNL     1     -23.527 -14.372   1.182  1.00  0.00    -0.000 C 
BRANCH  42  43
HETATM   43  C   UNL     1     -23.010 -14.224   2.566  1.00  0.00    -0.005 C 
HETATM   44  C   UNL     1     -23.918 -14.977   3.485  1.00  0.00     0.005 C 
ENDBRANCH  42  43
ENDBRANCH  41  42
ENDBRANCH  40  41
ENDBRANCH  39  40
ENDBRANCH  38  39
ENDBRANCH  37  38
ENDBRANCH  30  37
ENDBRANCH  28  30
ENDBRANCH  27  28
ENDBRANCH   7  27
ENDBRANCH   1   7
BRANCH   2  45
HETATM   45  O   UNL     1     -17.977 -10.144  -2.703  1.00  0.00    -0.277 OA
BRANCH  45  46
HETATM   46  C   UNL     1     -16.587 -10.043  -2.669  1.00  0.00     0.268 C 
HETATM   47  O   UNL     1     -15.984  -9.085  -3.122  1.00  0.00    -0.264 OA
BRANCH  46  48
HETATM   48  C   UNL     1     -15.981 -11.272  -1.977  1.00  0.00     0.086 C 
BRANCH  48  49
HETATM   49  C   UNL     1     -16.921 -11.830  -0.895  1.00  0.00     0.014 C 
BRANCH  49  50
HETATM   50  C   UNL     1     -16.465 -12.971   0.018  1.00  0.00     0.001 C 
BRANCH  50  51
HETATM   51  C   UNL     1     -15.832 -12.621   1.362  1.00  0.00     0.000 C 
BRANCH  51  52
HETATM   52  C   UNL     1     -16.003 -13.725   2.402  1.00  0.00    -0.000 C 
BRANCH  52  53
HETATM   53  C   UNL     1     -16.820 -14.949   1.967  1.00  0.00    -0.005 C 
HETATM   54  C   UNL     1     -16.763 -16.162   2.888  1.00  0.00     0.005 C 
ENDBRANCH  52  53
ENDBRANCH  51  52
ENDBRANCH  50  51
ENDBRANCH  49  50
ENDBRANCH  48  49
BRANCH  48  55
HETATM   55  C   UNL     1     -15.534 -12.422  -2.883  1.00  0.00     0.014 C 
BRANCH  55  56
HETATM   56  C   UNL     1     -14.065 -12.785  -2.779  1.00  0.00     0.001 C 
BRANCH  56  57
HETATM   57  C   UNL     1     -13.597 -13.283  -4.149  1.00  0.00     0.000 C 
BRANCH  57  58
HETATM   58  C   UNL     1     -13.483 -12.102  -5.095  1.00  0.00     0.000 C 
BRANCH  58  59
HETATM   59  C   UNL     1     -14.099 -12.443  -6.441  1.00  0.00     0.000 C 
BRANCH  59  60
HETATM   60  C   UNL     1     -15.569 -12.047  -6.469  1.00  0.00    -0.000 C 
BRANCH  60  61
HETATM   61  C   UNL     1     -16.403 -13.167  -7.080  1.00  0.00    -0.005 C 
HETATM   62  C   UNL     1     -15.807 -14.522  -6.766  1.00  0.00     0.005 C 
ENDBRANCH  60  61
ENDBRANCH  59  60
ENDBRANCH  58  59
ENDBRANCH  57  58
ENDBRANCH  56  57
ENDBRANCH  55  56
ENDBRANCH  48  55
ENDBRANCH  46  48
ENDBRANCH  45  46
ENDBRANCH   2  45
BRANCH   3  63
HETATM   63  O   UNL     1     -18.602 -12.604  -4.471  1.00  0.00    -0.270 OA
BRANCH  63  64
HETATM   64  C   UNL     1     -19.628 -13.384  -3.967  1.00  0.00     0.268 C 
HETATM   65  O   UNL     1     -20.711 -12.921  -3.648  1.00  0.00    -0.264 OA
BRANCH  64  66
HETATM   66  C   UNL     1     -19.258 -14.877  -3.976  1.00  0.00     0.086 C 
BRANCH  66  67
HETATM   67  C   UNL     1     -19.982 -15.570  -5.158  1.00  0.00     0.014 C 
BRANCH  67  68
HETATM   68  C   UNL     1     -19.162 -15.813  -6.448  1.00  0.00     0.001 C 
BRANCH  68  69
HETATM   69  C   UNL     1     -19.433 -17.129  -7.182  1.00  0.00     0.000 C 
BRANCH  69  70
HETATM   70  C   UNL     1     -18.797 -17.183  -8.587  1.00  0.00    -0.000 C 
BRANCH  70  71
HETATM   71  C   UNL     1     -18.181 -15.891  -9.138  1.00  0.00    -0.005 C 
HETATM   72  C   UNL     1     -18.118 -15.840 -10.652  1.00  0.00     0.005 C 
ENDBRANCH  70  71
ENDBRANCH  69  70
ENDBRANCH  68  69
ENDBRANCH  67  68
ENDBRANCH  66  67
BRANCH  66  73
HETATM   73  C   UNL     1     -17.746 -15.051  -4.153  1.00  0.00     0.014 C 
BRANCH  73  74
HETATM   74  C   UNL     1     -17.013 -15.692  -2.980  1.00  0.00     0.001 C 
BRANCH  74  75
HETATM   75  C   UNL     1     -15.808 -16.472  -3.537  1.00  0.00     0.000 C 
BRANCH  75  76
HETATM   76  C   UNL     1     -14.636 -16.517  -2.569  1.00  0.00     0.000 C 
BRANCH  76  77
HETATM   77  C   UNL     1     -15.013 -15.970  -1.158  1.00  0.00     0.000 C 
BRANCH  77  78
HETATM   78  C   UNL     1     -14.057 -16.455  -0.051  1.00  0.00    -0.000 C 
BRANCH  78  79
HETATM   79  C   UNL     1     -12.708 -15.780   0.272  1.00  0.00    -0.005 C 
HETATM   80  C   UNL     1     -12.703 -14.242   0.508  1.00  0.00     0.005 C 
ENDBRANCH  78  79
ENDBRANCH  77  78
ENDBRANCH  76  77
ENDBRANCH  75  76
ENDBRANCH  74  75
ENDBRANCH  73  74
ENDBRANCH  66  73
ENDBRANCH  64  66
ENDBRANCH  63  64
ENDBRANCH   3  63
TORSDOF 62
ENDMDL
MODEL 3
REMARK VINA RESULT:      -6.4      2.354     10.588
REMARK WARNING: 32 MAX_TORS EXCEEDED!!!
REMARK  62 active torsions:
REMARK  status: ('A' for Active; 'I' for Inactive)
REMARK    1  A    between atoms: C_2  and  C_3 
REMARK    2  A    between atoms: C_3  and  C_4 
REMARK    3  A    between atoms: C_4  and  C_5 
REMARK    4  A    between atoms: C_5  and  C_6 
REMARK    5  A    between atoms: C_6  and  C_7 
REMARK    6  A    between atoms: C_7  and  C_8 
REMARK    7  A    between atoms: C_8  and  C_9 
REMARK    8  A    between atoms: C_9  and  C_10 
REMARK    9  A    between atoms: C_9  and  C_16 
REMARK   10  A    between atoms: C_10  and  C_11 
REMARK   11  A    between atoms: C_11  and  C_12 
REMARK   12  A    between atoms: C_12  and  C_13 
REMARK   13  A    between atoms: C_13  and  C_14 
REMARK   14  A    between atoms: C_16  and  O_18 
REMARK   15  A    between atoms: O_18  and  C_19 
REMARK   16  A    between atoms: C_19  and  C_20 
REMARK   17  A    between atoms: C_20  and  C_21 
REMARK   18  A    between atoms: C_20  and  O_63 
REMARK   19  A    between atoms: C_22  and  O_45 
REMARK   20  A    between atoms: C_23  and  O_27 
REMARK   21  A    between atoms: O_27  and  C_28 
REMARK   22  A    between atoms: C_28  and  C_30 
REMARK   23  A    between atoms: C_30  and  C_31 
REMARK   24  A    between atoms: C_30  and  C_37 
REMARK   25  A    between atoms: C_31  and  C_32 
REMARK   26  A    between atoms: C_32  and  C_33 
REMARK   27  A    between atoms: C_33  and  C_34 
REMARK   28  A    between atoms: C_34  and  C_35 
REMARK   29  A    between atoms: C_37  and  C_38 
REMARK   30  A    between atoms: C_38  and  C_39 
REMARK   31  A    between atoms: C_39  and  C_40 
REMARK   32  A    between atoms: C_40  and  C_41 
REMARK   33  A    between atoms: C_41  and  C_42 
REMARK   34  A    between atoms: C_42  and  C_43 
REMARK   35  A    between atoms: O_45  and  C_46 
REMARK   36  A    between atoms: C_46  and  C_48 
REMARK   37  A    between atoms: C_48  and  C_49 
REMARK   38  A    between atoms: C_48  and  C_55 
REMARK   39  A    between atoms: C_49  and  C_50 
REMARK   40  A    between atoms: C_50  and  C_51 
REMARK   41  A    between atoms: C_51  and  C_52 
REMARK   42  A    between atoms: C_52  and  C_53 
REMARK   43  A    between atoms: C_55  and  C_56 
REMARK   44  A    between atoms: C_56  and  C_57 
REMARK   45  A    between atoms: C_57  and  C_58 
REMARK   46  A    between atoms: C_58  and  C_59 
REMARK   47  A    between atoms: C_59  and  C_60 
REMARK   48  A    between atoms: C_60  and  C_61 
REMARK   49  A    between atoms: O_63  and  C_64 
REMARK   50  A    between atoms: C_64  and  C_66 
REMARK   51  A    between atoms: C_66  and  C_67 
REMARK   52  A    between atoms: C_66  and  C_73 
REMARK   53  A    between atoms: C_67  and  C_68 
REMARK   54  A    between atoms: C_68  and  C_69 
REMARK   55  A    between atoms: C_69  and  C_70 
REMARK   56  A    between atoms: C_70  and  C_71 
REMARK   57  A    between atoms: C_73  and  C_74 
REMARK   58  A    between atoms: C_74  and  C_75 
REMARK   59  A    between atoms: C_75  and  C_76 
REMARK   60  A    between atoms: C_76  and  C_77 
REMARK   61  A    between atoms: C_77  and  C_78 
REMARK   62  A    between atoms: C_78  and  C_79 
ROOT
HETATM    1  C   UNL     1     -18.165 -10.969  -3.532  1.00  0.00     0.224 C 
HETATM    2  C   UNL     1     -19.327 -10.011  -3.540  1.00  0.00     0.129 C 
HETATM    3  C   UNL     1     -19.221  -9.147  -4.597  1.00  0.00     0.186 C 
HETATM    4  C   UNL     1     -18.092  -9.628  -5.415  1.00  0.00     0.321 C 
HETATM    5  O   UNL     1     -17.721  -9.141  -6.449  1.00  0.00    -0.257 OA
HETATM    6  O   UNL     1     -17.541 -10.714  -4.803  1.00  0.00    -0.301 OA
ENDROOT
BRANCH   1   7
HETATM    7  C   UNL     1     -17.072 -10.864  -2.389  1.00  0.00     0.192 C 
BRANCH   7   8
HETATM    8  C   UNL     1     -15.589 -10.890  -2.870  1.00  0.00     0.214 C 
BRANCH   8   9
HETATM    9  O   UNL     1     -15.370 -11.973  -3.838  1.00  0.00    -0.319 OA
BRANCH   9  10
HETATM   10  C   UNL     1     -14.787 -13.139  -3.434  1.00  0.00     0.263 C 
HETATM   11  O   UNL     1     -13.627 -13.195  -3.043  1.00  0.00    -0.265 OA
BRANCH  10  12
HETATM   12  C   UNL     1     -15.671 -14.402  -3.653  1.00  0.00     0.085 C 
BRANCH  12  13
HETATM   13  C   UNL     1     -15.715 -14.754  -5.178  1.00  0.00     0.014 C 
BRANCH  13  14
HETATM   14  C   UNL     1     -16.963 -14.545  -6.076  1.00  0.00     0.001 C 
BRANCH  14  15
HETATM   15  C   UNL     1     -17.672 -15.778  -6.664  1.00  0.00     0.000 C 
BRANCH  15  16
HETATM   16  C   UNL     1     -18.973 -15.378  -7.401  1.00  0.00     0.000 C 
BRANCH  16  17
HETATM   17  C   UNL     1     -18.707 -14.530  -8.651  1.00  0.00     0.000 C 
BRANCH  17  18
HETATM   18  C   UNL     1     -19.432 -13.183  -8.570  1.00  0.00    -0.000 C 
BRANCH  18  19
HETATM   19  C   UNL     1     -20.629 -13.233  -7.620  1.00  0.00    -0.005 C 
HETATM   20  C   UNL     1     -20.624 -12.042  -6.674  1.00  0.00     0.005 C 
ENDBRANCH  18  19
ENDBRANCH  17  18
ENDBRANCH  16  17
ENDBRANCH  15  16
ENDBRANCH  14  15
ENDBRANCH  13  14
ENDBRANCH  12  13
BRANCH  12  21
HETATM   21  C   UNL     1     -15.395 -15.557  -2.646  1.00  0.00     0.014 C 
BRANCH  21  22
HETATM   22  C   UNL     1     -16.411 -16.097  -1.616  1.00  0.00     0.001 C 
BRANCH  22  23
HETATM   23  C   UNL     1     -17.723 -16.811  -1.998  1.00  0.00     0.000 C 
BRANCH  23  24
HETATM   24  C   UNL     1     -18.549 -16.451  -3.250  1.00  0.00    -0.000 C 
BRANCH  24  25
HETATM   25  C   UNL     1     -19.863 -15.667  -3.142  1.00  0.00    -0.005 C 
HETATM   26  C   UNL     1     -19.890 -14.296  -3.805  1.00  0.00     0.005 C 
ENDBRANCH  24  25
ENDBRANCH  23  24
ENDBRANCH  22  23
ENDBRANCH  21  22
ENDBRANCH  12  21
ENDBRANCH  10  12
ENDBRANCH   9  10
ENDBRANCH   8   9
ENDBRANCH   7   8
BRANCH   7  27
HETATM   27  O   UNL     1     -17.310 -11.974  -1.486  1.00  0.00    -0.310 OA
BRANCH  27  28
HETATM   28  C   UNL     1     -16.692 -11.969  -0.263  1.00  0.00     0.263 C 
HETATM   29  O   UNL     1     -15.653 -11.382   0.020  1.00  0.00    -0.265 OA
BRANCH  28  30
HETATM   30  C   UNL     1     -17.471 -12.810   0.733  1.00  0.00     0.085 C 
BRANCH  30  31
HETATM   31  C   UNL     1     -18.798 -13.202   0.093  1.00  0.00     0.014 C 
BRANCH  31  32
HETATM   32  C   UNL     1     -19.219 -14.618   0.469  1.00  0.00     0.001 C 
BRANCH  32  33
HETATM   33  C   UNL     1     -20.723 -14.799   0.351  1.00  0.00     0.000 C 
BRANCH  33  34
HETATM   34  C   UNL     1     -21.330 -14.921   1.745  1.00  0.00    -0.000 C 
BRANCH  34  35
HETATM   35  C   UNL     1     -22.260 -13.755   2.044  1.00  0.00    -0.005 C 
HETATM   36  C   UNL     1     -23.619 -14.257   2.500  1.00  0.00     0.005 C 
ENDBRANCH  34  35
ENDBRANCH  33  34
ENDBRANCH  32  33
ENDBRANCH  31  32
ENDBRANCH  30  31
BRANCH  30  37
HETATM   37  C   UNL     1     -16.686 -14.042   1.192  1.00  0.00     0.014 C 
BRANCH  37  38
HETATM   38  C   UNL     1     -16.034 -13.787   2.527  1.00  0.00     0.001 C 
BRANCH  38  39
HETATM   39  C   UNL     1     -15.403 -15.049   3.036  1.00  0.00     0.000 C 
BRANCH  39  40
HETATM   40  C   UNL     1     -14.067 -15.156   2.360  1.00  0.00     0.000 C 
BRANCH  40  41
HETATM   41  C   UNL     1     -14.049 -16.435   1.615  1.00  0.00     0.000 C 
BRANCH  41  42
HETATM   42  C   UNL     1     -13.220 -16.229   0.383  1.00  0.00    -0.000 C 
BRANCH  42  43
HETATM   43  C   UNL     1     -12.131 -15.301   0.782  1.00  0.00    -0.005 C 
HETATM   44  C   UNL     1     -11.788 -14.451  -0.399  1.00  0.00     0.005 C 
ENDBRANCH  42  43
ENDBRANCH  41  42
ENDBRANCH  40  41
ENDBRANCH  39  40
ENDBRANCH  38  39
ENDBRANCH  37  38
ENDBRANCH  30  37
ENDBRANCH  28  30
ENDBRANCH  27  28
ENDBRANCH   7  27
ENDBRANCH   1   7
BRANCH   2  45
HETATM   45  O   UNL     1     -20.185  -9.857  -2.461  1.00  0.00    -0.277 OA
BRANCH  45  46
HETATM   46  C   UNL     1     -21.464 -10.406  -2.537  1.00  0.00     0.268 C 
HETATM   47  O   UNL     1     -22.282 -10.057  -3.371  1.00  0.00    -0.264 OA
BRANCH  46  48
HETATM   48  C   UNL     1     -21.644 -11.486  -1.461  1.00  0.00     0.086 C 
BRANCH  48  49
HETATM   49  C   UNL     1     -22.155 -10.886  -0.141  1.00  0.00     0.014 C 
BRANCH  49  50
HETATM   50  C   UNL     1     -21.225 -10.057   0.748  1.00  0.00     0.001 C 
BRANCH  50  51
HETATM   51  C   UNL     1     -21.409  -8.543   0.785  1.00  0.00     0.000 C 
BRANCH  51  52
HETATM   52  C   UNL     1     -22.535  -8.061  -0.127  1.00  0.00    -0.000 C 
BRANCH  52  53
HETATM   53  C   UNL     1     -22.337  -6.690  -0.787  1.00  0.00    -0.005 C 
HETATM   54  C   UNL     1     -21.889  -6.700  -2.244  1.00  0.00     0.005 C 
ENDBRANCH  52  53
ENDBRANCH  51  52
ENDBRANCH  50  51
ENDBRANCH  49  50
ENDBRANCH  48  49
BRANCH  48  55
HETATM   55  C   UNL     1     -22.520 -12.686  -1.829  1.00  0.00     0.014 C 
BRANCH  55  56
HETATM   56  C   UNL     1     -23.848 -12.758  -1.100  1.00  0.00     0.001 C 
BRANCH  56  57
HETATM   57  C   UNL     1     -24.365 -14.197  -1.187  1.00  0.00     0.000 C 
BRANCH  57  58
HETATM   58  C   UNL     1     -23.333 -15.054  -1.895  1.00  0.00     0.000 C 
BRANCH  58  59
HETATM   59  C   UNL     1     -24.016 -16.154  -2.691  1.00  0.00     0.000 C 
BRANCH  59  60
HETATM   60  C   UNL     1     -24.519 -15.612  -4.022  1.00  0.00    -0.000 C 
BRANCH  60  61
HETATM   61  C   UNL     1     -23.386 -14.919  -4.769  1.00  0.00    -0.005 C 
HETATM   62  C   UNL     1     -23.308 -15.394  -6.203  1.00  0.00     0.005 C 
ENDBRANCH  60  61
ENDBRANCH  59  60
ENDBRANCH  58  59
ENDBRANCH  57  58
ENDBRANCH  56  57
ENDBRANCH  55  56
ENDBRANCH  48  55
ENDBRANCH  46  48
ENDBRANCH  45  46
ENDBRANCH   2  45
BRANCH   3  63
HETATM   63  O   UNL     1     -19.788  -7.860  -4.790  1.00  0.00    -0.270 OA
BRANCH  63  64
HETATM   64  C   UNL     1     -20.760  -7.669  -5.757  1.00  0.00     0.268 C 
HETATM   65  O   UNL     1     -21.525  -8.552  -6.106  1.00  0.00    -0.264 OA
BRANCH  64  66
HETATM   66  C   UNL     1     -20.807  -6.204  -6.227  1.00  0.00     0.086 C 
BRANCH  66  67
HETATM   67  C   UNL     1     -19.538  -5.903  -7.065  1.00  0.00     0.014 C 
BRANCH  67  68
HETATM   68  C   UNL     1     -19.158  -4.416  -7.267  1.00  0.00     0.001 C 
BRANCH  68  69
HETATM   69  C   UNL     1     -19.498  -3.813  -8.634  1.00  0.00     0.000 C 
BRANCH  69  70
HETATM   70  C   UNL     1     -19.843  -4.876  -9.698  1.00  0.00    -0.000 C 
BRANCH  70  71
HETATM   71  C   UNL     1     -20.505  -4.394 -10.995  1.00  0.00    -0.005 C 
HETATM   72  C   UNL     1     -20.450  -2.891 -11.188  1.00  0.00     0.005 C 
ENDBRANCH  70  71
ENDBRANCH  69  70
ENDBRANCH  68  69
ENDBRANCH  67  68
ENDBRANCH  66  67
BRANCH  66  73
HETATM   73  C   UNL     1     -22.043  -5.963  -7.099  1.00  0.00     0.014 C 
BRANCH  73  74
HETATM   74  C   UNL     1     -22.816  -4.682  -6.807  1.00  0.00     0.001 C 
BRANCH  74  75
HETATM   75  C   UNL     1     -22.905  -3.869  -8.111  1.00  0.00     0.000 C 
BRANCH  75  76
HETATM   76  C   UNL     1     -23.663  -4.599  -9.211  1.00  0.00     0.000 C 
BRANCH  76  77
HETATM   77  C   UNL     1     -24.626  -3.653  -9.992  1.00  0.00     0.000 C 
BRANCH  77  78
HETATM   78  C   UNL     1     -23.952  -2.972 -11.197  1.00  0.00    -0.000 C 
BRANCH  78  79
HETATM   79  C   UNL     1     -24.266  -3.322 -12.667  1.00  0.00    -0.005 C 
HETATM   80  C   UNL     1     -23.227  -2.912 -13.750  1.00  0.00     0.005 C 
ENDBRANCH  78  79
ENDBRANCH  77  78
ENDBRANCH  76  77
ENDBRANCH  75  76
ENDBRANCH  74  75
ENDBRANCH  73  74
ENDBRANCH  66  73
ENDBRANCH  64  66
ENDBRANCH  63  64
ENDBRANCH   3  63
TORSDOF 62
ENDMDL
MODEL 4
REMARK VINA RESULT:      -6.4      2.132     10.997
REMARK WARNING: 32 MAX_TORS EXCEEDED!!!
REMARK  62 active torsions:
REMARK  status: ('A' for Active; 'I' for Inactive)
REMARK    1  A    between atoms: C_2  and  C_3 
REMARK    2  A    between atoms: C_3  and  C_4 
REMARK    3  A    between atoms: C_4  and  C_5 
REMARK    4  A    between atoms: C_5  and  C_6 
REMARK    5  A    between atoms: C_6  and  C_7 
REMARK    6  A    between atoms: C_7  and  C_8 
REMARK    7  A    between atoms: C_8  and  C_9 
REMARK    8  A    between atoms: C_9  and  C_10 
REMARK    9  A    between atoms: C_9  and  C_16 
REMARK   10  A    between atoms: C_10  and  C_11 
REMARK   11  A    between atoms: C_11  and  C_12 
REMARK   12  A    between atoms: C_12  and  C_13 
REMARK   13  A    between atoms: C_13  and  C_14 
REMARK   14  A    between atoms: C_16  and  O_18 
REMARK   15  A    between atoms: O_18  and  C_19 
REMARK   16  A    between atoms: C_19  and  C_20 
REMARK   17  A    between atoms: C_20  and  C_21 
REMARK   18  A    between atoms: C_20  and  O_63 
REMARK   19  A    between atoms: C_22  and  O_45 
REMARK   20  A    between atoms: C_23  and  O_27 
REMARK   21  A    between atoms: O_27  and  C_28 
REMARK   22  A    between atoms: C_28  and  C_30 
REMARK   23  A    between atoms: C_30  and  C_31 
REMARK   24  A    between atoms: C_30  and  C_37 
REMARK   25  A    between atoms: C_31  and  C_32 
REMARK   26  A    between atoms: C_32  and  C_33 
REMARK   27  A    between atoms: C_33  and  C_34 
REMARK   28  A    between atoms: C_34  and  C_35 
REMARK   29  A    between atoms: C_37  and  C_38 
REMARK   30  A    between atoms: C_38  and  C_39 
REMARK   31  A    between atoms: C_39  and  C_40 
REMARK   32  A    between atoms: C_40  and  C_41 
REMARK   33  A    between atoms: C_41  and  C_42 
REMARK   34  A    between atoms: C_42  and  C_43 
REMARK   35  A    between atoms: O_45  and  C_46 
REMARK   36  A    between atoms: C_46  and  C_48 
REMARK   37  A    between atoms: C_48  and  C_49 
REMARK   38  A    between atoms: C_48  and  C_55 
REMARK   39  A    between atoms: C_49  and  C_50 
REMARK   40  A    between atoms: C_50  and  C_51 
REMARK   41  A    between atoms: C_51  and  C_52 
REMARK   42  A    between atoms: C_52  and  C_53 
REMARK   43  A    between atoms: C_55  and  C_56 
REMARK   44  A    between atoms: C_56  and  C_57 
REMARK   45  A    between atoms: C_57  and  C_58 
REMARK   46  A    between atoms: C_58  and  C_59 
REMARK   47  A    between atoms: C_59  and  C_60 
REMARK   48  A    between atoms: C_60  and  C_61 
REMARK   49  A    between atoms: O_63  and  C_64 
REMARK   50  A    between atoms: C_64  and  C_66 
REMARK   51  A    between atoms: C_66  and  C_67 
REMARK   52  A    between atoms: C_66  and  C_73 
REMARK   53  A    between atoms: C_67  and  C_68 
REMARK   54  A    between atoms: C_68  and  C_69 
REMARK   55  A    between atoms: C_69  and  C_70 
REMARK   56  A    between atoms: C_70  and  C_71 
REMARK   57  A    between atoms: C_73  and  C_74 
REMARK   58  A    between atoms: C_74  and  C_75 
REMARK   59  A    between atoms: C_75  and  C_76 
REMARK   60  A    between atoms: C_76  and  C_77 
REMARK   61  A    between atoms: C_77  and  C_78 
REMARK   62  A    between atoms: C_78  and  C_79 
ROOT
HETATM    1  C   UNL     1     -18.560 -10.953  -3.825  1.00  0.00     0.224 C 
HETATM    2  C   UNL     1     -19.697  -9.967  -3.757  1.00  0.00     0.129 C 
HETATM    3  C   UNL     1     -19.509  -8.964  -4.670  1.00  0.00     0.186 C 
HETATM    4  C   UNL     1     -18.345  -9.358  -5.486  1.00  0.00     0.321 C 
HETATM    5  O   UNL     1     -17.902  -8.740  -6.417  1.00  0.00    -0.257 OA
HETATM    6  O   UNL     1     -17.856 -10.537  -5.008  1.00  0.00    -0.301 OA
ENDROOT
BRANCH   1   7
HETATM    7  C   UNL     1     -17.534 -11.047  -2.620  1.00  0.00     0.192 C 
BRANCH   7   8
HETATM    8  C   UNL     1     -16.062 -10.662  -2.957  1.00  0.00     0.214 C 
BRANCH   8   9
HETATM    9  O   UNL     1     -15.212 -11.858  -3.045  1.00  0.00    -0.319 OA
BRANCH   9  10
HETATM   10  C   UNL     1     -14.523 -12.119  -4.194  1.00  0.00     0.263 C 
HETATM   11  O   UNL     1     -14.607 -11.408  -5.189  1.00  0.00    -0.265 OA
BRANCH  10  12
HETATM   12  C   UNL     1     -13.746 -13.468  -4.178  1.00  0.00     0.085 C 
BRANCH  12  13
HETATM   13  C   UNL     1     -13.384 -13.847  -2.702  1.00  0.00     0.014 C 
BRANCH  13  14
HETATM   14  C   UNL     1     -14.040 -15.020  -1.927  1.00  0.00     0.001 C 
BRANCH  14  15
HETATM   15  C   UNL     1     -13.358 -15.544  -0.651  1.00  0.00     0.000 C 
BRANCH  15  16
HETATM   16  C   UNL     1     -12.011 -14.825  -0.400  1.00  0.00     0.000 C 
BRANCH  16  17
HETATM   17  C   UNL     1     -11.338 -15.269   0.905  1.00  0.00     0.000 C 
BRANCH  17  18
HETATM   18  C   UNL     1     -10.822 -14.064   1.698  1.00  0.00    -0.000 C 
BRANCH  18  19
HETATM   19  C   UNL     1      -9.513 -13.520   1.126  1.00  0.00    -0.005 C 
HETATM   20  C   UNL     1      -8.393 -14.540   1.260  1.00  0.00     0.005 C 
ENDBRANCH  18  19
ENDBRANCH  17  18
ENDBRANCH  16  17
ENDBRANCH  15  16
ENDBRANCH  14  15
ENDBRANCH  13  14
ENDBRANCH  12  13
BRANCH  12  21
HETATM   21  C   UNL     1     -14.365 -14.572  -5.083  1.00  0.00     0.014 C 
BRANCH  21  22
HETATM   22  C   UNL     1     -15.353 -14.318  -6.243  1.00  0.00     0.001 C 
BRANCH  22  23
HETATM   23  C   UNL     1     -16.874 -14.152  -6.052  1.00  0.00     0.000 C 
BRANCH  23  24
HETATM   24  C   UNL     1     -17.915 -14.668  -7.066  1.00  0.00    -0.000 C 
BRANCH  24  25
HETATM   25  C   UNL     1     -17.938 -14.163  -8.515  1.00  0.00    -0.005 C 
HETATM   26  C   UNL     1     -19.139 -13.318  -8.919  1.00  0.00     0.005 C 
ENDBRANCH  24  25
ENDBRANCH  23  24
ENDBRANCH  22  23
ENDBRANCH  21  22
ENDBRANCH  12  21
ENDBRANCH  10  12
ENDBRANCH   9  10
ENDBRANCH   8   9
ENDBRANCH   7   8
BRANCH   7  27
HETATM   27  O   UNL     1     -17.581 -12.416  -2.143  1.00  0.00    -0.310 OA
BRANCH  27  28
HETATM   28  C   UNL     1     -18.597 -12.782  -1.299  1.00  0.00     0.263 C 
HETATM   29  O   UNL     1     -19.135 -12.066  -0.461  1.00  0.00    -0.265 OA
BRANCH  28  30
HETATM   30  C   UNL     1     -18.988 -14.232  -1.530  1.00  0.00     0.085 C 
BRANCH  30  31
HETATM   31  C   UNL     1     -19.160 -14.447  -3.030  1.00  0.00     0.014 C 
BRANCH  31  32
HETATM   32  C   UNL     1     -19.966 -15.704  -3.338  1.00  0.00     0.001 C 
BRANCH  32  33
HETATM   33  C   UNL     1     -20.940 -15.471  -4.482  1.00  0.00     0.000 C 
BRANCH  33  34
HETATM   34  C   UNL     1     -20.801 -14.037  -4.982  1.00  0.00    -0.000 C 
BRANCH  34  35
HETATM   35  C   UNL     1     -21.638 -13.807  -6.232  1.00  0.00    -0.005 C 
HETATM   36  C   UNL     1     -22.909 -13.047  -5.893  1.00  0.00     0.005 C 
ENDBRANCH  34  35
ENDBRANCH  33  34
ENDBRANCH  32  33
ENDBRANCH  31  32
ENDBRANCH  30  31
BRANCH  30  37
HETATM   37  C   UNL     1     -17.970 -15.209  -0.937  1.00  0.00     0.014 C 
BRANCH  37  38
HETATM   38  C   UNL     1     -18.254 -15.449   0.523  1.00  0.00     0.001 C 
BRANCH  38  39
HETATM   39  C   UNL     1     -17.128 -16.224   1.141  1.00  0.00     0.000 C 
BRANCH  39  40
HETATM   40  C   UNL     1     -16.759 -15.499   2.402  1.00  0.00     0.000 C 
BRANCH  40  41
HETATM   41  C   UNL     1     -15.453 -14.844   2.170  1.00  0.00     0.000 C 
BRANCH  41  42
HETATM   42  C   UNL     1     -15.563 -13.430   2.658  1.00  0.00    -0.000 C 
BRANCH  42  43
HETATM   43  C   UNL     1     -16.193 -12.672   1.547  1.00  0.00    -0.005 C 
HETATM   44  C   UNL     1     -15.151 -12.423   0.503  1.00  0.00     0.005 C 
ENDBRANCH  42  43
ENDBRANCH  41  42
ENDBRANCH  40  41
ENDBRANCH  39  40
ENDBRANCH  38  39
ENDBRANCH  37  38
ENDBRANCH  30  37
ENDBRANCH  28  30
ENDBRANCH  27  28
ENDBRANCH   7  27
ENDBRANCH   1   7
BRANCH   2  45
HETATM   45  O   UNL     1     -20.613  -9.943  -2.716  1.00  0.00    -0.277 OA
BRANCH  45  46
HETATM   46  C   UNL     1     -21.890 -10.457  -2.934  1.00  0.00     0.268 C 
HETATM   47  O   UNL     1     -22.550 -10.187  -3.922  1.00  0.00    -0.264 OA
BRANCH  46  48
HETATM   48  C   UNL     1     -22.289 -11.394  -1.784  1.00  0.00     0.086 C 
BRANCH  48  49
HETATM   49  C   UNL     1     -23.473 -10.830  -0.982  1.00  0.00     0.014 C 
BRANCH  49  50
HETATM   50  C   UNL     1     -23.233 -10.025   0.297  1.00  0.00     0.001 C 
BRANCH  50  51
HETATM   51  C   UNL     1     -23.407  -8.509   0.248  1.00  0.00     0.000 C 
BRANCH  51  52
HETATM   52  C   UNL     1     -22.077  -7.760   0.257  1.00  0.00    -0.000 C 
BRANCH  52  53
HETATM   53  C   UNL     1     -21.490  -7.399  -1.114  1.00  0.00    -0.005 C 
HETATM   54  C   UNL     1     -22.198  -6.289  -1.882  1.00  0.00     0.005 C 
ENDBRANCH  52  53
ENDBRANCH  51  52
ENDBRANCH  50  51
ENDBRANCH  49  50
ENDBRANCH  48  49
BRANCH  48  55
HETATM   55  C   UNL     1     -22.591 -12.848  -2.155  1.00  0.00     0.014 C 
BRANCH  55  56
HETATM   56  C   UNL     1     -23.365 -13.628  -1.110  1.00  0.00     0.001 C 
BRANCH  56  57
HETATM   57  C   UNL     1     -22.378 -14.512  -0.343  1.00  0.00     0.000 C 
BRANCH  57  58
HETATM   58  C   UNL     1     -21.969 -13.808   0.936  1.00  0.00     0.000 C 
BRANCH  58  59
HETATM   59  C   UNL     1     -23.177 -13.602   1.836  1.00  0.00     0.000 C 
BRANCH  59  60
HETATM   60  C   UNL     1     -23.148 -14.586   2.997  1.00  0.00    -0.000 C 
BRANCH  60  61
HETATM   61  C   UNL     1     -24.428 -15.414   3.016  1.00  0.00    -0.005 C 
HETATM   62  C   UNL     1     -25.108 -15.332   4.365  1.00  0.00     0.005 C 
ENDBRANCH  60  61
ENDBRANCH  59  60
ENDBRANCH  58  59
ENDBRANCH  57  58
ENDBRANCH  56  57
ENDBRANCH  55  56
ENDBRANCH  48  55
ENDBRANCH  46  48
ENDBRANCH  45  46
ENDBRANCH   2  45
BRANCH   3  63
HETATM   63  O   UNL     1     -20.033  -7.645  -4.705  1.00  0.00    -0.270 OA
BRANCH  63  64
HETATM   64  C   UNL     1     -21.017  -7.315  -5.620  1.00  0.00     0.268 C 
HETATM   65  O   UNL     1     -21.517  -8.133  -6.374  1.00  0.00    -0.264 OA
BRANCH  64  66
HETATM   66  C   UNL     1     -21.452  -5.846  -5.474  1.00  0.00     0.086 C 
BRANCH  66  67
HETATM   67  C   UNL     1     -20.345  -4.931  -6.058  1.00  0.00     0.014 C 
BRANCH  67  68
HETATM   68  C   UNL     1     -19.388  -5.555  -7.103  1.00  0.00     0.001 C 
BRANCH  68  69
HETATM   69  C   UNL     1     -19.733  -5.296  -8.573  1.00  0.00     0.000 C 
BRANCH  69  70
HETATM   70  C   UNL     1     -19.847  -3.795  -8.914  1.00  0.00    -0.000 C 
BRANCH  70  71
HETATM   71  C   UNL     1     -20.509  -3.418 -10.245  1.00  0.00    -0.005 C 
HETATM   72  C   UNL     1     -20.665  -4.583 -11.203  1.00  0.00     0.005 C 
ENDBRANCH  70  71
ENDBRANCH  69  70
ENDBRANCH  68  69
ENDBRANCH  67  68
ENDBRANCH  66  67
BRANCH  66  73
HETATM   73  C   UNL     1     -22.754  -5.596  -6.243  1.00  0.00     0.014 C 
BRANCH  73  74
HETATM   74  C   UNL     1     -22.804  -4.307  -7.054  1.00  0.00     0.001 C 
BRANCH  74  75
HETATM   75  C   UNL     1     -23.465  -4.621  -8.409  1.00  0.00     0.000 C 
BRANCH  75  76
HETATM   76  C   UNL     1     -23.935  -3.372  -9.140  1.00  0.00     0.000 C 
BRANCH  76  77
HETATM   77  C   UNL     1     -24.600  -3.703 -10.511  1.00  0.00     0.000 C 
BRANCH  77  78
HETATM   78  C   UNL     1     -23.932  -2.978 -11.694  1.00  0.00    -0.000 C 
BRANCH  78  79
HETATM   79  C   UNL     1     -23.814  -3.578 -13.111  1.00  0.00    -0.005 C 
HETATM   80  C   UNL     1     -23.056  -2.751 -14.188  1.00  0.00     0.005 C 
ENDBRANCH  78  79
ENDBRANCH  77  78
ENDBRANCH  76  77
ENDBRANCH  75  76
ENDBRANCH  74  75
ENDBRANCH  73  74
ENDBRANCH  66  73
ENDBRANCH  64  66
ENDBRANCH  63  64
ENDBRANCH   3  63
TORSDOF 62
ENDMDL
MODEL 5
REMARK VINA RESULT:      -6.3      2.709     12.732
REMARK WARNING: 32 MAX_TORS EXCEEDED!!!
REMARK  62 active torsions:
REMARK  status: ('A' for Active; 'I' for Inactive)
REMARK    1  A    between atoms: C_2  and  C_3 
REMARK    2  A    between atoms: C_3  and  C_4 
REMARK    3  A    between atoms: C_4  and  C_5 
REMARK    4  A    between atoms: C_5  and  C_6 
REMARK    5  A    between atoms: C_6  and  C_7 
REMARK    6  A    between atoms: C_7  and  C_8 
REMARK    7  A    between atoms: C_8  and  C_9 
REMARK    8  A    between atoms: C_9  and  C_10 
REMARK    9  A    between atoms: C_9  and  C_16 
REMARK   10  A    between atoms: C_10  and  C_11 
REMARK   11  A    between atoms: C_11  and  C_12 
REMARK   12  A    between atoms: C_12  and  C_13 
REMARK   13  A    between atoms: C_13  and  C_14 
REMARK   14  A    between atoms: C_16  and  O_18 
REMARK   15  A    between atoms: O_18  and  C_19 
REMARK   16  A    between atoms: C_19  and  C_20 
REMARK   17  A    between atoms: C_20  and  C_21 
REMARK   18  A    between atoms: C_20  and  O_63 
REMARK   19  A    between atoms: C_22  and  O_45 
REMARK   20  A    between atoms: C_23  and  O_27 
REMARK   21  A    between atoms: O_27  and  C_28 
REMARK   22  A    between atoms: C_28  and  C_30 
REMARK   23  A    between atoms: C_30  and  C_31 
REMARK   24  A    between atoms: C_30  and  C_37 
REMARK   25  A    between atoms: C_31  and  C_32 
REMARK   26  A    between atoms: C_32  and  C_33 
REMARK   27  A    between atoms: C_33  and  C_34 
REMARK   28  A    between atoms: C_34  and  C_35 
REMARK   29  A    between atoms: C_37  and  C_38 
REMARK   30  A    between atoms: C_38  and  C_39 
REMARK   31  A    between atoms: C_39  and  C_40 
REMARK   32  A    between atoms: C_40  and  C_41 
REMARK   33  A    between atoms: C_41  and  C_42 
REMARK   34  A    between atoms: C_42  and  C_43 
REMARK   35  A    between atoms: O_45  and  C_46 
REMARK   36  A    between atoms: C_46  and  C_48 
REMARK   37  A    between atoms: C_48  and  C_49 
REMARK   38  A    between atoms: C_48  and  C_55 
REMARK   39  A    between atoms: C_49  and  C_50 
REMARK   40  A    between atoms: C_50  and  C_51 
REMARK   41  A    between atoms: C_51  and  C_52 
REMARK   42  A    between atoms: C_52  and  C_53 
REMARK   43  A    between atoms: C_55  and  C_56 
REMARK   44  A    between atoms: C_56  and  C_57 
REMARK   45  A    between atoms: C_57  and  C_58 
REMARK   46  A    between atoms: C_58  and  C_59 
REMARK   47  A    between atoms: C_59  and  C_60 
REMARK   48  A    between atoms: C_60  and  C_61 
REMARK   49  A    between atoms: O_63  and  C_64 
REMARK   50  A    between atoms: C_64  and  C_66 
REMARK   51  A    between atoms: C_66  and  C_67 
REMARK   52  A    between atoms: C_66  and  C_73 
REMARK   53  A    between atoms: C_67  and  C_68 
REMARK   54  A    between atoms: C_68  and  C_69 
REMARK   55  A    between atoms: C_69  and  C_70 
REMARK   56  A    between atoms: C_70  and  C_71 
REMARK   57  A    between atoms: C_73  and  C_74 
REMARK   58  A    between atoms: C_74  and  C_75 
REMARK   59  A    between atoms: C_75  and  C_76 
REMARK   60  A    between atoms: C_76  and  C_77 
REMARK   61  A    between atoms: C_77  and  C_78 
REMARK   62  A    between atoms: C_78  and  C_79 
ROOT
HETATM    1  C   UNL     1     -20.466  -9.668  -2.085  1.00  0.00     0.224 C 
HETATM    2  C   UNL     1     -19.953  -8.615  -3.032  1.00  0.00     0.129 C 
HETATM    3  C   UNL     1     -20.689  -7.467  -2.907  1.00  0.00     0.186 C 
HETATM    4  C   UNL     1     -21.582  -7.669  -1.751  1.00  0.00     0.321 C 
HETATM    5  O   UNL     1     -22.352  -6.858  -1.311  1.00  0.00    -0.257 OA
HETATM    6  O   UNL     1     -21.387  -8.928  -1.264  1.00  0.00    -0.301 OA
ENDROOT
BRANCH   1   7
HETATM    7  C   UNL     1     -21.201 -10.948  -2.662  1.00  0.00     0.192 C 
BRANCH   7   8
HETATM    8  C   UNL     1     -22.731 -11.032  -2.376  1.00  0.00     0.214 C 
BRANCH   8   9
HETATM    9  O   UNL     1     -23.086 -12.333  -1.794  1.00  0.00    -0.319 OA
BRANCH   9  10
HETATM   10  C   UNL     1     -23.586 -12.397  -0.524  1.00  0.00     0.263 C 
HETATM   11  O   UNL     1     -23.982 -11.405   0.078  1.00  0.00    -0.265 OA
BRANCH  10  12
HETATM   12  C   UNL     1     -23.470 -13.802   0.136  1.00  0.00     0.085 C 
BRANCH  12  13
HETATM   13  C   UNL     1     -23.399 -13.644   1.693  1.00  0.00     0.014 C 
BRANCH  13  14
HETATM   14  C   UNL     1     -22.441 -14.463   2.599  1.00  0.00     0.001 C 
BRANCH  14  15
HETATM   15  C   UNL     1     -23.022 -15.212   3.811  1.00  0.00     0.000 C 
BRANCH  15  16
HETATM   16  C   UNL     1     -24.534 -14.927   3.975  1.00  0.00     0.000 C 
BRANCH  16  17
HETATM   17  C   UNL     1     -25.396 -16.184   3.798  1.00  0.00     0.000 C 
BRANCH  17  18
HETATM   18  C   UNL     1     -26.611 -16.156   4.730  1.00  0.00    -0.000 C 
BRANCH  18  19
HETATM   19  C   UNL     1     -26.616 -14.920   5.630  1.00  0.00    -0.005 C 
HETATM   20  C   UNL     1     -27.935 -14.793   6.374  1.00  0.00     0.005 C 
ENDBRANCH  18  19
ENDBRANCH  17  18
ENDBRANCH  16  17
ENDBRANCH  15  16
ENDBRANCH  14  15
ENDBRANCH  13  14
ENDBRANCH  12  13
BRANCH  12  21
HETATM   21  C   UNL     1     -24.449 -14.863  -0.445  1.00  0.00     0.014 C 
BRANCH  21  22
HETATM   22  C   UNL     1     -24.607 -16.306   0.082  1.00  0.00     0.001 C 
BRANCH  22  23
HETATM   23  C   UNL     1     -25.968 -16.961   0.395  1.00  0.00     0.000 C 
BRANCH  23  24
HETATM   24  C   UNL     1     -27.317 -16.367  -0.058  1.00  0.00    -0.000 C 
BRANCH  24  25
HETATM   25  C   UNL     1     -28.561 -16.434   0.838  1.00  0.00    -0.005 C 
HETATM   26  C   UNL     1     -29.712 -15.508   0.468  1.00  0.00     0.005 C 
ENDBRANCH  24  25
ENDBRANCH  23  24
ENDBRANCH  22  23
ENDBRANCH  21  22
ENDBRANCH  12  21
ENDBRANCH  10  12
ENDBRANCH   9  10
ENDBRANCH   8   9
ENDBRANCH   7   8
BRANCH   7  27
HETATM   27  O   UNL     1     -20.535 -12.101  -2.087  1.00  0.00    -0.310 OA
BRANCH  27  28
HETATM   28  C   UNL     1     -19.831 -11.940  -0.923  1.00  0.00     0.263 C 
HETATM   29  O   UNL     1     -20.278 -11.525   0.142  1.00  0.00    -0.265 OA
BRANCH  28  30
HETATM   30  C   UNL     1     -18.380 -12.347  -1.114  1.00  0.00     0.085 C 
BRANCH  30  31
HETATM   31  C   UNL     1     -17.584 -11.860   0.092  1.00  0.00     0.014 C 
BRANCH  31  32
HETATM   32  C   UNL     1     -16.081 -11.895  -0.164  1.00  0.00     0.001 C 
BRANCH  32  33
HETATM   33  C   UNL     1     -15.360 -12.725   0.885  1.00  0.00     0.000 C 
BRANCH  33  34
HETATM   34  C   UNL     1     -14.679 -13.912   0.212  1.00  0.00    -0.000 C 
BRANCH  34  35
HETATM   35  C   UNL     1     -13.191 -13.945   0.533  1.00  0.00    -0.005 C 
HETATM   36  C   UNL     1     -12.777 -15.328   1.004  1.00  0.00     0.005 C 
ENDBRANCH  34  35
ENDBRANCH  33  34
ENDBRANCH  32  33
ENDBRANCH  31  32
ENDBRANCH  30  31
BRANCH  30  37
HETATM   37  C   UNL     1     -18.223 -13.856  -1.317  1.00  0.00     0.014 C 
BRANCH  37  38
HETATM   38  C   UNL     1     -17.501 -14.145  -2.608  1.00  0.00     0.001 C 
BRANCH  38  39
HETATM   39  C   UNL     1     -18.155 -15.298  -3.311  1.00  0.00     0.000 C 
BRANCH  39  40
HETATM   40  C   UNL     1     -19.523 -14.829  -3.710  1.00  0.00     0.000 C 
BRANCH  40  41
HETATM   41  C   UNL     1     -20.452 -15.967  -3.531  1.00  0.00     0.000 C 
BRANCH  41  42
HETATM   42  C   UNL     1     -21.404 -15.606  -2.430  1.00  0.00    -0.000 C 
BRANCH  42  43
HETATM   43  C   UNL     1     -21.387 -16.758  -1.493  1.00  0.00    -0.005 C 
HETATM   44  C   UNL     1     -20.710 -16.322  -0.232  1.00  0.00     0.005 C 
ENDBRANCH  42  43
ENDBRANCH  41  42
ENDBRANCH  40  41
ENDBRANCH  39  40
ENDBRANCH  38  39
ENDBRANCH  37  38
ENDBRANCH  30  37
ENDBRANCH  28  30
ENDBRANCH  27  28
ENDBRANCH   7  27
ENDBRANCH   1   7
BRANCH   2  45
HETATM   45  O   UNL     1     -19.075  -8.896  -4.069  1.00  0.00    -0.277 OA
BRANCH  45  46
HETATM   46  C   UNL     1     -17.838  -9.462  -3.765  1.00  0.00     0.268 C 
HETATM   47  O   UNL     1     -17.277  -9.287  -2.697  1.00  0.00    -0.264 OA
BRANCH  46  48
HETATM   48  C   UNL     1     -17.343 -10.319  -4.939  1.00  0.00     0.086 C 
BRANCH  48  49
HETATM   49  C   UNL     1     -15.810 -10.422  -4.954  1.00  0.00     0.014 C 
BRANCH  49  50
HETATM   50  C   UNL     1     -15.121 -11.786  -4.851  1.00  0.00     0.001 C 
BRANCH  50  51
HETATM   51  C   UNL     1     -14.603 -12.240  -3.489  1.00  0.00     0.000 C 
BRANCH  51  52
HETATM   52  C   UNL     1     -13.155 -12.719  -3.536  1.00  0.00    -0.000 C 
BRANCH  52  53
HETATM   53  C   UNL     1     -12.912 -14.189  -3.167  1.00  0.00    -0.005 C 
HETATM   54  C   UNL     1     -14.102 -15.130  -3.322  1.00  0.00     0.005 C 
ENDBRANCH  52  53
ENDBRANCH  51  52
ENDBRANCH  50  51
ENDBRANCH  49  50
ENDBRANCH  48  49
BRANCH  48  55
HETATM   55  C   UNL     1     -17.934 -11.726  -5.062  1.00  0.00     0.014 C 
BRANCH  55  56
HETATM   56  C   UNL     1     -19.136 -11.838  -5.980  1.00  0.00     0.001 C 
BRANCH  56  57
HETATM   57  C   UNL     1     -18.630 -12.104  -7.401  1.00  0.00     0.000 C 
BRANCH  57  58
HETATM   58  C   UNL     1     -19.346 -13.316  -7.966  1.00  0.00     0.000 C 
BRANCH  58  59
HETATM   59  C   UNL     1     -20.822 -13.272  -7.608  1.00  0.00     0.000 C 
BRANCH  59  60
HETATM   60  C   UNL     1     -21.250 -14.579  -6.955  1.00  0.00    -0.000 C 
BRANCH  60  61
HETATM   61  C   UNL     1     -22.655 -14.443  -6.380  1.00  0.00    -0.005 C 
HETATM   62  C   UNL     1     -22.679 -13.463  -5.228  1.00  0.00     0.005 C 
ENDBRANCH  60  61
ENDBRANCH  59  60
ENDBRANCH  58  59
ENDBRANCH  57  58
ENDBRANCH  56  57
ENDBRANCH  55  56
ENDBRANCH  48  55
ENDBRANCH  46  48
ENDBRANCH  45  46
ENDBRANCH   2  45
BRANCH   3  63
HETATM   63  O   UNL     1     -20.880  -6.396  -3.819  1.00  0.00    -0.270 OA
BRANCH  63  64
HETATM   64  C   UNL     1     -21.629  -6.588  -4.967  1.00  0.00     0.268 C 
HETATM   65  O   UNL     1     -22.459  -7.476  -5.071  1.00  0.00    -0.264 OA
BRANCH  64  66
HETATM   66  C   UNL     1     -21.353  -5.491  -6.010  1.00  0.00     0.086 C 
BRANCH  66  67
HETATM   67  C   UNL     1     -19.936  -5.701  -6.601  1.00  0.00     0.014 C 
BRANCH  67  68
HETATM   68  C   UNL     1     -19.162  -4.440  -7.056  1.00  0.00     0.001 C 
BRANCH  68  69
HETATM   69  C   UNL     1     -19.521  -3.892  -8.441  1.00  0.00     0.000 C 
BRANCH  69  70
HETATM   70  C   UNL     1     -19.909  -4.994  -9.448  1.00  0.00    -0.000 C 
BRANCH  70  71
HETATM   71  C   UNL     1     -20.310  -4.555 -10.862  1.00  0.00    -0.005 C 
HETATM   72  C   UNL     1     -20.380  -3.051 -11.039  1.00  0.00     0.005 C 
ENDBRANCH  70  71
ENDBRANCH  69  70
ENDBRANCH  68  69
ENDBRANCH  67  68
ENDBRANCH  66  67
BRANCH  66  73
HETATM   73  C   UNL     1     -22.378  -5.566  -7.147  1.00  0.00     0.014 C 
BRANCH  73  74
HETATM   74  C   UNL     1     -23.274  -4.343  -7.309  1.00  0.00     0.001 C 
BRANCH  74  75
HETATM   75  C   UNL     1     -23.114  -3.821  -8.749  1.00  0.00     0.000 C 
BRANCH  75  76
HETATM   76  C   UNL     1     -24.204  -4.323  -9.683  1.00  0.00     0.000 C 
BRANCH  76  77
HETATM   77  C   UNL     1     -24.568  -3.279 -10.783  1.00  0.00     0.000 C 
BRANCH  77  78
HETATM   78  C   UNL     1     -23.798  -3.500 -12.099  1.00  0.00    -0.000 C 
BRANCH  78  79
HETATM   79  C   UNL     1     -23.749  -2.470 -13.247  1.00  0.00    -0.005 C 
HETATM   80  C   UNL     1     -22.910  -2.827 -14.507  1.00  0.00     0.005 C 
ENDBRANCH  78  79
ENDBRANCH  77  78
ENDBRANCH  76  77
ENDBRANCH  75  76
ENDBRANCH  74  75
ENDBRANCH  73  74
ENDBRANCH  66  73
ENDBRANCH  64  66
ENDBRANCH  63  64
ENDBRANCH   3  63
TORSDOF 62
ENDMDL
MODEL 6
REMARK VINA RESULT:      -6.2      2.149      9.716
REMARK WARNING: 32 MAX_TORS EXCEEDED!!!
REMARK  62 active torsions:
REMARK  status: ('A' for Active; 'I' for Inactive)
REMARK    1  A    between atoms: C_2  and  C_3 
REMARK    2  A    between atoms: C_3  and  C_4 
REMARK    3  A    between atoms: C_4  and  C_5 
REMARK    4  A    between atoms: C_5  and  C_6 
REMARK    5  A    between atoms: C_6  and  C_7 
REMARK    6  A    between atoms: C_7  and  C_8 
REMARK    7  A    between atoms: C_8  and  C_9 
REMARK    8  A    between atoms: C_9  and  C_10 
REMARK    9  A    between atoms: C_9  and  C_16 
REMARK   10  A    between atoms: C_10  and  C_11 
REMARK   11  A    between atoms: C_11  and  C_12 
REMARK   12  A    between atoms: C_12  and  C_13 
REMARK   13  A    between atoms: C_13  and  C_14 
REMARK   14  A    between atoms: C_16  and  O_18 
REMARK   15  A    between atoms: O_18  and  C_19 
REMARK   16  A    between atoms: C_19  and  C_20 
REMARK   17  A    between atoms: C_20  and  C_21 
REMARK   18  A    between atoms: C_20  and  O_63 
REMARK   19  A    between atoms: C_22  and  O_45 
REMARK   20  A    between atoms: C_23  and  O_27 
REMARK   21  A    between atoms: O_27  and  C_28 
REMARK   22  A    between atoms: C_28  and  C_30 
REMARK   23  A    between atoms: C_30  and  C_31 
REMARK   24  A    between atoms: C_30  and  C_37 
REMARK   25  A    between atoms: C_31  and  C_32 
REMARK   26  A    between atoms: C_32  and  C_33 
REMARK   27  A    between atoms: C_33  and  C_34 
REMARK   28  A    between atoms: C_34  and  C_35 
REMARK   29  A    between atoms: C_37  and  C_38 
REMARK   30  A    between atoms: C_38  and  C_39 
REMARK   31  A    between atoms: C_39  and  C_40 
REMARK   32  A    between atoms: C_40  and  C_41 
REMARK   33  A    between atoms: C_41  and  C_42 
REMARK   34  A    between atoms: C_42  and  C_43 
REMARK   35  A    between atoms: O_45  and  C_46 
REMARK   36  A    between atoms: C_46  and  C_48 
REMARK   37  A    between atoms: C_48  and  C_49 
REMARK   38  A    between atoms: C_48  and  C_55 
REMARK   39  A    between atoms: C_49  and  C_50 
REMARK   40  A    between atoms: C_50  and  C_51 
REMARK   41  A    between atoms: C_51  and  C_52 
REMARK   42  A    between atoms: C_52  and  C_53 
REMARK   43  A    between atoms: C_55  and  C_56 
REMARK   44  A    between atoms: C_56  and  C_57 
REMARK   45  A    between atoms: C_57  and  C_58 
REMARK   46  A    between atoms: C_58  and  C_59 
REMARK   47  A    between atoms: C_59  and  C_60 
REMARK   48  A    between atoms: C_60  and  C_61 
REMARK   49  A    between atoms: O_63  and  C_64 
REMARK   50  A    between atoms: C_64  and  C_66 
REMARK   51  A    between atoms: C_66  and  C_67 
REMARK   52  A    between atoms: C_66  and  C_73 
REMARK   53  A    between atoms: C_67  and  C_68 
REMARK   54  A    between atoms: C_68  and  C_69 
REMARK   55  A    between atoms: C_69  and  C_70 
REMARK   56  A    between atoms: C_70  and  C_71 
REMARK   57  A    between atoms: C_73  and  C_74 
REMARK   58  A    between atoms: C_74  and  C_75 
REMARK   59  A    between atoms: C_75  and  C_76 
REMARK   60  A    between atoms: C_76  and  C_77 
REMARK   61  A    between atoms: C_77  and  C_78 
REMARK   62  A    between atoms: C_78  and  C_79 
ROOT
HETATM    1  C   UNL     1     -18.185 -13.166  -2.519  1.00  0.00     0.224 C 
HETATM    2  C   UNL     1     -17.595 -12.219  -3.531  1.00  0.00     0.129 C 
HETATM    3  C   UNL     1     -16.234 -12.363  -3.576  1.00  0.00     0.186 C 
HETATM    4  C   UNL     1     -15.911 -13.530  -2.734  1.00  0.00     0.321 C 
HETATM    5  O   UNL     1     -14.812 -13.985  -2.562  1.00  0.00    -0.257 OA
HETATM    6  O   UNL     1     -17.064 -14.004  -2.185  1.00  0.00    -0.301 OA
ENDROOT
BRANCH   1   7
HETATM    7  C   UNL     1     -18.815 -12.589  -1.184  1.00  0.00     0.192 C 
BRANCH   7   8
HETATM    8  C   UNL     1     -17.912 -11.602  -0.384  1.00  0.00     0.214 C 
BRANCH   8   9
HETATM    9  O   UNL     1     -17.264 -12.281   0.746  1.00  0.00    -0.319 OA
BRANCH   9  10
HETATM   10  C   UNL     1     -15.901 -12.314   0.829  1.00  0.00     0.263 C 
HETATM   11  O   UNL     1     -15.192 -11.431   0.361  1.00  0.00    -0.265 OA
BRANCH  10  12
HETATM   12  C   UNL     1     -15.331 -13.631   1.432  1.00  0.00     0.085 C 
BRANCH  12  13
HETATM   13  C   UNL     1     -16.342 -14.801   1.186  1.00  0.00     0.014 C 
BRANCH  13  14
HETATM   14  C   UNL     1     -17.135 -15.508   2.318  1.00  0.00     0.001 C 
BRANCH  14  15
HETATM   15  C   UNL     1     -18.048 -16.693   1.958  1.00  0.00     0.000 C 
BRANCH  15  16
HETATM   16  C   UNL     1     -19.260 -16.778   2.917  1.00  0.00     0.000 C 
BRANCH  16  17
HETATM   17  C   UNL     1     -20.401 -15.836   2.512  1.00  0.00     0.000 C 
BRANCH  17  18
HETATM   18  C   UNL     1     -21.719 -16.246   3.176  1.00  0.00    -0.000 C 
BRANCH  18  19
HETATM   19  C   UNL     1     -22.444 -15.051   3.796  1.00  0.00    -0.005 C 
HETATM   20  C   UNL     1     -23.748 -14.767   3.067  1.00  0.00     0.005 C 
ENDBRANCH  18  19
ENDBRANCH  17  18
ENDBRANCH  16  17
ENDBRANCH  15  16
ENDBRANCH  14  15
ENDBRANCH  13  14
ENDBRANCH  12  13
BRANCH  12  21
HETATM   21  C   UNL     1     -13.830 -13.884   1.109  1.00  0.00     0.014 C 
BRANCH  21  22
HETATM   22  C   UNL     1     -13.146 -15.269   1.101  1.00  0.00     0.001 C 
BRANCH  22  23
HETATM   23  C   UNL     1     -12.103 -15.716   2.145  1.00  0.00     0.000 C 
BRANCH  23  24
HETATM   24  C   UNL     1     -10.704 -15.079   2.271  1.00  0.00    -0.000 C 
BRANCH  24  25
HETATM   25  C   UNL     1     -10.103 -14.240   1.135  1.00  0.00    -0.005 C 
HETATM   26  C   UNL     1      -8.584 -14.249   1.017  1.00  0.00     0.005 C 
ENDBRANCH  24  25
ENDBRANCH  23  24
ENDBRANCH  22  23
ENDBRANCH  21  22
ENDBRANCH  12  21
ENDBRANCH  10  12
ENDBRANCH   9  10
ENDBRANCH   8   9
ENDBRANCH   7   8
BRANCH   7  27
HETATM   27  O   UNL     1     -19.141 -13.733  -0.353  1.00  0.00    -0.310 OA
BRANCH  27  28
HETATM   28  C   UNL     1     -20.056 -14.641  -0.816  1.00  0.00     0.263 C 
HETATM   29  O   UNL     1     -19.808 -15.759  -1.256  1.00  0.00    -0.265 OA
BRANCH  28  30
HETATM   30  C   UNL     1     -21.464 -14.079  -0.718  1.00  0.00     0.085 C 
BRANCH  30  31
HETATM   31  C   UNL     1     -22.448 -15.241  -0.783  1.00  0.00     0.014 C 
BRANCH  31  32
HETATM   32  C   UNL     1     -23.566 -14.988  -1.789  1.00  0.00     0.001 C 
BRANCH  32  33
HETATM   33  C   UNL     1     -24.898 -14.766  -1.091  1.00  0.00     0.000 C 
BRANCH  33  34
HETATM   34  C   UNL     1     -25.621 -16.100  -0.940  1.00  0.00    -0.000 C 
BRANCH  34  35
HETATM   35  C   UNL     1     -25.832 -16.447   0.527  1.00  0.00    -0.005 C 
HETATM   36  C   UNL     1     -27.256 -16.919   0.765  1.00  0.00     0.005 C 
ENDBRANCH  34  35
ENDBRANCH  33  34
ENDBRANCH  32  33
ENDBRANCH  31  32
ENDBRANCH  30  31
BRANCH  30  37
HETATM   37  C   UNL     1     -21.668 -13.242   0.548  1.00  0.00     0.014 C 
BRANCH  37  38
HETATM   38  C   UNL     1     -22.576 -12.072   0.269  1.00  0.00     0.001 C 
BRANCH  38  39
HETATM   39  C   UNL     1     -22.149 -11.383  -0.993  1.00  0.00     0.000 C 
BRANCH  39  40
HETATM   40  C   UNL     1     -23.406 -11.082  -1.755  1.00  0.00     0.000 C 
BRANCH  40  41
HETATM   41  C   UNL     1     -23.040 -10.964  -3.185  1.00  0.00     0.000 C 
BRANCH  41  42
HETATM   42  C   UNL     1     -21.978 -11.985  -3.466  1.00  0.00    -0.000 C 
BRANCH  42  43
HETATM   43  C   UNL     1     -22.332 -12.578  -4.781  1.00  0.00    -0.005 C 
HETATM   44  C   UNL     1     -21.529 -11.884  -5.835  1.00  0.00     0.005 C 
ENDBRANCH  42  43
ENDBRANCH  41  42
ENDBRANCH  40  41
ENDBRANCH  39  40
ENDBRANCH  38  39
ENDBRANCH  37  38
ENDBRANCH  30  37
ENDBRANCH  28  30
ENDBRANCH  27  28
ENDBRANCH   7  27
ENDBRANCH   1   7
BRANCH   2  45
HETATM   45  O   UNL     1     -18.310 -11.169  -4.089  1.00  0.00    -0.277 OA
BRANCH  45  46
HETATM   46  C   UNL     1     -18.302  -9.935  -3.442  1.00  0.00     0.268 C 
HETATM   47  O   UNL     1     -17.303  -9.468  -2.922  1.00  0.00    -0.264 OA
BRANCH  46  48
HETATM   48  C   UNL     1     -19.693  -9.288  -3.515  1.00  0.00     0.086 C 
BRANCH  48  49
HETATM   49  C   UNL     1     -20.127  -8.728  -2.151  1.00  0.00     0.014 C 
BRANCH  49  50
HETATM   50  C   UNL     1     -20.732  -7.326  -2.042  1.00  0.00     0.001 C 
BRANCH  50  51
HETATM   51  C   UNL     1     -22.217  -7.197  -1.715  1.00  0.00     0.000 C 
BRANCH  51  52
HETATM   52  C   UNL     1     -22.478  -6.987  -0.225  1.00  0.00    -0.000 C 
BRANCH  52  53
HETATM   53  C   UNL     1     -22.530  -8.253   0.642  1.00  0.00    -0.005 C 
HETATM   54  C   UNL     1     -21.246  -8.622   1.375  1.00  0.00     0.005 C 
ENDBRANCH  52  53
ENDBRANCH  51  52
ENDBRANCH  50  51
ENDBRANCH  49  50
ENDBRANCH  48  49
BRANCH  48  55
HETATM   55  C   UNL     1     -19.894  -8.207  -4.580  1.00  0.00     0.014 C 
BRANCH  55  56
HETATM   56  C   UNL     1     -21.227  -8.258  -5.302  1.00  0.00     0.001 C 
BRANCH  56  57
HETATM   57  C   UNL     1     -21.665  -6.822  -5.602  1.00  0.00     0.000 C 
BRANCH  57  58
HETATM   58  C   UNL     1     -20.471  -5.897  -5.455  1.00  0.00     0.000 C 
BRANCH  58  59
HETATM   59  C   UNL     1     -20.687  -4.625  -6.258  1.00  0.00     0.000 C 
BRANCH  59  60
HETATM   60  C   UNL     1     -21.938  -4.745  -7.117  1.00  0.00    -0.000 C 
BRANCH  60  61
HETATM   61  C   UNL     1     -21.570  -4.674  -8.594  1.00  0.00    -0.005 C 
HETATM   62  C   UNL     1     -20.165  -4.143  -8.780  1.00  0.00     0.005 C 
ENDBRANCH  60  61
ENDBRANCH  59  60
ENDBRANCH  58  59
ENDBRANCH  57  58
ENDBRANCH  56  57
ENDBRANCH  55  56
ENDBRANCH  48  55
ENDBRANCH  46  48
ENDBRANCH  45  46
ENDBRANCH   2  45
BRANCH   3  63
HETATM   63  O   UNL     1     -15.231 -11.461  -4.020  1.00  0.00    -0.270 OA
BRANCH  63  64
HETATM   64  C   UNL     1     -15.249 -10.990  -5.321  1.00  0.00     0.268 C 
HETATM   65  O   UNL     1     -15.566  -9.846  -5.603  1.00  0.00    -0.264 OA
BRANCH  64  66
HETATM   66  C   UNL     1     -14.721 -12.044  -6.310  1.00  0.00     0.086 C 
BRANCH  66  67
HETATM   67  C   UNL     1     -13.570 -12.836  -5.638  1.00  0.00     0.014 C 
BRANCH  67  68
HETATM   68  C   UNL     1     -13.152 -14.174  -6.294  1.00  0.00     0.001 C 
BRANCH  68  69
HETATM   69  C   UNL     1     -13.508 -15.445  -5.518  1.00  0.00     0.000 C 
BRANCH  69  70
HETATM   70  C   UNL     1     -14.128 -16.545  -6.407  1.00  0.00    -0.000 C 
BRANCH  70  71
HETATM   71  C   UNL     1     -15.658 -16.609  -6.495  1.00  0.00    -0.005 C 
HETATM   72  C   UNL     1     -16.361 -16.247  -5.201  1.00  0.00     0.005 C 
ENDBRANCH  70  71
ENDBRANCH  69  70
ENDBRANCH  68  69
ENDBRANCH  67  68
ENDBRANCH  66  67
BRANCH  66  73
HETATM   73  C   UNL     1     -15.837 -13.023  -6.691  1.00  0.00     0.014 C 
BRANCH  73  74
HETATM   74  C   UNL     1     -16.986 -12.432  -7.500  1.00  0.00     0.001 C 
BRANCH  74  75
HETATM   75  C   UNL     1     -18.288 -13.121  -7.054  1.00  0.00     0.000 C 
BRANCH  75  76
HETATM   76  C   UNL     1     -19.048 -13.751  -8.212  1.00  0.00     0.000 C 
BRANCH  76  77
HETATM   77  C   UNL     1     -18.731 -15.269  -8.372  1.00  0.00     0.000 C 
BRANCH  77  78
HETATM   78  C   UNL     1     -19.470 -16.149  -7.346  1.00  0.00    -0.000 C 
BRANCH  78  79
HETATM   79  C   UNL     1     -20.695 -15.675  -6.537  1.00  0.00    -0.005 C 
HETATM   80  C   UNL     1     -20.690 -15.921  -5.001  1.00  0.00     0.005 C 
ENDBRANCH  78  79
ENDBRANCH  77  78
ENDBRANCH  76  77
ENDBRANCH  75  76
ENDBRANCH  74  75
ENDBRANCH  73  74
ENDBRANCH  66  73
ENDBRANCH  64  66
ENDBRANCH  63  64
ENDBRANCH   3  63
TORSDOF 62
ENDMDL
MODEL 7
REMARK VINA RESULT:      -6.2      2.697     11.908
REMARK WARNING: 32 MAX_TORS EXCEEDED!!!
REMARK  62 active torsions:
REMARK  status: ('A' for Active; 'I' for Inactive)
REMARK    1  A    between atoms: C_2  and  C_3 
REMARK    2  A    between atoms: C_3  and  C_4 
REMARK    3  A    between atoms: C_4  and  C_5 
REMARK    4  A    between atoms: C_5  and  C_6 
REMARK    5  A    between atoms: C_6  and  C_7 
REMARK    6  A    between atoms: C_7  and  C_8 
REMARK    7  A    between atoms: C_8  and  C_9 
REMARK    8  A    between atoms: C_9  and  C_10 
REMARK    9  A    between atoms: C_9  and  C_16 
REMARK   10  A    between atoms: C_10  and  C_11 
REMARK   11  A    between atoms: C_11  and  C_12 
REMARK   12  A    between atoms: C_12  and  C_13 
REMARK   13  A    between atoms: C_13  and  C_14 
REMARK   14  A    between atoms: C_16  and  O_18 
REMARK   15  A    between atoms: O_18  and  C_19 
REMARK   16  A    between atoms: C_19  and  C_20 
REMARK   17  A    between atoms: C_20  and  C_21 
REMARK   18  A    between atoms: C_20  and  O_63 
REMARK   19  A    between atoms: C_22  and  O_45 
REMARK   20  A    between atoms: C_23  and  O_27 
REMARK   21  A    between atoms: O_27  and  C_28 
REMARK   22  A    between atoms: C_28  and  C_30 
REMARK   23  A    between atoms: C_30  and  C_31 
REMARK   24  A    between atoms: C_30  and  C_37 
REMARK   25  A    between atoms: C_31  and  C_32 
REMARK   26  A    between atoms: C_32  and  C_33 
REMARK   27  A    between atoms: C_33  and  C_34 
REMARK   28  A    between atoms: C_34  and  C_35 
REMARK   29  A    between atoms: C_37  and  C_38 
REMARK   30  A    between atoms: C_38  and  C_39 
REMARK   31  A    between atoms: C_39  and  C_40 
REMARK   32  A    between atoms: C_40  and  C_41 
REMARK   33  A    between atoms: C_41  and  C_42 
REMARK   34  A    between atoms: C_42  and  C_43 
REMARK   35  A    between atoms: O_45  and  C_46 
REMARK   36  A    between atoms: C_46  and  C_48 
REMARK   37  A    between atoms: C_48  and  C_49 
REMARK   38  A    between atoms: C_48  and  C_55 
REMARK   39  A    between atoms: C_49  and  C_50 
REMARK   40  A    between atoms: C_50  and  C_51 
REMARK   41  A    between atoms: C_51  and  C_52 
REMARK   42  A    between atoms: C_52  and  C_53 
REMARK   43  A    between atoms: C_55  and  C_56 
REMARK   44  A    between atoms: C_56  and  C_57 
REMARK   45  A    between atoms: C_57  and  C_58 
REMARK   46  A    between atoms: C_58  and  C_59 
REMARK   47  A    between atoms: C_59  and  C_60 
REMARK   48  A    between atoms: C_60  and  C_61 
REMARK   49  A    between atoms: O_63  and  C_64 
REMARK   50  A    between atoms: C_64  and  C_66 
REMARK   51  A    between atoms: C_66  and  C_67 
REMARK   52  A    between atoms: C_66  and  C_73 
REMARK   53  A    between atoms: C_67  and  C_68 
REMARK   54  A    between atoms: C_68  and  C_69 
REMARK   55  A    between atoms: C_69  and  C_70 
REMARK   56  A    between atoms: C_70  and  C_71 
REMARK   57  A    between atoms: C_73  and  C_74 
REMARK   58  A    between atoms: C_74  and  C_75 
REMARK   59  A    between atoms: C_75  and  C_76 
REMARK   60  A    between atoms: C_76  and  C_77 
REMARK   61  A    between atoms: C_77  and  C_78 
REMARK   62  A    between atoms: C_78  and  C_79 
ROOT
HETATM    1  C   UNL     1     -20.715  -9.522  -1.599  1.00  0.00     0.224 C 
HETATM    2  C   UNL     1     -20.299  -8.444  -2.564  1.00  0.00     0.129 C 
HETATM    3  C   UNL     1     -21.042  -7.312  -2.359  1.00  0.00     0.186 C 
HETATM    4  C   UNL     1     -21.835  -7.551  -1.138  1.00  0.00     0.321 C 
HETATM    5  O   UNL     1     -22.581  -6.762  -0.624  1.00  0.00    -0.257 OA
HETATM    6  O   UNL     1     -21.580  -8.814  -0.693  1.00  0.00    -0.301 OA
ENDROOT
BRANCH   1   7
HETATM    7  C   UNL     1     -21.472 -10.806  -2.139  1.00  0.00     0.192 C 
BRANCH   7   8
HETATM    8  C   UNL     1     -22.921 -11.010  -1.600  1.00  0.00     0.214 C 
BRANCH   8   9
HETATM    9  O   UNL     1     -23.375 -12.389  -1.823  1.00  0.00    -0.319 OA
BRANCH   9  10
HETATM   10  C   UNL     1     -23.699 -13.178  -0.757  1.00  0.00     0.263 C 
HETATM   11  O   UNL     1     -23.903 -12.723   0.362  1.00  0.00    -0.265 OA
BRANCH  10  12
HETATM   12  C   UNL     1     -23.642 -14.706  -1.054  1.00  0.00     0.085 C 
BRANCH  12  13
HETATM   13  C   UNL     1     -24.946 -15.392  -0.524  1.00  0.00     0.014 C 
BRANCH  13  14
HETATM   14  C   UNL     1     -24.957 -16.722   0.275  1.00  0.00     0.001 C 
BRANCH  14  15
HETATM   15  C   UNL     1     -25.879 -16.847   1.501  1.00  0.00     0.000 C 
BRANCH  15  16
HETATM   16  C   UNL     1     -25.060 -17.009   2.804  1.00  0.00     0.000 C 
BRANCH  16  17
HETATM   17  C   UNL     1     -25.187 -15.799   3.737  1.00  0.00     0.000 C 
BRANCH  17  18
HETATM   18  C   UNL     1     -24.242 -14.670   3.311  1.00  0.00    -0.000 C 
BRANCH  18  19
HETATM   19  C   UNL     1     -22.775 -15.029   3.554  1.00  0.00    -0.005 C 
HETATM   20  C   UNL     1     -21.952 -14.838   2.290  1.00  0.00     0.005 C 
ENDBRANCH  18  19
ENDBRANCH  17  18
ENDBRANCH  16  17
ENDBRANCH  15  16
ENDBRANCH  14  15
ENDBRANCH  13  14
ENDBRANCH  12  13
BRANCH  12  21
HETATM   21  C   UNL     1     -23.166 -15.059  -2.493  1.00  0.00     0.014 C 
BRANCH  21  22
HETATM   22  C   UNL     1     -21.690 -15.144  -2.942  1.00  0.00     0.001 C 
BRANCH  22  23
HETATM   23  C   UNL     1     -21.190 -14.698  -4.331  1.00  0.00     0.000 C 
BRANCH  23  24
HETATM   24  C   UNL     1     -22.119 -14.131  -5.424  1.00  0.00    -0.000 C 
BRANCH  24  25
HETATM   25  C   UNL     1     -22.310 -14.853  -6.764  1.00  0.00    -0.005 C 
HETATM   26  C   UNL     1     -23.374 -15.943  -6.800  1.00  0.00     0.005 C 
ENDBRANCH  24  25
ENDBRANCH  23  24
ENDBRANCH  22  23
ENDBRANCH  21  22
ENDBRANCH  12  21
ENDBRANCH  10  12
ENDBRANCH   9  10
ENDBRANCH   8   9
ENDBRANCH   7   8
BRANCH   7  27
HETATM   27  O   UNL     1     -20.655 -11.949  -1.780  1.00  0.00    -0.310 OA
BRANCH  27  28
HETATM   28  C   UNL     1     -20.221 -12.066  -0.486  1.00  0.00     0.263 C 
HETATM   29  O   UNL     1     -20.824 -11.693   0.516  1.00  0.00    -0.265 OA
BRANCH  28  30
HETATM   30  C   UNL     1     -18.857 -12.732  -0.437  1.00  0.00     0.085 C 
BRANCH  30  31
HETATM   31  C   UNL     1     -19.062 -14.243  -0.447  1.00  0.00     0.014 C 
BRANCH  31  32
HETATM   32  C   UNL     1     -18.732 -14.873   0.902  1.00  0.00     0.001 C 
BRANCH  32  33
HETATM   33  C   UNL     1     -17.645 -15.927   0.769  1.00  0.00     0.000 C 
BRANCH  33  34
HETATM   34  C   UNL     1     -16.303 -15.325   1.169  1.00  0.00    -0.000 C 
BRANCH  34  35
HETATM   35  C   UNL     1     -16.466 -14.321   2.302  1.00  0.00    -0.005 C 
HETATM   36  C   UNL     1     -15.719 -13.036   1.991  1.00  0.00     0.005 C 
ENDBRANCH  34  35
ENDBRANCH  33  34
ENDBRANCH  32  33
ENDBRANCH  31  32
ENDBRANCH  30  31
BRANCH  30  37
HETATM   37  C   UNL     1     -17.950 -12.281  -1.585  1.00  0.00     0.014 C 
BRANCH  37  38
HETATM   38  C   UNL     1     -16.897 -13.321  -1.868  1.00  0.00     0.001 C 
BRANCH  38  39
HETATM   39  C   UNL     1     -15.543 -12.677  -1.916  1.00  0.00     0.000 C 
BRANCH  39  40
HETATM   40  C   UNL     1     -14.569 -13.704  -1.416  1.00  0.00     0.000 C 
BRANCH  40  41
HETATM   41  C   UNL     1     -13.889 -14.281  -2.597  1.00  0.00     0.000 C 
BRANCH  41  42
HETATM   42  C   UNL     1     -14.207 -15.746  -2.633  1.00  0.00    -0.000 C 
BRANCH  42  43
HETATM   43  C   UNL     1     -13.147 -16.366  -3.468  1.00  0.00    -0.005 C 
HETATM   44  C   UNL     1     -13.007 -15.556  -4.718  1.00  0.00     0.005 C 
ENDBRANCH  42  43
ENDBRANCH  41  42
ENDBRANCH  40  41
ENDBRANCH  39  40
ENDBRANCH  38  39
ENDBRANCH  37  38
ENDBRANCH  30  37
ENDBRANCH  28  30
ENDBRANCH  27  28
ENDBRANCH   7  27
ENDBRANCH   1   7
BRANCH   2  45
HETATM   45  O   UNL     1     -19.502  -8.690  -3.673  1.00  0.00    -0.277 OA
BRANCH  45  46
HETATM   46  C   UNL     1     -18.256  -9.286  -3.485  1.00  0.00     0.268 C 
HETATM   47  O   UNL     1     -17.561  -9.065  -2.508  1.00  0.00    -0.264 OA
BRANCH  46  48
HETATM   48  C   UNL     1     -17.941 -10.237  -4.648  1.00  0.00     0.086 C 
BRANCH  48  49
HETATM   49  C   UNL     1     -19.167 -11.081  -5.034  1.00  0.00     0.014 C 
BRANCH  49  50
HETATM   50  C   UNL     1     -19.021 -12.281  -5.973  1.00  0.00     0.001 C 
BRANCH  50  51
HETATM   51  C   UNL     1     -19.637 -12.196  -7.366  1.00  0.00     0.000 C 
BRANCH  51  52
HETATM   52  C   UNL     1     -18.850 -12.984  -8.410  1.00  0.00    -0.000 C 
BRANCH  52  53
HETATM   53  C   UNL     1     -18.962 -14.513  -8.337  1.00  0.00    -0.005 C 
HETATM   54  C   UNL     1     -18.112 -15.302  -9.327  1.00  0.00     0.005 C 
ENDBRANCH  52  53
ENDBRANCH  51  52
ENDBRANCH  50  51
ENDBRANCH  49  50
ENDBRANCH  48  49
BRANCH  48  55
HETATM   55  C   UNL     1     -17.357  -9.607  -5.914  1.00  0.00     0.014 C 
BRANCH  55  56
HETATM   56  C   UNL     1     -15.953 -10.059  -6.266  1.00  0.00     0.001 C 
BRANCH  56  57
HETATM   57  C   UNL     1     -15.329 -10.696  -5.022  1.00  0.00     0.000 C 
BRANCH  57  58
HETATM   58  C   UNL     1     -14.746 -12.047  -5.393  1.00  0.00     0.000 C 
BRANCH  58  59
HETATM   59  C   UNL     1     -15.358 -12.547  -6.691  1.00  0.00     0.000 C 
BRANCH  59  60
HETATM   60  C   UNL     1     -15.758 -14.010  -6.562  1.00  0.00    -0.000 C 
BRANCH  60  61
HETATM   61  C   UNL     1     -16.464 -14.246  -5.232  1.00  0.00    -0.005 C 
HETATM   62  C   UNL     1     -17.029 -15.648  -5.158  1.00  0.00     0.005 C 
ENDBRANCH  60  61
ENDBRANCH  59  60
ENDBRANCH  58  59
ENDBRANCH  57  58
ENDBRANCH  56  57
ENDBRANCH  55  56
ENDBRANCH  48  55
ENDBRANCH  46  48
ENDBRANCH  45  46
ENDBRANCH   2  45
BRANCH   3  63
HETATM   63  O   UNL     1     -21.324  -6.229  -3.232  1.00  0.00    -0.270 OA
BRANCH  63  64
HETATM   64  C   UNL     1     -21.763  -6.474  -4.522  1.00  0.00     0.268 C 
HETATM   65  O   UNL     1     -22.317  -7.513  -4.842  1.00  0.00    -0.264 OA
BRANCH  64  66
HETATM   66  C   UNL     1     -21.562  -5.248  -5.429  1.00  0.00     0.086 C 
BRANCH  66  67
HETATM   67  C   UNL     1     -20.044  -4.963  -5.563  1.00  0.00     0.014 C 
BRANCH  67  68
HETATM   68  C   UNL     1     -19.335  -5.480  -6.838  1.00  0.00     0.001 C 
BRANCH  68  69
HETATM   69  C   UNL     1     -18.685  -4.416  -7.727  1.00  0.00     0.000 C 
BRANCH  69  70
HETATM   70  C   UNL     1     -19.669  -3.780  -8.732  1.00  0.00    -0.000 C 
BRANCH  70  71
HETATM   71  C   UNL     1     -20.052  -4.603  -9.968  1.00  0.00    -0.005 C 
HETATM   72  C   UNL     1     -20.415  -3.760 -11.175  1.00  0.00     0.005 C 
ENDBRANCH  70  71
ENDBRANCH  69  70
ENDBRANCH  68  69
ENDBRANCH  67  68
ENDBRANCH  66  67
BRANCH  66  73
HETATM   73  C   UNL     1     -22.139  -5.516  -6.823  1.00  0.00     0.014 C 
BRANCH  73  74
HETATM   74  C   UNL     1     -23.391  -4.724  -7.182  1.00  0.00     0.001 C 
BRANCH  74  75
HETATM   75  C   UNL     1     -23.017  -3.707  -8.276  1.00  0.00     0.000 C 
BRANCH  75  76
HETATM   76  C   UNL     1     -23.999  -3.702  -9.438  1.00  0.00     0.000 C 
BRANCH  76  77
HETATM   77  C   UNL     1     -23.869  -4.977 -10.327  1.00  0.00     0.000 C 
BRANCH  77  78
HETATM   78  C   UNL     1     -23.785  -4.653 -11.831  1.00  0.00    -0.000 C 
BRANCH  78  79
HETATM   79  C   UNL     1     -24.250  -3.316 -12.447  1.00  0.00    -0.005 C 
HETATM   80  C   UNL     1     -23.266  -2.574 -13.397  1.00  0.00     0.005 C 
ENDBRANCH  78  79
ENDBRANCH  77  78
ENDBRANCH  76  77
ENDBRANCH  75  76
ENDBRANCH  74  75
ENDBRANCH  73  74
ENDBRANCH  66  73
ENDBRANCH  64  66
ENDBRANCH  63  64
ENDBRANCH   3  63
TORSDOF 62
ENDMDL
MODEL 8
REMARK VINA RESULT:      -6.2      2.686      8.827
REMARK WARNING: 32 MAX_TORS EXCEEDED!!!
REMARK  62 active torsions:
REMARK  status: ('A' for Active; 'I' for Inactive)
REMARK    1  A    between atoms: C_2  and  C_3 
REMARK    2  A    between atoms: C_3  and  C_4 
REMARK    3  A    between atoms: C_4  and  C_5 
REMARK    4  A    between atoms: C_5  and  C_6 
REMARK    5  A    between atoms: C_6  and  C_7 
REMARK    6  A    between atoms: C_7  and  C_8 
REMARK    7  A    between atoms: C_8  and  C_9 
REMARK    8  A    between atoms: C_9  and  C_10 
REMARK    9  A    between atoms: C_9  and  C_16 
REMARK   10  A    between atoms: C_10  and  C_11 
REMARK   11  A    between atoms: C_11  and  C_12 
REMARK   12  A    between atoms: C_12  and  C_13 
REMARK   13  A    between atoms: C_13  and  C_14 
REMARK   14  A    between atoms: C_16  and  O_18 
REMARK   15  A    between atoms: O_18  and  C_19 
REMARK   16  A    between atoms: C_19  and  C_20 
REMARK   17  A    between atoms: C_20  and  C_21 
REMARK   18  A    between atoms: C_20  and  O_63 
REMARK   19  A    between atoms: C_22  and  O_45 
REMARK   20  A    between atoms: C_23  and  O_27 
REMARK   21  A    between atoms: O_27  and  C_28 
REMARK   22  A    between atoms: C_28  and  C_30 
REMARK   23  A    between atoms: C_30  and  C_31 
REMARK   24  A    between atoms: C_30  and  C_37 
REMARK   25  A    between atoms: C_31  and  C_32 
REMARK   26  A    between atoms: C_32  and  C_33 
REMARK   27  A    between atoms: C_33  and  C_34 
REMARK   28  A    between atoms: C_34  and  C_35 
REMARK   29  A    between atoms: C_37  and  C_38 
REMARK   30  A    between atoms: C_38  and  C_39 
REMARK   31  A    between atoms: C_39  and  C_40 
REMARK   32  A    between atoms: C_40  and  C_41 
REMARK   33  A    between atoms: C_41  and  C_42 
REMARK   34  A    between atoms: C_42  and  C_43 
REMARK   35  A    between atoms: O_45  and  C_46 
REMARK   36  A    between atoms: C_46  and  C_48 
REMARK   37  A    between atoms: C_48  and  C_49 
REMARK   38  A    between atoms: C_48  and  C_55 
REMARK   39  A    between atoms: C_49  and  C_50 
REMARK   40  A    between atoms: C_50  and  C_51 
REMARK   41  A    between atoms: C_51  and  C_52 
REMARK   42  A    between atoms: C_52  and  C_53 
REMARK   43  A    between atoms: C_55  and  C_56 
REMARK   44  A    between atoms: C_56  and  C_57 
REMARK   45  A    between atoms: C_57  and  C_58 
REMARK   46  A    between atoms: C_58  and  C_59 
REMARK   47  A    between atoms: C_59  and  C_60 
REMARK   48  A    between atoms: C_60  and  C_61 
REMARK   49  A    between atoms: O_63  and  C_64 
REMARK   50  A    between atoms: C_64  and  C_66 
REMARK   51  A    between atoms: C_66  and  C_67 
REMARK   52  A    between atoms: C_66  and  C_73 
REMARK   53  A    between atoms: C_67  and  C_68 
REMARK   54  A    between atoms: C_68  and  C_69 
REMARK   55  A    between atoms: C_69  and  C_70 
REMARK   56  A    between atoms: C_70  and  C_71 
REMARK   57  A    between atoms: C_73  and  C_74 
REMARK   58  A    between atoms: C_74  and  C_75 
REMARK   59  A    between atoms: C_75  and  C_76 
REMARK   60  A    between atoms: C_76  and  C_77 
REMARK   61  A    between atoms: C_77  and  C_78 
REMARK   62  A    between atoms: C_78  and  C_79 
ROOT
HETATM    1  C   UNL     1     -19.429  -9.056  -4.148  1.00  0.00     0.224 C 
HETATM    2  C   UNL     1     -18.500 -10.173  -3.751  1.00  0.00     0.129 C 
HETATM    3  C   UNL     1     -18.597 -11.209  -4.641  1.00  0.00     0.186 C 
HETATM    4  C   UNL     1     -19.452 -10.730  -5.744  1.00  0.00     0.321 C 
HETATM    5  O   UNL     1     -19.733 -11.354  -6.732  1.00  0.00    -0.257 OA
HETATM    6  O   UNL     1     -19.868  -9.465  -5.456  1.00  0.00    -0.301 OA
ENDROOT
BRANCH   1   7
HETATM    7  C   UNL     1     -20.698  -8.740  -3.253  1.00  0.00     0.192 C 
BRANCH   7   8
HETATM    8  C   UNL     1     -21.458  -7.424  -3.603  1.00  0.00     0.214 C 
BRANCH   8   9
HETATM    9  O   UNL     1     -21.886  -7.422  -5.008  1.00  0.00    -0.319 OA
BRANCH   9  10
HETATM   10  C   UNL     1     -22.511  -6.325  -5.527  1.00  0.00     0.263 C 
HETATM   11  O   UNL     1     -23.622  -5.964  -5.159  1.00  0.00    -0.265 OA
BRANCH  10  12
HETATM   12  C   UNL     1     -21.756  -5.667  -6.720  1.00  0.00     0.085 C 
BRANCH  12  13
HETATM   13  C   UNL     1     -22.443  -4.308  -7.088  1.00  0.00     0.014 C 
BRANCH  13  14
HETATM   14  C   UNL     1     -23.615  -4.180  -8.096  1.00  0.00     0.001 C 
BRANCH  14  15
HETATM   15  C   UNL     1     -23.420  -4.691  -9.535  1.00  0.00     0.000 C 
BRANCH  15  16
HETATM   16  C   UNL     1     -24.198  -3.821 -10.550  1.00  0.00     0.000 C 
BRANCH  16  17
HETATM   17  C   UNL     1     -23.786  -4.094 -12.002  1.00  0.00     0.000 C 
BRANCH  17  18
HETATM   18  C   UNL     1     -24.058  -2.878 -12.893  1.00  0.00    -0.000 C 
BRANCH  18  19
HETATM   19  C   UNL     1     -23.159  -2.862 -14.130  1.00  0.00    -0.005 C 
HETATM   20  C   UNL     1     -23.377  -1.597 -14.945  1.00  0.00     0.005 C 
ENDBRANCH  18  19
ENDBRANCH  17  18
ENDBRANCH  16  17
ENDBRANCH  15  16
ENDBRANCH  14  15
ENDBRANCH  13  14
ENDBRANCH  12  13
BRANCH  12  21
HETATM   21  C   UNL     1     -20.206  -5.687  -6.584  1.00  0.00     0.014 C 
BRANCH  21  22
HETATM   22  C   UNL     1     -19.246  -4.662  -7.227  1.00  0.00     0.001 C 
BRANCH  22  23
HETATM   23  C   UNL     1     -19.452  -4.057  -8.631  1.00  0.00     0.000 C 
BRANCH  23  24
HETATM   24  C   UNL     1     -19.935  -4.878  -9.844  1.00  0.00    -0.000 C 
BRANCH  24  25
HETATM   25  C   UNL     1     -20.258  -4.207 -11.185  1.00  0.00    -0.005 C 
HETATM   26  C   UNL     1     -20.652  -2.736 -11.128  1.00  0.00     0.005 C 
ENDBRANCH  24  25
ENDBRANCH  23  24
ENDBRANCH  22  23
ENDBRANCH  21  22
ENDBRANCH  12  21
ENDBRANCH  10  12
ENDBRANCH   9  10
ENDBRANCH   8   9
ENDBRANCH   7   8
BRANCH   7  27
HETATM   27  O   UNL     1     -20.232  -8.681  -1.881  1.00  0.00    -0.310 OA
BRANCH  27  28
HETATM   28  C   UNL     1     -21.153  -8.761  -0.870  1.00  0.00     0.263 C 
HETATM   29  O   UNL     1     -21.586  -7.822  -0.210  1.00  0.00    -0.265 OA
BRANCH  28  30
HETATM   30  C   UNL     1     -21.589 -10.200  -0.656  1.00  0.00     0.085 C 
BRANCH  30  31
HETATM   31  C   UNL     1     -20.713 -10.807   0.436  1.00  0.00     0.014 C 
BRANCH  31  32
HETATM   32  C   UNL     1     -20.804 -12.328   0.462  1.00  0.00     0.001 C 
BRANCH  32  33
HETATM   33  C   UNL     1     -21.772 -12.806   1.532  1.00  0.00     0.000 C 
BRANCH  33  34
HETATM   34  C   UNL     1     -21.867 -14.328   1.487  1.00  0.00    -0.000 C 
BRANCH  34  35
HETATM   35  C   UNL     1     -22.093 -14.906   2.877  1.00  0.00    -0.005 C 
HETATM   36  C   UNL     1     -21.429 -16.266   3.004  1.00  0.00     0.005 C 
ENDBRANCH  34  35
ENDBRANCH  33  34
ENDBRANCH  32  33
ENDBRANCH  31  32
ENDBRANCH  30  31
BRANCH  30  37
HETATM   37  C   UNL     1     -23.075 -10.311  -0.307  1.00  0.00     0.014 C 
BRANCH  37  38
HETATM   38  C   UNL     1     -23.775 -11.242  -1.263  1.00  0.00     0.001 C 
BRANCH  38  39
HETATM   39  C   UNL     1     -22.844 -11.629  -2.373  1.00  0.00     0.000 C 
BRANCH  39  40
HETATM   40  C   UNL     1     -23.066 -13.093  -2.620  1.00  0.00     0.000 C 
BRANCH  40  41
HETATM   41  C   UNL     1     -23.754 -13.643  -1.431  1.00  0.00     0.000 C 
BRANCH  41  42
HETATM   42  C   UNL     1     -24.319 -14.979  -1.812  1.00  0.00    -0.000 C 
BRANCH  42  43
HETATM   43  C   UNL     1     -23.193 -15.939  -1.688  1.00  0.00    -0.005 C 
HETATM   44  C   UNL     1     -23.486 -16.854  -0.542  1.00  0.00     0.005 C 
ENDBRANCH  42  43
ENDBRANCH  41  42
ENDBRANCH  40  41
ENDBRANCH  39  40
ENDBRANCH  38  39
ENDBRANCH  37  38
ENDBRANCH  30  37
ENDBRANCH  28  30
ENDBRANCH  27  28
ENDBRANCH   7  27
ENDBRANCH   1   7
BRANCH   2  45
HETATM   45  O   UNL     1     -17.885 -10.238  -2.509  1.00  0.00    -0.277 OA
BRANCH  45  46
HETATM   46  C   UNL     1     -16.494 -10.186  -2.446  1.00  0.00     0.268 C 
HETATM   47  O   UNL     1     -15.848  -9.254  -2.895  1.00  0.00    -0.264 OA
BRANCH  46  48
HETATM   48  C   UNL     1     -15.947 -11.428  -1.728  1.00  0.00     0.086 C 
BRANCH  48  49
HETATM   49  C   UNL     1     -16.958 -11.981  -0.710  1.00  0.00     0.014 C 
BRANCH  49  50
HETATM   50  C   UNL     1     -17.086 -13.489  -0.482  1.00  0.00     0.001 C 
BRANCH  50  51
HETATM   51  C   UNL     1     -17.066 -14.014   0.951  1.00  0.00     0.000 C 
BRANCH  51  52
HETATM   52  C   UNL     1     -18.233 -14.949   1.255  1.00  0.00    -0.000 C 
BRANCH  52  53
HETATM   53  C   UNL     1     -18.374 -16.180   0.348  1.00  0.00    -0.005 C 
HETATM   54  C   UNL     1     -19.656 -16.273  -0.471  1.00  0.00     0.005 C 
ENDBRANCH  52  53
ENDBRANCH  51  52
ENDBRANCH  50  51
ENDBRANCH  49  50
ENDBRANCH  48  49
BRANCH  48  55
HETATM   55  C   UNL     1     -15.461 -12.577  -2.615  1.00  0.00     0.014 C 
BRANCH  55  56
HETATM   56  C   UNL     1     -13.971 -12.581  -2.898  1.00  0.00     0.001 C 
BRANCH  56  57
HETATM   57  C   UNL     1     -13.722 -13.444  -4.138  1.00  0.00     0.000 C 
BRANCH  57  58
HETATM   58  C   UNL     1     -14.737 -13.084  -5.207  1.00  0.00     0.000 C 
BRANCH  58  59
HETATM   59  C   UNL     1     -14.927 -14.246  -6.167  1.00  0.00     0.000 C 
BRANCH  59  60
HETATM   60  C   UNL     1     -13.875 -15.319  -5.919  1.00  0.00    -0.000 C 
BRANCH  60  61
HETATM   61  C   UNL     1     -14.431 -16.692  -6.275  1.00  0.00    -0.005 C 
HETATM   62  C   UNL     1     -15.788 -16.576  -6.934  1.00  0.00     0.005 C 
ENDBRANCH  60  61
ENDBRANCH  59  60
ENDBRANCH  58  59
ENDBRANCH  57  58
ENDBRANCH  56  57
ENDBRANCH  55  56
ENDBRANCH  48  55
ENDBRANCH  46  48
ENDBRANCH  45  46
ENDBRANCH   2  45
BRANCH   3  63
HETATM   63  O   UNL     1     -18.277 -12.584  -4.488  1.00  0.00    -0.270 OA
BRANCH  63  64
HETATM   64  C   UNL     1     -19.104 -13.410  -3.747  1.00  0.00     0.268 C 
HETATM   65  O   UNL     1     -19.677 -13.034  -2.738  1.00  0.00    -0.264 OA
BRANCH  64  66
HETATM   66  C   UNL     1     -19.276 -14.784  -4.418  1.00  0.00     0.086 C 
BRANCH  66  67
HETATM   67  C   UNL     1     -18.795 -14.691  -5.889  1.00  0.00     0.014 C 
BRANCH  67  68
HETATM   68  C   UNL     1     -19.877 -14.756  -6.994  1.00  0.00     0.001 C 
BRANCH  68  69
HETATM   69  C   UNL     1     -21.271 -15.209  -6.548  1.00  0.00     0.000 C 
BRANCH  69  70
HETATM   70  C   UNL     1     -22.243 -14.034  -6.309  1.00  0.00    -0.000 C 
BRANCH  70  71
HETATM   71  C   UNL     1     -23.715 -14.373  -6.043  1.00  0.00    -0.005 C 
HETATM   72  C   UNL     1     -23.925 -15.741  -5.423  1.00  0.00     0.005 C 
ENDBRANCH  70  71
ENDBRANCH  69  70
ENDBRANCH  68  69
ENDBRANCH  67  68
ENDBRANCH  66  67
BRANCH  66  73
HETATM   73  C   UNL     1     -18.440 -15.842  -3.691  1.00  0.00     0.014 C 
BRANCH  73  74
HETATM   74  C   UNL     1     -16.949 -15.544  -3.583  1.00  0.00     0.001 C 
BRANCH  74  75
HETATM   75  C   UNL     1     -16.262 -16.767  -2.949  1.00  0.00     0.000 C 
BRANCH  75  76
HETATM   76  C   UNL     1     -15.382 -16.401  -1.763  1.00  0.00     0.000 C 
BRANCH  76  77
HETATM   77  C   UNL     1     -13.868 -16.631  -2.056  1.00  0.00     0.000 C 
BRANCH  77  78
HETATM   78  C   UNL     1     -12.954 -15.651  -1.295  1.00  0.00    -0.000 C 
BRANCH  78  79
HETATM   79  C   UNL     1     -13.030 -15.414   0.228  1.00  0.00    -0.005 C 
HETATM   80  C   UNL     1     -13.381 -13.981   0.722  1.00  0.00     0.005 C 
ENDBRANCH  78  79
ENDBRANCH  77  78
ENDBRANCH  76  77
ENDBRANCH  75  76
ENDBRANCH  74  75
ENDBRANCH  73  74
ENDBRANCH  66  73
ENDBRANCH  64  66
ENDBRANCH  63  64
ENDBRANCH   3  63
TORSDOF 62
ENDMDL
MODEL 9
REMARK VINA RESULT:      -6.2      1.884     10.120
REMARK WARNING: 32 MAX_TORS EXCEEDED!!!
REMARK  62 active torsions:
REMARK  status: ('A' for Active; 'I' for Inactive)
REMARK    1  A    between atoms: C_2  and  C_3 
REMARK    2  A    between atoms: C_3  and  C_4 
REMARK    3  A    between atoms: C_4  and  C_5 
REMARK    4  A    between atoms: C_5  and  C_6 
REMARK    5  A    between atoms: C_6  and  C_7 
REMARK    6  A    between atoms: C_7  and  C_8 
REMARK    7  A    between atoms: C_8  and  C_9 
REMARK    8  A    between atoms: C_9  and  C_10 
REMARK    9  A    between atoms: C_9  and  C_16 
REMARK   10  A    between atoms: C_10  and  C_11 
REMARK   11  A    between atoms: C_11  and  C_12 
REMARK   12  A    between atoms: C_12  and  C_13 
REMARK   13  A    between atoms: C_13  and  C_14 
REMARK   14  A    between atoms: C_16  and  O_18 
REMARK   15  A    between atoms: O_18  and  C_19 
REMARK   16  A    between atoms: C_19  and  C_20 
REMARK   17  A    between atoms: C_20  and  C_21 
REMARK   18  A    between atoms: C_20  and  O_63 
REMARK   19  A    between atoms: C_22  and  O_45 
REMARK   20  A    between atoms: C_23  and  O_27 
REMARK   21  A    between atoms: O_27  and  C_28 
REMARK   22  A    between atoms: C_28  and  C_30 
REMARK   23  A    between atoms: C_30  and  C_31 
REMARK   24  A    between atoms: C_30  and  C_37 
REMARK   25  A    between atoms: C_31  and  C_32 
REMARK   26  A    between atoms: C_32  and  C_33 
REMARK   27  A    between atoms: C_33  and  C_34 
REMARK   28  A    between atoms: C_34  and  C_35 
REMARK   29  A    between atoms: C_37  and  C_38 
REMARK   30  A    between atoms: C_38  and  C_39 
REMARK   31  A    between atoms: C_39  and  C_40 
REMARK   32  A    between atoms: C_40  and  C_41 
REMARK   33  A    between atoms: C_41  and  C_42 
REMARK   34  A    between atoms: C_42  and  C_43 
REMARK   35  A    between atoms: O_45  and  C_46 
REMARK   36  A    between atoms: C_46  and  C_48 
REMARK   37  A    between atoms: C_48  and  C_49 
REMARK   38  A    between atoms: C_48  and  C_55 
REMARK   39  A    between atoms: C_49  and  C_50 
REMARK   40  A    between atoms: C_50  and  C_51 
REMARK   41  A    between atoms: C_51  and  C_52 
REMARK   42  A    between atoms: C_52  and  C_53 
REMARK   43  A    between atoms: C_55  and  C_56 
REMARK   44  A    between atoms: C_56  and  C_57 
REMARK   45  A    between atoms: C_57  and  C_58 
REMARK   46  A    between atoms: C_58  and  C_59 
REMARK   47  A    between atoms: C_59  and  C_60 
REMARK   48  A    between atoms: C_60  and  C_61 
REMARK   49  A    between atoms: O_63  and  C_64 
REMARK   50  A    between atoms: C_64  and  C_66 
REMARK   51  A    between atoms: C_66  and  C_67 
REMARK   52  A    between atoms: C_66  and  C_73 
REMARK   53  A    between atoms: C_67  and  C_68 
REMARK   54  A    between atoms: C_68  and  C_69 
REMARK   55  A    between atoms: C_69  and  C_70 
REMARK   56  A    between atoms: C_70  and  C_71 
REMARK   57  A    between atoms: C_73  and  C_74 
REMARK   58  A    between atoms: C_74  and  C_75 
REMARK   59  A    between atoms: C_75  and  C_76 
REMARK   60  A    between atoms: C_76  and  C_77 
REMARK   61  A    between atoms: C_77  and  C_78 
REMARK   62  A    between atoms: C_78  and  C_79 
ROOT
HETATM    1  C   UNL     1     -18.267 -11.475  -4.969  1.00  0.00     0.224 C 
HETATM    2  C   UNL     1     -19.294 -10.483  -4.490  1.00  0.00     0.129 C 
HETATM    3  C   UNL     1     -19.129  -9.284  -5.132  1.00  0.00     0.186 C 
HETATM    4  C   UNL     1     -18.113  -9.509  -6.177  1.00  0.00     0.321 C 
HETATM    5  O   UNL     1     -17.734  -8.690  -6.971  1.00  0.00    -0.257 OA
HETATM    6  O   UNL     1     -17.678 -10.797  -6.093  1.00  0.00    -0.301 OA
ENDROOT
BRANCH   1   7
HETATM    7  C   UNL     1     -17.114 -11.942  -3.986  1.00  0.00     0.192 C 
BRANCH   7   8
HETATM    8  C   UNL     1     -16.903 -13.483  -3.880  1.00  0.00     0.214 C 
BRANCH   8   9
HETATM    9  O   UNL     1     -17.634 -14.188  -4.941  1.00  0.00    -0.319 OA
BRANCH   9  10
HETATM   10  C   UNL     1     -17.330 -15.488  -5.228  1.00  0.00     0.263 C 
HETATM   11  O   UNL     1     -17.357 -16.373  -4.382  1.00  0.00    -0.265 OA
BRANCH  10  12
HETATM   12  C   UNL     1     -16.809 -15.715  -6.678  1.00  0.00     0.085 C 
BRANCH  12  13
HETATM   13  C   UNL     1     -17.365 -14.592  -7.617  1.00  0.00     0.014 C 
BRANCH  13  14
HETATM   14  C   UNL     1     -18.064 -14.870  -8.974  1.00  0.00     0.001 C 
BRANCH  14  15
HETATM   15  C   UNL     1     -17.595 -16.066  -9.821  1.00  0.00     0.000 C 
BRANCH  15  16
HETATM   16  C   UNL     1     -18.229 -16.036 -11.233  1.00  0.00     0.000 C 
BRANCH  16  17
HETATM   17  C   UNL     1     -17.239 -16.433 -12.335  1.00  0.00     0.000 C 
BRANCH  17  18
HETATM   18  C   UNL     1     -17.964 -16.717 -13.654  1.00  0.00    -0.000 C 
BRANCH  18  19
HETATM   19  C   UNL     1     -17.907 -15.523 -14.607  1.00  0.00    -0.005 C 
HETATM   20  C   UNL     1     -18.020 -15.975 -16.054  1.00  0.00     0.005 C 
ENDBRANCH  18  19
ENDBRANCH  17  18
ENDBRANCH  16  17
ENDBRANCH  15  16
ENDBRANCH  14  15
ENDBRANCH  13  14
ENDBRANCH  12  13
BRANCH  12  21
HETATM   21  C   UNL     1     -15.293 -16.054  -6.765  1.00  0.00     0.014 C 
BRANCH  21  22
HETATM   22  C   UNL     1     -14.206 -15.511  -5.810  1.00  0.00     0.001 C 
BRANCH  22  23
HETATM   23  C   UNL     1     -13.019 -14.641  -6.268  1.00  0.00     0.000 C 
BRANCH  23  24
HETATM   24  C   UNL     1     -13.104 -13.109  -6.426  1.00  0.00    -0.000 C 
BRANCH  24  25
HETATM   25  C   UNL     1     -13.692 -12.223  -5.320  1.00  0.00    -0.005 C 
HETATM   26  C   UNL     1     -13.285 -12.564  -3.891  1.00  0.00     0.005 C 
ENDBRANCH  24  25
ENDBRANCH  23  24
ENDBRANCH  22  23
ENDBRANCH  21  22
ENDBRANCH  12  21
ENDBRANCH  10  12
ENDBRANCH   9  10
ENDBRANCH   8   9
ENDBRANCH   7   8
BRANCH   7  27
HETATM   27  O   UNL     1     -17.443 -11.406  -2.679  1.00  0.00    -0.310 OA
BRANCH  27  28
HETATM   28  C   UNL     1     -16.448 -11.306  -1.741  1.00  0.00     0.263 C 
HETATM   29  O   UNL     1     -15.430 -10.629  -1.837  1.00  0.00    -0.265 OA
BRANCH  28  30
HETATM   30  C   UNL     1     -16.767 -12.163  -0.529  1.00  0.00     0.085 C 
BRANCH  30  31
HETATM   31  C   UNL     1     -15.710 -11.897   0.537  1.00  0.00     0.014 C 
BRANCH  31  32
HETATM   32  C   UNL     1     -14.746 -13.068   0.691  1.00  0.00     0.001 C 
BRANCH  32  33
HETATM   33  C   UNL     1     -14.966 -14.112  -0.391  1.00  0.00     0.000 C 
BRANCH  33  34
HETATM   34  C   UNL     1     -13.838 -15.137  -0.344  1.00  0.00    -0.000 C 
BRANCH  34  35
HETATM   35  C   UNL     1     -12.535 -14.545  -0.861  1.00  0.00    -0.005 C 
HETATM   36  C   UNL     1     -11.465 -14.585   0.216  1.00  0.00     0.005 C 
ENDBRANCH  34  35
ENDBRANCH  33  34
ENDBRANCH  32  33
ENDBRANCH  31  32
ENDBRANCH  30  31
BRANCH  30  37
HETATM   37  C   UNL     1     -18.179 -11.909   0.006  1.00  0.00     0.014 C 
BRANCH  37  38
HETATM   38  C   UNL     1     -18.921 -13.208   0.182  1.00  0.00     0.001 C 
BRANCH  38  39
HETATM   39  C   UNL     1     -20.356 -12.934   0.523  1.00  0.00     0.000 C 
BRANCH  39  40
HETATM   40  C   UNL     1     -21.029 -14.272   0.622  1.00  0.00     0.000 C 
BRANCH  40  41
HETATM   41  C   UNL     1     -21.932 -14.228   1.794  1.00  0.00     0.000 C 
BRANCH  41  42
HETATM   42  C   UNL     1     -23.313 -13.928   1.291  1.00  0.00    -0.000 C 
BRANCH  42  43
HETATM   43  C   UNL     1     -23.700 -15.099   0.463  1.00  0.00    -0.005 C 
HETATM   44  C   UNL     1     -24.370 -14.593  -0.774  1.00  0.00     0.005 C 
ENDBRANCH  42  43
ENDBRANCH  41  42
ENDBRANCH  40  41
ENDBRANCH  39  40
ENDBRANCH  38  39
ENDBRANCH  37  38
ENDBRANCH  30  37
ENDBRANCH  28  30
ENDBRANCH  27  28
ENDBRANCH   7  27
ENDBRANCH   1   7
BRANCH   2  45
HETATM   45  O   UNL     1     -20.071 -10.687  -3.359  1.00  0.00    -0.277 OA
BRANCH  45  46
HETATM   46  C   UNL     1     -20.851 -11.839  -3.281  1.00  0.00     0.268 C 
HETATM   47  O   UNL     1     -20.403 -12.916  -2.928  1.00  0.00    -0.264 OA
BRANCH  46  48
HETATM   48  C   UNL     1     -22.303 -11.526  -3.671  1.00  0.00     0.086 C 
BRANCH  48  49
HETATM   49  C   UNL     1     -22.812 -12.482  -4.762  1.00  0.00     0.014 C 
BRANCH  49  50
HETATM   50  C   UNL     1     -23.115 -13.946  -4.433  1.00  0.00     0.001 C 
BRANCH  50  51
HETATM   51  C   UNL     1     -23.297 -14.930  -5.585  1.00  0.00     0.000 C 
BRANCH  51  52
HETATM   52  C   UNL     1     -22.327 -14.677  -6.737  1.00  0.00    -0.000 C 
BRANCH  52  53
HETATM   53  C   UNL     1     -20.892 -15.185  -6.541  1.00  0.00    -0.005 C 
HETATM   54  C   UNL     1     -20.635 -16.644  -6.903  1.00  0.00     0.005 C 
ENDBRANCH  52  53
ENDBRANCH  51  52
ENDBRANCH  50  51
ENDBRANCH  49  50
ENDBRANCH  48  49
BRANCH  48  55
HETATM   55  C   UNL     1     -23.327 -11.482  -2.535  1.00  0.00     0.014 C 
BRANCH  55  56
HETATM   56  C   UNL     1     -22.738 -11.322  -1.147  1.00  0.00     0.001 C 
BRANCH  56  57
HETATM   57  C   UNL     1     -23.741 -10.548  -0.287  1.00  0.00     0.000 C 
BRANCH  57  58
HETATM   58  C   UNL     1     -23.167  -9.183   0.041  1.00  0.00     0.000 C 
BRANCH  58  59
HETATM   59  C   UNL     1     -21.652  -9.205  -0.078  1.00  0.00     0.000 C 
BRANCH  59  60
HETATM   60  C   UNL     1     -21.174  -8.086  -0.992  1.00  0.00    -0.000 C 
BRANCH  60  61
HETATM   61  C   UNL     1     -22.326  -7.142  -1.314  1.00  0.00    -0.005 C 
HETATM   62  C   UNL     1     -21.822  -5.864  -1.949  1.00  0.00     0.005 C 
ENDBRANCH  60  61
ENDBRANCH  59  60
ENDBRANCH  58  59
ENDBRANCH  57  58
ENDBRANCH  56  57
ENDBRANCH  55  56
ENDBRANCH  48  55
ENDBRANCH  46  48
ENDBRANCH  45  46
ENDBRANCH   2  45
BRANCH   3  63
HETATM   63  O   UNL     1     -19.534  -7.977  -4.752  1.00  0.00    -0.270 OA
BRANCH  63  64
HETATM   64  C   UNL     1     -20.815  -7.538  -5.040  1.00  0.00     0.268 C 
HETATM   65  O   UNL     1     -21.809  -8.198  -4.791  1.00  0.00    -0.264 OA
BRANCH  64  66
HETATM   66  C   UNL     1     -20.806  -6.102  -5.594  1.00  0.00     0.086 C 
BRANCH  66  67
HETATM   67  C   UNL     1     -19.972  -6.070  -6.900  1.00  0.00     0.014 C 
BRANCH  67  68
HETATM   68  C   UNL     1     -19.180  -4.775  -7.204  1.00  0.00     0.001 C 
BRANCH  68  69
HETATM   69  C   UNL     1     -19.518  -4.072  -8.522  1.00  0.00     0.000 C 
BRANCH  69  70
HETATM   70  C   UNL     1     -20.001  -5.041  -9.621  1.00  0.00    -0.000 C 
BRANCH  70  71
HETATM   71  C   UNL     1     -20.452  -4.435 -10.956  1.00  0.00    -0.005 C 
HETATM   72  C   UNL     1     -20.436  -2.919 -10.975  1.00  0.00     0.005 C 
ENDBRANCH  70  71
ENDBRANCH  69  70
ENDBRANCH  68  69
ENDBRANCH  67  68
ENDBRANCH  66  67
BRANCH  66  73
HETATM   73  C   UNL     1     -22.234  -5.644  -5.909  1.00  0.00     0.014 C 
BRANCH  73  74
HETATM   74  C   UNL     1     -22.350  -4.423  -6.815  1.00  0.00     0.001 C 
BRANCH  74  75
HETATM   75  C   UNL     1     -23.269  -4.789  -7.995  1.00  0.00     0.000 C 
BRANCH  75  76
HETATM   76  C   UNL     1     -23.475  -3.633  -8.962  1.00  0.00     0.000 C 
BRANCH  76  77
HETATM   77  C   UNL     1     -24.358  -4.035 -10.184  1.00  0.00     0.000 C 
BRANCH  77  78
HETATM   78  C   UNL     1     -24.125  -3.137 -11.414  1.00  0.00    -0.000 C 
BRANCH  78  79
HETATM   79  C   UNL     1     -23.891  -3.679 -12.840  1.00  0.00    -0.005 C 
HETATM   80  C   UNL     1     -23.041  -2.816 -13.815  1.00  0.00     0.005 C 
ENDBRANCH  78  79
ENDBRANCH  77  78
ENDBRANCH  76  77
ENDBRANCH  75  76
ENDBRANCH  74  75
ENDBRANCH  73  74
ENDBRANCH  66  73
ENDBRANCH  64  66
ENDBRANCH  63  64
ENDBRANCH   3  63
TORSDOF 62
ENDMDL
