MODEL 1
REMARK VINA RESULT:      -6.9      0.000      0.000
REMARK  24 active torsions:
REMARK  status: ('A' for Active; 'I' for Inactive)
REMARK    1  A    between atoms: CB_2  and  CA_4 
REMARK    2  A    between atoms: CA_4  and  C_5 
REMARK    3  A    between atoms: CA_4  and  N_14 
REMARK       I    between atoms: C_5  and  N_7 
REMARK    4  A    between atoms: N_7  and  CA_8 
REMARK    5  A    between atoms: CA_8  and  CB_9 
REMARK    6  A    between atoms: CA_8  and  C_12 
REMARK       I    between atoms: C_12  and  N_25 
REMARK       I    between atoms: N_14  and  C_15 
REMARK    7  A    between atoms: C_15  and  CA_17 
REMARK    8  A    between atoms: CA_17  and  CB_18 
REMARK    9  A    between atoms: CA_17  and  N_20 
REMARK   10  A    between atoms: CB_18  and  OG_19 
REMARK       I    between atoms: N_20  and  C_61 
REMARK   11  A    between atoms: N_25  and  CA_26 
REMARK   12  A    between atoms: CA_26  and  CB_27 
REMARK   13  A    between atoms: CA_26  and  C_30 
REMARK       I    between atoms: C_30  and  N_33 
REMARK   14  A    between atoms: N_33  and  CA_34 
REMARK   15  A    between atoms: CA_34  and  CB_35 
REMARK   16  A    between atoms: CA_34  and  C_43 
REMARK   17  A    between atoms: CB_35  and  CG_36 
REMARK   18  A    between atoms: CG_36  and  CD_37 
REMARK   19  A    between atoms: CD_37  and  NE_38 
REMARK       I    between atoms: CZ_40  and  NH1_41 
REMARK       I    between atoms: CZ_40  and  NH2_42 
REMARK       I    between atoms: C_43  and  N_50 
REMARK   20  A    between atoms: N_50  and  CA_51 
REMARK   21  A    between atoms: CA_51  and  CB_52 
REMARK   22  A    between atoms: CA_51  and  C_55 
REMARK   23  A    between atoms: CB_52  and  OG1_54 
REMARK   24  A    between atoms: C_55  and  OXT_57 
ROOT
ATOM      1  CA  VAL A   2     -20.987 -11.026  -5.485  1.00  0.00     0.180 C 
ENDROOT
BRANCH   1   2
ATOM      2  N   VAL A   2     -19.904 -12.043  -5.516  1.00  0.00    -0.346 N 
ATOM      3  C   SER A   1     -19.093 -12.287  -6.606  1.00  0.00     0.241 C 
ATOM      4  O   SER A   1     -19.210 -11.664  -7.660  1.00  0.00    -0.271 OA
ATOM      5  H   VAL A   2     -19.769 -12.572  -4.658  1.00  0.00     0.163 HD
BRANCH   3   6
ATOM      6  CA  SER A   1     -17.966 -13.349  -6.429  1.00  0.00     0.180 C 
BRANCH   6   7
ATOM      7  N   SER A   1     -16.983 -12.805  -5.474  1.00  0.00    -0.346 N 
ATOM      8  C   SER A   1     -15.925 -11.992  -5.856  1.00  0.00     0.241 C 
ATOM      9  O   SER A   1     -15.700 -11.742  -7.040  1.00  0.00    -0.271 OA
ATOM     10  H   SER A   1     -17.142 -12.975  -4.487  1.00  0.00     0.163 HD
BRANCH   8  11
ATOM     11  CA  SER A   1     -14.933 -11.567  -4.731  1.00  0.00     0.180 C 
BRANCH  11  12
ATOM     12  CB  SER A   1     -13.500 -12.119  -4.969  1.00  0.00     0.009 C 
ATOM     13  CG1 SER A   1     -12.957 -12.893  -3.757  1.00  0.00     0.012 C 
ATOM     14  CG2 SER A   1     -13.438 -13.063  -6.182  1.00  0.00     0.012 C 
ENDBRANCH  11  12
BRANCH  11  15
ATOM     15  N   SER A   1     -15.452 -11.995  -3.421  1.00  0.00    -0.346 N 
ATOM     16  C   SER A   1     -16.020 -11.090  -2.544  1.00  0.00     0.243 C 
ATOM     17  O   SER A   1     -16.179  -9.904  -2.825  1.00  0.00    -0.271 OA
ATOM     18  H   SER A   1     -15.542 -12.987  -3.213  1.00  0.00     0.163 HD
BRANCH  16  19
ATOM     19  CA  SER A   1     -16.540 -11.700  -1.233  1.00  0.00     0.200 C 
BRANCH  19  20
ATOM     20  CB  SER A   1     -17.835 -12.480  -1.492  1.00  0.00     0.199 C 
BRANCH  20  21
ATOM     21  OG  SER A   1     -18.389 -12.148  -2.769  1.00  0.00    -0.398 OA
ATOM     22  H   SER A   1     -19.324 -11.920  -2.619  1.00  0.00     0.209 HD
ENDBRANCH  20  21
ENDBRANCH  19  20
BRANCH  19  23
ATOM     23  N   SER A   1     -15.527 -12.585  -0.657  1.00  0.00    -0.346 N 
HETATM   24  C   UNK A   0     -15.254 -12.551   0.687  1.00  0.00     0.214 C 
HETATM   25  O   UNK A   0     -15.775 -11.736   1.439  1.00  0.00    -0.274 OA
HETATM   26  C   UNK A   0     -14.337 -13.643   1.152  1.00  0.00     0.117 C 
ATOM     27  H   SER A   1     -14.809 -12.952  -1.282  1.00  0.00     0.163 HD
ENDBRANCH  19  23
ENDBRANCH  16  19
ENDBRANCH  11  15
ENDBRANCH   8  11
ENDBRANCH   6   7
BRANCH   6  28
ATOM     28  CB  SER A   1     -18.590 -14.671  -5.900  1.00  0.00     0.009 C 
ATOM     29  CG1 SER A   1     -18.782 -15.700  -7.021  1.00  0.00     0.012 C 
ATOM     30  CG2 SER A   1     -17.768 -15.319  -4.780  1.00  0.00     0.012 C 
ENDBRANCH   6  28
ENDBRANCH   3   6
ENDBRANCH   1   2
BRANCH   1  31
ATOM     31  CB  VAL A   2     -22.219 -11.521  -4.688  1.00  0.00     0.009 C 
ATOM     32  CG1 VAL A   2     -22.948 -12.691  -5.348  1.00  0.00     0.012 C 
ATOM     33  CG2 VAL A   2     -21.949 -11.815  -3.211  1.00  0.00     0.012 C 
ENDBRANCH   1  31
BRANCH   1  34
ATOM     34  C   VAL A   2     -20.426  -9.723  -4.866  1.00  0.00     0.241 C 
ATOM     35  O   VAL A   2     -19.381  -9.740  -4.200  1.00  0.00    -0.271 OA
ATOM     36  N   ARG A   3     -21.169  -8.582  -5.048  1.00  0.00    -0.346 N 
ATOM     37  H   ARG A   3     -21.995  -8.604  -5.634  1.00  0.00     0.163 HD
BRANCH  36  38
ATOM     38  CA  ARG A   3     -20.866  -7.295  -4.391  1.00  0.00     0.176 C 
BRANCH  38  39
ATOM     39  CB  ARG A   3     -21.253  -6.080  -5.262  1.00  0.00     0.036 C 
BRANCH  39  40
ATOM     40  CG  ARG A   3     -20.117  -5.474  -6.106  1.00  0.00     0.022 C 
BRANCH  40  41
ATOM     41  CD  ARG A   3     -20.577  -4.311  -6.976  1.00  0.00     0.121 C 
BRANCH  41  42
ATOM     42  NE  ARG A   3     -22.028  -4.217  -7.000  1.00  0.00    -0.372 N 
ATOM     43  CZ  ARG A   3     -22.594  -4.139  -8.149  1.00  0.00     0.121 C 
ATOM     44  NH1 ARG A   3     -22.081  -4.138  -9.403  1.00  0.00    -0.279 NA
ATOM     45  NH2 ARG A   3     -23.938  -4.036  -8.213  1.00  0.00    -0.279 NA
ATOM     46 HH11 ARG A   3     -21.105  -3.883  -9.478  1.00  0.00     0.126 HD
ATOM     47 HH12 ARG A   3     -22.625  -3.547 -10.023  1.00  0.00     0.126 HD
ATOM     48 HH21 ARG A   3     -24.336  -4.192  -7.292  1.00  0.00     0.126 HD
ATOM     49 HH22 ARG A   3     -24.348  -4.662  -8.895  1.00  0.00     0.126 HD
ATOM     50  HE  ARG A   3     -22.574  -4.213  -6.139  1.00  0.00     0.161 HD
ENDBRANCH  41  42
ENDBRANCH  40  41
ENDBRANCH  39  40
ENDBRANCH  38  39
BRANCH  38  51
ATOM     51  C   ARG A   3     -21.564  -7.271  -3.002  1.00  0.00     0.241 C 
ATOM     52  O   ARG A   3     -22.193  -6.280  -2.621  1.00  0.00    -0.271 OA
ATOM     53  N   THR A   4     -21.377  -8.357  -2.182  1.00  0.00    -0.343 N 
ATOM     54  H   THR A   4     -20.897  -9.180  -2.545  1.00  0.00     0.163 HD
BRANCH  53  55
ATOM     55  CA  THR A   4     -21.677  -8.393  -0.720  1.00  0.00     0.210 C 
BRANCH  55  56
ATOM     56  CB  THR A   4     -23.167  -8.663  -0.404  1.00  0.00     0.147 C 
ATOM     57  CG2 THR A   4     -23.520 -10.139  -0.246  1.00  0.00     0.042 C 
BRANCH  56  58
ATOM     58  OG1 THR A   4     -23.547  -8.108   0.861  1.00  0.00    -0.393 OA
ATOM     59  HG1 THR A   4     -23.914  -8.820   1.426  1.00  0.00     0.210 HD
ENDBRANCH  56  58
ENDBRANCH  55  56
BRANCH  55  60
ATOM     60  C   THR A   4     -20.771  -9.485  -0.132  1.00  0.00     0.166 C 
ATOM     61  O   THR A   4     -20.752  -9.761   1.061  1.00  0.00    -0.648 OA
BRANCH  60  62
ATOM     62  OXT THR A   4     -20.012 -10.153  -1.028  1.00  0.00    -0.775 OA
ATOM     63  HXT THR A   4     -19.330 -10.749  -0.664  1.00  0.00     0.167 HD
ENDBRANCH  60  62
ENDBRANCH  55  60
ENDBRANCH  53  55
ENDBRANCH  38  51
ENDBRANCH  36  38
ENDBRANCH   1  34
TORSDOF 24
ENDMDL
MODEL 2
REMARK VINA RESULT:      -6.8      2.047      3.783
REMARK  24 active torsions:
REMARK  status: ('A' for Active; 'I' for Inactive)
REMARK    1  A    between atoms: CB_2  and  CA_4 
REMARK    2  A    between atoms: CA_4  and  C_5 
REMARK    3  A    between atoms: CA_4  and  N_14 
REMARK       I    between atoms: C_5  and  N_7 
REMARK    4  A    between atoms: N_7  and  CA_8 
REMARK    5  A    between atoms: CA_8  and  CB_9 
REMARK    6  A    between atoms: CA_8  and  C_12 
REMARK       I    between atoms: C_12  and  N_25 
REMARK       I    between atoms: N_14  and  C_15 
REMARK    7  A    between atoms: C_15  and  CA_17 
REMARK    8  A    between atoms: CA_17  and  CB_18 
REMARK    9  A    between atoms: CA_17  and  N_20 
REMARK   10  A    between atoms: CB_18  and  OG_19 
REMARK       I    between atoms: N_20  and  C_61 
REMARK   11  A    between atoms: N_25  and  CA_26 
REMARK   12  A    between atoms: CA_26  and  CB_27 
REMARK   13  A    between atoms: CA_26  and  C_30 
REMARK       I    between atoms: C_30  and  N_33 
REMARK   14  A    between atoms: N_33  and  CA_34 
REMARK   15  A    between atoms: CA_34  and  CB_35 
REMARK   16  A    between atoms: CA_34  and  C_43 
REMARK   17  A    between atoms: CB_35  and  CG_36 
REMARK   18  A    between atoms: CG_36  and  CD_37 
REMARK   19  A    between atoms: CD_37  and  NE_38 
REMARK       I    between atoms: CZ_40  and  NH1_41 
REMARK       I    between atoms: CZ_40  and  NH2_42 
REMARK       I    between atoms: C_43  and  N_50 
REMARK   20  A    between atoms: N_50  and  CA_51 
REMARK   21  A    between atoms: CA_51  and  CB_52 
REMARK   22  A    between atoms: CA_51  and  C_55 
REMARK   23  A    between atoms: CB_52  and  OG1_54 
REMARK   24  A    between atoms: C_55  and  OXT_57 
ROOT
ATOM      1  CA  VAL A   2     -18.536 -11.419  -6.234  1.00  0.00     0.180 C 
ENDROOT
BRANCH   1   2
ATOM      2  N   VAL A   2     -17.354 -11.834  -5.435  1.00  0.00    -0.346 N 
ATOM      3  C   SER A   1     -16.167 -11.132  -5.374  1.00  0.00     0.241 C 
ATOM      4  O   SER A   1     -15.996 -10.083  -5.993  1.00  0.00    -0.271 OA
ATOM      5  H   VAL A   2     -17.461 -12.692  -4.898  1.00  0.00     0.163 HD
BRANCH   3   6
ATOM      6  CA  SER A   1     -15.061 -11.688  -4.428  1.00  0.00     0.180 C 
BRANCH   6   7
ATOM      7  N   SER A   1     -15.702 -12.047  -3.150  1.00  0.00    -0.346 N 
ATOM      8  C   SER A   1     -15.953 -11.125  -2.143  1.00  0.00     0.241 C 
ATOM      9  O   SER A   1     -15.577  -9.956  -2.232  1.00  0.00    -0.271 OA
ATOM     10  H   SER A   1     -16.040 -12.997  -3.044  1.00  0.00     0.163 HD
BRANCH   8  11
ATOM     11  CA  SER A   1     -16.567 -11.685  -0.824  1.00  0.00     0.180 C 
BRANCH  11  12
ATOM     12  CB  SER A   1     -15.558 -12.563  -0.031  1.00  0.00     0.009 C 
ATOM     13  CG1 SER A   1     -15.797 -12.511   1.487  1.00  0.00     0.012 C 
ATOM     14  CG2 SER A   1     -15.619 -14.040  -0.455  1.00  0.00     0.012 C 
ENDBRANCH  11  12
BRANCH  11  15
ATOM     15  N   SER A   1     -17.796 -12.438  -1.125  1.00  0.00    -0.346 N 
ATOM     16  C   SER A   1     -18.981 -12.168  -0.467  1.00  0.00     0.243 C 
ATOM     17  O   SER A   1     -19.094 -11.258   0.352  1.00  0.00    -0.271 OA
ATOM     18  H   SER A   1     -17.825 -13.055  -1.934  1.00  0.00     0.163 HD
BRANCH  16  19
ATOM     19  CA  SER A   1     -20.178 -13.019  -0.919  1.00  0.00     0.200 C 
BRANCH  19  20
ATOM     20  CB  SER A   1     -19.881 -13.671  -2.275  1.00  0.00     0.199 C 
BRANCH  20  21
ATOM     21  OG  SER A   1     -20.889 -13.341  -3.237  1.00  0.00    -0.398 OA
ATOM     22  H   SER A   1     -21.736 -13.319  -2.759  1.00  0.00     0.209 HD
ENDBRANCH  20  21
ENDBRANCH  19  20
BRANCH  19  23
ATOM     23  N   SER A   1     -20.467 -14.047   0.081  1.00  0.00    -0.346 N 
HETATM   24  C   UNK A   0     -21.439 -13.846   1.028  1.00  0.00     0.214 C 
HETATM   25  O   UNK A   0     -22.041 -12.783   1.132  1.00  0.00    -0.274 OA
HETATM   26  C   UNK A   0     -21.747 -15.059   1.855  1.00  0.00     0.117 C 
ATOM     27  H   SER A   1     -19.735 -14.729   0.283  1.00  0.00     0.163 HD
ENDBRANCH  19  23
ENDBRANCH  16  19
ENDBRANCH  11  15
ENDBRANCH   8  11
ENDBRANCH   6   7
BRANCH   6  28
ATOM     28  CB  SER A   1     -14.399 -12.929  -5.092  1.00  0.00     0.009 C 
ATOM     29  CG1 SER A   1     -13.605 -12.549  -6.347  1.00  0.00     0.012 C 
ATOM     30  CG2 SER A   1     -13.472 -13.696  -4.142  1.00  0.00     0.012 C 
ENDBRANCH   6  28
ENDBRANCH   3   6
ENDBRANCH   1   2
BRANCH   1  31
ATOM     31  CB  VAL A   2     -19.313 -12.639  -6.788  1.00  0.00     0.009 C 
ATOM     32  CG1 VAL A   2     -19.282 -12.746  -8.313  1.00  0.00     0.012 C 
ATOM     33  CG2 VAL A   2     -18.945 -13.978  -6.145  1.00  0.00     0.012 C 
ENDBRANCH   1  31
BRANCH   1  34
ATOM     34  C   VAL A   2     -19.455 -10.548  -5.345  1.00  0.00     0.241 C 
ATOM     35  O   VAL A   2     -20.537 -10.990  -4.932  1.00  0.00    -0.271 OA
ATOM     36  N   ARG A   3     -19.037  -9.264  -5.093  1.00  0.00    -0.346 N 
ATOM     37  H   ARG A   3     -18.127  -8.956  -5.415  1.00  0.00     0.163 HD
BRANCH  36  38
ATOM     38  CA  ARG A   3     -19.865  -8.254  -4.406  1.00  0.00     0.176 C 
BRANCH  38  39
ATOM     39  CB  ARG A   3     -21.187  -7.966  -5.150  1.00  0.00     0.036 C 
BRANCH  39  40
ATOM     40  CG  ARG A   3     -21.111  -6.908  -6.265  1.00  0.00     0.022 C 
BRANCH  40  41
ATOM     41  CD  ARG A   3     -21.466  -5.507  -5.782  1.00  0.00     0.121 C 
BRANCH  41  42
ATOM     42  NE  ARG A   3     -22.723  -5.057  -6.360  1.00  0.00    -0.372 N 
ATOM     43  CZ  ARG A   3     -22.665  -4.427  -7.476  1.00  0.00     0.121 C 
ATOM     44  NH1 ARG A   3     -21.614  -4.090  -8.263  1.00  0.00    -0.279 NA
ATOM     45  NH2 ARG A   3     -23.808  -3.981  -8.038  1.00  0.00    -0.279 NA
ATOM     46 HH11 ARG A   3     -20.712  -4.074  -7.807  1.00  0.00     0.126 HD
ATOM     47 HH12 ARG A   3     -21.768  -3.199  -8.722  1.00  0.00     0.126 HD
ATOM     48 HH21 ARG A   3     -24.605  -4.362  -7.537  1.00  0.00     0.126 HD
ATOM     49 HH22 ARG A   3     -23.868  -4.191  -9.026  1.00  0.00     0.126 HD
ATOM     50  HE  ARG A   3     -23.613  -5.236  -5.897  1.00  0.00     0.161 HD
ENDBRANCH  41  42
ENDBRANCH  40  41
ENDBRANCH  39  40
ENDBRANCH  38  39
BRANCH  38  51
ATOM     51  C   ARG A   3     -20.102  -8.719  -2.942  1.00  0.00     0.241 C 
ATOM     52  O   ARG A   3     -19.161  -9.068  -2.222  1.00  0.00    -0.271 OA
ATOM     53  N   THR A   4     -21.403  -8.813  -2.511  1.00  0.00    -0.343 N 
ATOM     54  H   THR A   4     -22.153  -8.468  -3.110  1.00  0.00     0.163 HD
BRANCH  53  55
ATOM     55  CA  THR A   4     -21.853  -9.534  -1.284  1.00  0.00     0.210 C 
BRANCH  55  56
ATOM     56  CB  THR A   4     -22.459  -8.600  -0.209  1.00  0.00     0.147 C 
ATOM     57  CG2 THR A   4     -21.594  -8.428   1.035  1.00  0.00     0.042 C 
BRANCH  56  58
ATOM     58  OG1 THR A   4     -22.593  -7.257  -0.693  1.00  0.00    -0.393 OA
ATOM     59  HG1 THR A   4     -22.259  -7.214  -1.613  1.00  0.00     0.210 HD
ENDBRANCH  56  58
ENDBRANCH  55  56
BRANCH  55  60
ATOM     60  C   THR A   4     -22.873 -10.578  -1.762  1.00  0.00     0.166 C 
ATOM     61  O   THR A   4     -23.819 -10.946  -1.074  1.00  0.00    -0.648 OA
BRANCH  60  62
ATOM     62  OXT THR A   4     -22.681 -11.046  -3.014  1.00  0.00    -0.775 OA
ATOM     63  HXT THR A   4     -22.374 -10.400  -3.679  1.00  0.00     0.167 HD
ENDBRANCH  60  62
ENDBRANCH  55  60
ENDBRANCH  53  55
ENDBRANCH  38  51
ENDBRANCH  36  38
ENDBRANCH   1  34
TORSDOF 24
ENDMDL
MODEL 3
REMARK VINA RESULT:      -6.7      2.727      7.332
REMARK  24 active torsions:
REMARK  status: ('A' for Active; 'I' for Inactive)
REMARK    1  A    between atoms: CB_2  and  CA_4 
REMARK    2  A    between atoms: CA_4  and  C_5 
REMARK    3  A    between atoms: CA_4  and  N_14 
REMARK       I    between atoms: C_5  and  N_7 
REMARK    4  A    between atoms: N_7  and  CA_8 
REMARK    5  A    between atoms: CA_8  and  CB_9 
REMARK    6  A    between atoms: CA_8  and  C_12 
REMARK       I    between atoms: C_12  and  N_25 
REMARK       I    between atoms: N_14  and  C_15 
REMARK    7  A    between atoms: C_15  and  CA_17 
REMARK    8  A    between atoms: CA_17  and  CB_18 
REMARK    9  A    between atoms: CA_17  and  N_20 
REMARK   10  A    between atoms: CB_18  and  OG_19 
REMARK       I    between atoms: N_20  and  C_61 
REMARK   11  A    between atoms: N_25  and  CA_26 
REMARK   12  A    between atoms: CA_26  and  CB_27 
REMARK   13  A    between atoms: CA_26  and  C_30 
REMARK       I    between atoms: C_30  and  N_33 
REMARK   14  A    between atoms: N_33  and  CA_34 
REMARK   15  A    between atoms: CA_34  and  CB_35 
REMARK   16  A    between atoms: CA_34  and  C_43 
REMARK   17  A    between atoms: CB_35  and  CG_36 
REMARK   18  A    between atoms: CG_36  and  CD_37 
REMARK   19  A    between atoms: CD_37  and  NE_38 
REMARK       I    between atoms: CZ_40  and  NH1_41 
REMARK       I    between atoms: CZ_40  and  NH2_42 
REMARK       I    between atoms: C_43  and  N_50 
REMARK   20  A    between atoms: N_50  and  CA_51 
REMARK   21  A    between atoms: CA_51  and  CB_52 
REMARK   22  A    between atoms: CA_51  and  C_55 
REMARK   23  A    between atoms: CB_52  and  OG1_54 
REMARK   24  A    between atoms: C_55  and  OXT_57 
ROOT
ATOM      1  CA  VAL A   2     -18.261  -9.635  -4.637  1.00  0.00     0.180 C 
ENDROOT
BRANCH   1   2
ATOM      2  N   VAL A   2     -18.455 -10.486  -3.435  1.00  0.00    -0.346 N 
ATOM      3  C   SER A   1     -17.581 -10.543  -2.368  1.00  0.00     0.241 C 
ATOM      4  O   SER A   1     -16.548  -9.876  -2.333  1.00  0.00    -0.271 OA
ATOM      5  H   VAL A   2     -19.305 -11.046  -3.421  1.00  0.00     0.163 HD
BRANCH   3   6
ATOM      6  CA  SER A   1     -17.987 -11.446  -1.165  1.00  0.00     0.180 C 
BRANCH   6   7
ATOM      7  N   SER A   1     -19.243 -12.130  -1.521  1.00  0.00    -0.346 N 
ATOM      8  C   SER A   1     -20.486 -11.517  -1.450  1.00  0.00     0.241 C 
ATOM      9  O   SER A   1     -20.618 -10.377  -1.004  1.00  0.00    -0.271 OA
ATOM     10  H   SER A   1     -19.176 -13.065  -1.907  1.00  0.00     0.163 HD
BRANCH   8  11
ATOM     11  CA  SER A   1     -21.721 -12.408  -1.788  1.00  0.00     0.180 C 
BRANCH  11  12
ATOM     12  CB  SER A   1     -22.190 -13.252  -0.570  1.00  0.00     0.009 C 
ATOM     13  CG1 SER A   1     -22.502 -12.387   0.662  1.00  0.00     0.012 C 
ATOM     14  CG2 SER A   1     -23.452 -14.073  -0.886  1.00  0.00     0.012 C 
ENDBRANCH  11  12
BRANCH  11  15
ATOM     15  N   SER A   1     -21.413 -13.271  -2.940  1.00  0.00    -0.346 N 
ATOM     16  C   SER A   1     -21.886 -12.974  -4.205  1.00  0.00     0.243 C 
ATOM     17  O   SER A   1     -22.529 -11.956  -4.451  1.00  0.00    -0.271 OA
ATOM     18  H   SER A   1     -20.717 -14.008  -2.848  1.00  0.00     0.163 HD
BRANCH  16  19
ATOM     19  CA  SER A   1     -21.450 -13.956  -5.304  1.00  0.00     0.200 C 
BRANCH  19  20
ATOM     20  CB  SER A   1     -22.635 -14.832  -5.729  1.00  0.00     0.199 C 
BRANCH  20  21
ATOM     21  OG  SER A   1     -23.658 -14.835  -4.728  1.00  0.00    -0.398 OA
ATOM     22  H   SER A   1     -24.461 -15.188  -5.149  1.00  0.00     0.209 HD
ENDBRANCH  20  21
ENDBRANCH  19  20
BRANCH  19  23
ATOM     23  N   SER A   1     -20.930 -13.218  -6.455  1.00  0.00    -0.346 N 
HETATM   24  C   UNK A   0     -19.947 -13.759  -7.244  1.00  0.00     0.214 C 
HETATM   25  O   UNK A   0     -19.409 -14.828  -6.979  1.00  0.00    -0.274 OA
HETATM   26  C   UNK A   0     -19.659 -12.971  -8.488  1.00  0.00     0.117 C 
ATOM     27  H   SER A   1     -21.041 -12.204  -6.457  1.00  0.00     0.163 HD
ENDBRANCH  19  23
ENDBRANCH  16  19
ENDBRANCH  11  15
ENDBRANCH   8  11
ENDBRANCH   6   7
BRANCH   6  28
ATOM     28  CB  SER A   1     -16.849 -12.469  -0.888  1.00  0.00     0.009 C 
ATOM     29  CG1 SER A   1     -16.154 -12.914  -2.180  1.00  0.00     0.012 C 
ATOM     30  CG2 SER A   1     -15.785 -11.938   0.080  1.00  0.00     0.012 C 
ENDBRANCH   6  28
ENDBRANCH   3   6
ENDBRANCH   1   2
BRANCH   1  31
ATOM     31  CB  VAL A   2     -17.440 -10.362  -5.730  1.00  0.00     0.009 C 
ATOM     32  CG1 VAL A   2     -16.046  -9.771  -5.947  1.00  0.00     0.012 C 
ATOM     33  CG2 VAL A   2     -17.364 -11.882  -5.570  1.00  0.00     0.012 C 
ENDBRANCH   1  31
BRANCH   1  34
ATOM     34  C   VAL A   2     -19.649  -9.223  -5.183  1.00  0.00     0.241 C 
ATOM     35  O   VAL A   2     -20.306 -10.004  -5.887  1.00  0.00    -0.271 OA
ATOM     36  N   ARG A   3     -20.075  -7.950  -4.895  1.00  0.00    -0.346 N 
ATOM     37  H   ARG A   3     -19.524  -7.359  -4.282  1.00  0.00     0.163 HD
BRANCH  36  38
ATOM     38  CA  ARG A   3     -21.291  -7.343  -5.471  1.00  0.00     0.176 C 
BRANCH  38  39
ATOM     39  CB  ARG A   3     -22.028  -6.429  -4.469  1.00  0.00     0.036 C 
BRANCH  39  40
ATOM     40  CG  ARG A   3     -21.349  -6.254  -3.098  1.00  0.00     0.022 C 
BRANCH  40  41
ATOM     41  CD  ARG A   3     -22.274  -6.575  -1.930  1.00  0.00     0.121 C 
BRANCH  41  42
ATOM     42  NE  ARG A   3     -21.585  -7.362  -0.919  1.00  0.00    -0.372 N 
ATOM     43  CZ  ARG A   3     -22.274  -7.761   0.086  1.00  0.00     0.121 C 
ATOM     44  NH1 ARG A   3     -23.582  -7.594   0.400  1.00  0.00    -0.279 NA
ATOM     45  NH2 ARG A   3     -21.669  -8.481   1.054  1.00  0.00    -0.279 NA
ATOM     46 HH11 ARG A   3     -24.048  -6.822  -0.056  1.00  0.00     0.126 HD
ATOM     47 HH12 ARG A   3     -23.714  -7.513   1.403  1.00  0.00     0.126 HD
ATOM     48 HH21 ARG A   3     -20.734  -8.740   0.751  1.00  0.00     0.126 HD
ATOM     49 HH22 ARG A   3     -22.200  -9.299   1.325  1.00  0.00     0.126 HD
ATOM     50  HE  ARG A   3     -20.594  -7.586  -1.005  1.00  0.00     0.161 HD
ENDBRANCH  41  42
ENDBRANCH  40  41
ENDBRANCH  39  40
ENDBRANCH  38  39
BRANCH  38  51
ATOM     51  C   ARG A   3     -20.901  -6.594  -6.776  1.00  0.00     0.241 C 
ATOM     52  O   ARG A   3     -19.747  -6.632  -7.214  1.00  0.00    -0.271 OA
ATOM     53  N   THR A   4     -21.865  -5.817  -7.371  1.00  0.00    -0.343 N 
ATOM     54  H   THR A   4     -22.820  -5.849  -7.016  1.00  0.00     0.163 HD
BRANCH  53  55
ATOM     55  CA  THR A   4     -21.612  -4.783  -8.416  1.00  0.00     0.210 C 
BRANCH  55  56
ATOM     56  CB  THR A   4     -22.907  -4.176  -9.007  1.00  0.00     0.147 C 
ATOM     57  CG2 THR A   4     -23.545  -5.009 -10.114  1.00  0.00     0.042 C 
BRANCH  56  58
ATOM     58  OG1 THR A   4     -23.949  -4.100  -8.025  1.00  0.00    -0.393 OA
ATOM     59  HG1 THR A   4     -24.541  -4.874  -8.128  1.00  0.00     0.210 HD
ENDBRANCH  56  58
ENDBRANCH  55  56
BRANCH  55  60
ATOM     60  C   THR A   4     -20.744  -3.709  -7.744  1.00  0.00     0.166 C 
ATOM     61  O   THR A   4     -19.556  -3.557  -8.002  1.00  0.00    -0.648 OA
BRANCH  60  62
ATOM     62  OXT THR A   4     -21.387  -2.911  -6.865  1.00  0.00    -0.775 OA
ATOM     63  HXT THR A   4     -22.251  -2.555  -7.149  1.00  0.00     0.167 HD
ENDBRANCH  60  62
ENDBRANCH  55  60
ENDBRANCH  53  55
ENDBRANCH  38  51
ENDBRANCH  36  38
ENDBRANCH   1  34
TORSDOF 24
ENDMDL
MODEL 4
REMARK VINA RESULT:      -6.6      2.567      5.964
REMARK  24 active torsions:
REMARK  status: ('A' for Active; 'I' for Inactive)
REMARK    1  A    between atoms: CB_2  and  CA_4 
REMARK    2  A    between atoms: CA_4  and  C_5 
REMARK    3  A    between atoms: CA_4  and  N_14 
REMARK       I    between atoms: C_5  and  N_7 
REMARK    4  A    between atoms: N_7  and  CA_8 
REMARK    5  A    between atoms: CA_8  and  CB_9 
REMARK    6  A    between atoms: CA_8  and  C_12 
REMARK       I    between atoms: C_12  and  N_25 
REMARK       I    between atoms: N_14  and  C_15 
REMARK    7  A    between atoms: C_15  and  CA_17 
REMARK    8  A    between atoms: CA_17  and  CB_18 
REMARK    9  A    between atoms: CA_17  and  N_20 
REMARK   10  A    between atoms: CB_18  and  OG_19 
REMARK       I    between atoms: N_20  and  C_61 
REMARK   11  A    between atoms: N_25  and  CA_26 
REMARK   12  A    between atoms: CA_26  and  CB_27 
REMARK   13  A    between atoms: CA_26  and  C_30 
REMARK       I    between atoms: C_30  and  N_33 
REMARK   14  A    between atoms: N_33  and  CA_34 
REMARK   15  A    between atoms: CA_34  and  CB_35 
REMARK   16  A    between atoms: CA_34  and  C_43 
REMARK   17  A    between atoms: CB_35  and  CG_36 
REMARK   18  A    between atoms: CG_36  and  CD_37 
REMARK   19  A    between atoms: CD_37  and  NE_38 
REMARK       I    between atoms: CZ_40  and  NH1_41 
REMARK       I    between atoms: CZ_40  and  NH2_42 
REMARK       I    between atoms: C_43  and  N_50 
REMARK   20  A    between atoms: N_50  and  CA_51 
REMARK   21  A    between atoms: CA_51  and  CB_52 
REMARK   22  A    between atoms: CA_51  and  C_55 
REMARK   23  A    between atoms: CB_52  and  OG1_54 
REMARK   24  A    between atoms: C_55  and  OXT_57 
ROOT
ATOM      1  CA  VAL A   2     -21.839  -9.790  -0.749  1.00  0.00     0.180 C 
ENDROOT
BRANCH   1   2
ATOM      2  N   VAL A   2     -21.496 -11.081  -0.100  1.00  0.00    -0.346 N 
ATOM      3  C   SER A   1     -21.657 -12.319  -0.690  1.00  0.00     0.241 C 
ATOM      4  O   SER A   1     -22.110 -12.447  -1.826  1.00  0.00    -0.271 OA
ATOM      5  H   VAL A   2     -21.108 -11.016   0.838  1.00  0.00     0.163 HD
BRANCH   3   6
ATOM      6  CA  SER A   1     -21.179 -13.560   0.122  1.00  0.00     0.180 C 
BRANCH   6   7
ATOM      7  N   SER A   1     -19.712 -13.480   0.240  1.00  0.00    -0.346 N 
ATOM      8  C   SER A   1     -18.856 -14.445  -0.273  1.00  0.00     0.241 C 
ATOM      9  O   SER A   1     -19.285 -15.476  -0.793  1.00  0.00    -0.271 OA
ATOM     10  H   SER A   1     -19.318 -12.639   0.648  1.00  0.00     0.163 HD
BRANCH   8  11
ATOM     11  CA  SER A   1     -17.335 -14.247   0.007  1.00  0.00     0.180 C 
BRANCH  11  12
ATOM     12  CB  SER A   1     -17.071 -13.150   1.078  1.00  0.00     0.009 C 
ATOM     13  CG1 SER A   1     -16.138 -13.634   2.199  1.00  0.00     0.012 C 
ATOM     14  CG2 SER A   1     -16.439 -11.887   0.468  1.00  0.00     0.012 C 
ENDBRANCH  11  12
BRANCH  11  15
ATOM     15  N   SER A   1     -16.632 -13.937  -1.249  1.00  0.00    -0.346 N 
ATOM     16  C   SER A   1     -15.620 -14.750  -1.723  1.00  0.00     0.243 C 
ATOM     17  O   SER A   1     -15.293 -15.795  -1.167  1.00  0.00    -0.271 OA
ATOM     18  H   SER A   1     -16.992 -13.209  -1.863  1.00  0.00     0.163 HD
BRANCH  16  19
ATOM     19  CA  SER A   1     -15.010 -14.306  -3.062  1.00  0.00     0.200 C 
BRANCH  19  20
ATOM     20  CB  SER A   1     -13.566 -13.836  -2.854  1.00  0.00     0.199 C 
BRANCH  20  21
ATOM     21  OG  SER A   1     -13.268 -12.704  -3.679  1.00  0.00    -0.398 OA
ATOM     22  H   SER A   1     -13.625 -11.923  -3.222  1.00  0.00     0.209 HD
ENDBRANCH  20  21
ENDBRANCH  19  20
BRANCH  19  23
ATOM     23  N   SER A   1     -15.048 -15.411  -4.020  1.00  0.00    -0.346 N 
HETATM   24  C   UNK A   0     -15.068 -15.166  -5.369  1.00  0.00     0.214 C 
HETATM   25  O   UNK A   0     -15.140 -14.032  -5.826  1.00  0.00    -0.274 OA
HETATM   26  C   UNK A   0     -14.911 -16.394  -6.216  1.00  0.00     0.117 C 
ATOM     27  H   SER A   1     -15.403 -16.310  -3.691  1.00  0.00     0.163 HD
ENDBRANCH  19  23
ENDBRANCH  16  19
ENDBRANCH  11  15
ENDBRANCH   8  11
ENDBRANCH   6   7
BRANCH   6  28
ATOM     28  CB  SER A   1     -21.857 -13.547   1.521  1.00  0.00     0.009 C 
ATOM     29  CG1 SER A   1     -23.380 -13.409   1.417  1.00  0.00     0.012 C 
ATOM     30  CG2 SER A   1     -21.536 -14.792   2.356  1.00  0.00     0.012 C 
ENDBRANCH   6  28
ENDBRANCH   3   6
ENDBRANCH   1   2
BRANCH   1  31
ATOM     31  CB  VAL A   2     -21.691  -8.597   0.228  1.00  0.00     0.009 C 
ATOM     32  CG1 VAL A   2     -23.013  -7.902   0.555  1.00  0.00     0.012 C 
ATOM     33  CG2 VAL A   2     -20.913  -8.912   1.508  1.00  0.00     0.012 C 
ENDBRANCH   1  31
BRANCH   1  34
ATOM     34  C   VAL A   2     -20.928  -9.597  -1.985  1.00  0.00     0.241 C 
ATOM     35  O   VAL A   2     -19.714  -9.390  -1.847  1.00  0.00    -0.271 OA
ATOM     36  N   ARG A   3     -21.541  -9.613  -3.214  1.00  0.00    -0.346 N 
ATOM     37  H   ARG A   3     -22.529  -9.826  -3.284  1.00  0.00     0.163 HD
BRANCH  36  38
ATOM     38  CA  ARG A   3     -20.850  -9.283  -4.477  1.00  0.00     0.176 C 
BRANCH  38  39
ATOM     39  CB  ARG A   3     -20.304  -7.839  -4.493  1.00  0.00     0.036 C 
BRANCH  39  40
ATOM     40  CG  ARG A   3     -21.325  -6.734  -4.168  1.00  0.00     0.022 C 
BRANCH  40  41
ATOM     41  CD  ARG A   3     -22.222  -6.385  -5.349  1.00  0.00     0.121 C 
BRANCH  41  42
ATOM     42  NE  ARG A   3     -21.625  -5.345  -6.171  1.00  0.00    -0.372 N 
ATOM     43  CZ  ARG A   3     -22.422  -4.554  -6.790  1.00  0.00     0.121 C 
ATOM     44  NH1 ARG A   3     -23.775  -4.488  -6.822  1.00  0.00    -0.279 NA
ATOM     45  NH2 ARG A   3     -21.907  -3.584  -7.575  1.00  0.00    -0.279 NA
ATOM     46 HH11 ARG A   3     -24.262  -5.333  -6.555  1.00  0.00     0.126 HD
ATOM     47 HH12 ARG A   3     -24.109  -4.190  -7.733  1.00  0.00     0.126 HD
ATOM     48 HH21 ARG A   3     -20.902  -3.529  -7.434  1.00  0.00     0.126 HD
ATOM     49 HH22 ARG A   3     -22.343  -2.683  -7.423  1.00  0.00     0.126 HD
ATOM     50  HE  ARG A   3     -20.613  -5.248  -6.252  1.00  0.00     0.161 HD
ENDBRANCH  41  42
ENDBRANCH  40  41
ENDBRANCH  39  40
ENDBRANCH  38  39
BRANCH  38  51
ATOM     51  C   ARG A   3     -19.736 -10.338  -4.722  1.00  0.00     0.241 C 
ATOM     52  O   ARG A   3     -20.012 -11.521  -4.938  1.00  0.00    -0.271 OA
ATOM     53  N   THR A   4     -18.433  -9.921  -4.600  1.00  0.00    -0.343 N 
ATOM     54  H   THR A   4     -18.236  -8.928  -4.473  1.00  0.00     0.163 HD
BRANCH  53  55
ATOM     55  CA  THR A   4     -17.249 -10.821  -4.473  1.00  0.00     0.210 C 
BRANCH  55  56
ATOM     56  CB  THR A   4     -16.311 -10.781  -5.703  1.00  0.00     0.147 C 
ATOM     57  CG2 THR A   4     -16.136  -9.395  -6.316  1.00  0.00     0.042 C 
BRANCH  56  58
ATOM     58  OG1 THR A   4     -14.969 -11.147  -5.354  1.00  0.00    -0.393 OA
ATOM     59  HG1 THR A   4     -14.479 -10.342  -5.086  1.00  0.00     0.210 HD
ENDBRANCH  56  58
ENDBRANCH  55  56
BRANCH  55  60
ATOM     60  C   THR A   4     -16.520 -10.379  -3.196  1.00  0.00     0.166 C 
ATOM     61  O   THR A   4     -15.645 -11.051  -2.663  1.00  0.00    -0.648 OA
BRANCH  60  62
ATOM     62  OXT THR A   4     -16.884  -9.173  -2.708  1.00  0.00    -0.775 OA
ATOM     63  HXT THR A   4     -16.365  -8.404  -3.014  1.00  0.00     0.167 HD
ENDBRANCH  60  62
ENDBRANCH  55  60
ENDBRANCH  53  55
ENDBRANCH  38  51
ENDBRANCH  36  38
ENDBRANCH   1  34
TORSDOF 24
ENDMDL
MODEL 5
REMARK VINA RESULT:      -6.6      3.343      8.355
REMARK  24 active torsions:
REMARK  status: ('A' for Active; 'I' for Inactive)
REMARK    1  A    between atoms: CB_2  and  CA_4 
REMARK    2  A    between atoms: CA_4  and  C_5 
REMARK    3  A    between atoms: CA_4  and  N_14 
REMARK       I    between atoms: C_5  and  N_7 
REMARK    4  A    between atoms: N_7  and  CA_8 
REMARK    5  A    between atoms: CA_8  and  CB_9 
REMARK    6  A    between atoms: CA_8  and  C_12 
REMARK       I    between atoms: C_12  and  N_25 
REMARK       I    between atoms: N_14  and  C_15 
REMARK    7  A    between atoms: C_15  and  CA_17 
REMARK    8  A    between atoms: CA_17  and  CB_18 
REMARK    9  A    between atoms: CA_17  and  N_20 
REMARK   10  A    between atoms: CB_18  and  OG_19 
REMARK       I    between atoms: N_20  and  C_61 
REMARK   11  A    between atoms: N_25  and  CA_26 
REMARK   12  A    between atoms: CA_26  and  CB_27 
REMARK   13  A    between atoms: CA_26  and  C_30 
REMARK       I    between atoms: C_30  and  N_33 
REMARK   14  A    between atoms: N_33  and  CA_34 
REMARK   15  A    between atoms: CA_34  and  CB_35 
REMARK   16  A    between atoms: CA_34  and  C_43 
REMARK   17  A    between atoms: CB_35  and  CG_36 
REMARK   18  A    between atoms: CG_36  and  CD_37 
REMARK   19  A    between atoms: CD_37  and  NE_38 
REMARK       I    between atoms: CZ_40  and  NH1_41 
REMARK       I    between atoms: CZ_40  and  NH2_42 
REMARK       I    between atoms: C_43  and  N_50 
REMARK   20  A    between atoms: N_50  and  CA_51 
REMARK   21  A    between atoms: CA_51  and  CB_52 
REMARK   22  A    between atoms: CA_51  and  C_55 
REMARK   23  A    between atoms: CB_52  and  OG1_54 
REMARK   24  A    between atoms: C_55  and  OXT_57 
ROOT
ATOM      1  CA  VAL A   2     -18.029 -10.506  -4.805  1.00  0.00     0.180 C 
ENDROOT
BRANCH   1   2
ATOM      2  N   VAL A   2     -19.108  -9.984  -3.927  1.00  0.00    -0.346 N 
ATOM      3  C   SER A   1     -20.277  -9.409  -4.383  1.00  0.00     0.241 C 
ATOM      4  O   SER A   1     -20.518  -9.282  -5.582  1.00  0.00    -0.271 OA
ATOM      5  H   VAL A   2     -18.950 -10.082  -2.927  1.00  0.00     0.163 HD
BRANCH   3   6
ATOM      6  CA  SER A   1     -21.323  -8.981  -3.311  1.00  0.00     0.180 C 
BRANCH   6   7
ATOM      7  N   SER A   1     -21.510 -10.115  -2.388  1.00  0.00    -0.346 N 
ATOM      8  C   SER A   1     -22.269 -11.233  -2.704  1.00  0.00     0.241 C 
ATOM      9  O   SER A   1     -22.902 -11.304  -3.757  1.00  0.00    -0.271 OA
ATOM     10  H   SER A   1     -20.992 -10.101  -1.516  1.00  0.00     0.163 HD
BRANCH   8  11
ATOM     11  CA  SER A   1     -22.427 -12.306  -1.584  1.00  0.00     0.180 C 
BRANCH  11  12
ATOM     12  CB  SER A   1     -22.799 -11.676  -0.212  1.00  0.00     0.009 C 
ATOM     13  CG1 SER A   1     -24.126 -10.901  -0.259  1.00  0.00     0.012 C 
ATOM     14  CG2 SER A   1     -22.926 -12.736   0.896  1.00  0.00     0.012 C 
ENDBRANCH  11  12
BRANCH  11  15
ATOM     15  N   SER A   1     -21.194 -13.105  -1.480  1.00  0.00    -0.346 N 
ATOM     16  C   SER A   1     -21.098 -14.353  -2.065  1.00  0.00     0.243 C 
ATOM     17  O   SER A   1     -21.998 -14.838  -2.747  1.00  0.00    -0.271 OA
ATOM     18  H   SER A   1     -20.346 -12.679  -1.113  1.00  0.00     0.163 HD
BRANCH  16  19
ATOM     19  CA  SER A   1     -19.736 -15.043  -1.892  1.00  0.00     0.200 C 
BRANCH  19  20
ATOM     20  CB  SER A   1     -19.548 -16.119  -2.968  1.00  0.00     0.199 C 
BRANCH  20  21
ATOM     21  OG  SER A   1     -19.673 -15.562  -4.280  1.00  0.00    -0.398 OA
ATOM     22  H   SER A   1     -18.970 -15.960  -4.823  1.00  0.00     0.209 HD
ENDBRANCH  20  21
ENDBRANCH  19  20
BRANCH  19  23
ATOM     23  N   SER A   1     -18.661 -14.054  -1.975  1.00  0.00    -0.346 N 
HETATM   24  C   UNK A   0     -17.702 -13.981  -0.997  1.00  0.00     0.214 C 
HETATM   25  O   UNK A   0     -17.747 -14.670   0.015  1.00  0.00    -0.274 OA
HETATM   26  C   UNK A   0     -16.568 -13.054  -1.321  1.00  0.00     0.117 C 
ATOM     27  H   SER A   1     -18.823 -13.226  -2.549  1.00  0.00     0.163 HD
ENDBRANCH  19  23
ENDBRANCH  16  19
ENDBRANCH  11  15
ENDBRANCH   8  11
ENDBRANCH   6   7
BRANCH   6  28
ATOM     28  CB  SER A   1     -20.798  -7.725  -2.559  1.00  0.00     0.009 C 
ATOM     29  CG1 SER A   1     -21.588  -6.465  -2.930  1.00  0.00     0.012 C 
ATOM     30  CG2 SER A   1     -20.820  -7.883  -1.035  1.00  0.00     0.012 C 
ENDBRANCH   6  28
ENDBRANCH   3   6
ENDBRANCH   1   2
BRANCH   1  31
ATOM     31  CB  VAL A   2     -16.629 -10.323  -4.168  1.00  0.00     0.009 C 
ATOM     32  CG1 VAL A   2     -15.594  -9.724  -5.121  1.00  0.00     0.012 C 
ATOM     33  CG2 VAL A   2     -16.627  -9.579  -2.831  1.00  0.00     0.012 C 
ENDBRANCH   1  31
BRANCH   1  34
ATOM     34  C   VAL A   2     -18.303 -12.001  -5.095  1.00  0.00     0.241 C 
ATOM     35  O   VAL A   2     -19.094 -12.645  -4.390  1.00  0.00    -0.271 OA
ATOM     36  N   ARG A   3     -17.592 -12.573  -6.121  1.00  0.00    -0.346 N 
ATOM     37  H   ARG A   3     -16.987 -12.000  -6.698  1.00  0.00     0.163 HD
BRANCH  36  38
ATOM     38  CA  ARG A   3     -17.611 -14.018  -6.423  1.00  0.00     0.176 C 
BRANCH  38  39
ATOM     39  CB  ARG A   3     -17.460 -14.309  -7.932  1.00  0.00     0.036 C 
BRANCH  39  40
ATOM     40  CG  ARG A   3     -18.774 -14.451  -8.721  1.00  0.00     0.022 C 
BRANCH  40  41
ATOM     41  CD  ARG A   3     -20.006 -14.486  -7.826  1.00  0.00     0.121 C 
BRANCH  41  42
ATOM     42  NE  ARG A   3     -20.670 -13.192  -7.799  1.00  0.00    -0.372 N 
ATOM     43  CZ  ARG A   3     -21.366 -12.909  -6.760  1.00  0.00     0.121 C 
ATOM     44  NH1 ARG A   3     -21.607 -13.609  -5.624  1.00  0.00    -0.279 NA
ATOM     45  NH2 ARG A   3     -22.010 -11.724  -6.702  1.00  0.00    -0.279 NA
ATOM     46 HH11 ARG A   3     -21.463 -14.607  -5.685  1.00  0.00     0.126 HD
ATOM     47 HH12 ARG A   3     -22.543 -13.432  -5.273  1.00  0.00     0.126 HD
ATOM     48 HH21 ARG A   3     -21.710 -11.136  -7.474  1.00  0.00     0.126 HD
ATOM     49 HH22 ARG A   3     -21.883 -11.251  -5.816  1.00  0.00     0.126 HD
ATOM     50  HE  ARG A   3     -20.586 -12.536  -8.575  1.00  0.00     0.161 HD
ENDBRANCH  41  42
ENDBRANCH  40  41
ENDBRANCH  39  40
ENDBRANCH  38  39
BRANCH  38  51
ATOM     51  C   ARG A   3     -16.512 -14.716  -5.575  1.00  0.00     0.241 C 
ATOM     52  O   ARG A   3     -16.597 -14.778  -4.345  1.00  0.00    -0.271 OA
ATOM     53  N   THR A   4     -15.400 -15.178  -6.237  1.00  0.00    -0.343 N 
ATOM     54  H   THR A   4     -15.383 -15.159  -7.257  1.00  0.00     0.163 HD
BRANCH  53  55
ATOM     55  CA  THR A   4     -14.115 -15.572  -5.590  1.00  0.00     0.210 C 
BRANCH  55  56
ATOM     56  CB  THR A   4     -13.349 -16.672  -6.363  1.00  0.00     0.147 C 
ATOM     57  CG2 THR A   4     -14.050 -17.157  -7.629  1.00  0.00     0.042 C 
BRANCH  56  58
ATOM     58  OG1 THR A   4     -12.093 -16.191  -6.859  1.00  0.00    -0.393 OA
ATOM     59  HG1 THR A   4     -11.943 -15.283  -6.521  1.00  0.00     0.210 HD
ENDBRANCH  56  58
ENDBRANCH  55  56
BRANCH  55  60
ATOM     60  C   THR A   4     -13.287 -14.283  -5.480  1.00  0.00     0.166 C 
ATOM     61  O   THR A   4     -12.963 -13.616  -6.456  1.00  0.00    -0.648 OA
BRANCH  60  62
ATOM     62  OXT THR A   4     -12.965 -13.907  -4.224  1.00  0.00    -0.775 OA
ATOM     63  HXT THR A   4     -12.665 -12.985  -4.108  1.00  0.00     0.167 HD
ENDBRANCH  60  62
ENDBRANCH  55  60
ENDBRANCH  53  55
ENDBRANCH  38  51
ENDBRANCH  36  38
ENDBRANCH   1  34
TORSDOF 24
ENDMDL
MODEL 6
REMARK VINA RESULT:      -6.6      1.757      2.427
REMARK  24 active torsions:
REMARK  status: ('A' for Active; 'I' for Inactive)
REMARK    1  A    between atoms: CB_2  and  CA_4 
REMARK    2  A    between atoms: CA_4  and  C_5 
REMARK    3  A    between atoms: CA_4  and  N_14 
REMARK       I    between atoms: C_5  and  N_7 
REMARK    4  A    between atoms: N_7  and  CA_8 
REMARK    5  A    between atoms: CA_8  and  CB_9 
REMARK    6  A    between atoms: CA_8  and  C_12 
REMARK       I    between atoms: C_12  and  N_25 
REMARK       I    between atoms: N_14  and  C_15 
REMARK    7  A    between atoms: C_15  and  CA_17 
REMARK    8  A    between atoms: CA_17  and  CB_18 
REMARK    9  A    between atoms: CA_17  and  N_20 
REMARK   10  A    between atoms: CB_18  and  OG_19 
REMARK       I    between atoms: N_20  and  C_61 
REMARK   11  A    between atoms: N_25  and  CA_26 
REMARK   12  A    between atoms: CA_26  and  CB_27 
REMARK   13  A    between atoms: CA_26  and  C_30 
REMARK       I    between atoms: C_30  and  N_33 
REMARK   14  A    between atoms: N_33  and  CA_34 
REMARK   15  A    between atoms: CA_34  and  CB_35 
REMARK   16  A    between atoms: CA_34  and  C_43 
REMARK   17  A    between atoms: CB_35  and  CG_36 
REMARK   18  A    between atoms: CG_36  and  CD_37 
REMARK   19  A    between atoms: CD_37  and  NE_38 
REMARK       I    between atoms: CZ_40  and  NH1_41 
REMARK       I    between atoms: CZ_40  and  NH2_42 
REMARK       I    between atoms: C_43  and  N_50 
REMARK   20  A    between atoms: N_50  and  CA_51 
REMARK   21  A    between atoms: CA_51  and  CB_52 
REMARK   22  A    between atoms: CA_51  and  C_55 
REMARK   23  A    between atoms: CB_52  and  OG1_54 
REMARK   24  A    between atoms: C_55  and  OXT_57 
ROOT
ATOM      1  CA  VAL A   2     -20.426 -12.095  -6.194  1.00  0.00     0.180 C 
ENDROOT
BRANCH   1   2
ATOM      2  N   VAL A   2     -19.336 -13.029  -6.579  1.00  0.00    -0.346 N 
ATOM      3  C   SER A   1     -19.049 -13.403  -7.876  1.00  0.00     0.241 C 
ATOM      4  O   SER A   1     -19.691 -12.979  -8.835  1.00  0.00    -0.271 OA
ATOM      5  H   VAL A   2     -18.774 -13.392  -5.812  1.00  0.00     0.163 HD
BRANCH   3   6
ATOM      6  CA  SER A   1     -17.824 -14.342  -8.090  1.00  0.00     0.180 C 
BRANCH   6   7
ATOM      7  N   SER A   1     -17.200 -14.572  -6.774  1.00  0.00    -0.346 N 
ATOM      8  C   SER A   1     -16.202 -13.759  -6.255  1.00  0.00     0.241 C 
ATOM      9  O   SER A   1     -15.720 -12.834  -6.909  1.00  0.00    -0.271 OA
ATOM     10  H   SER A   1     -17.580 -15.315  -6.197  1.00  0.00     0.163 HD
BRANCH   8  11
ATOM     11  CA  SER A   1     -15.597 -14.190  -4.884  1.00  0.00     0.180 C 
BRANCH  11  12
ATOM     12  CB  SER A   1     -16.068 -15.606  -4.450  1.00  0.00     0.009 C 
ATOM     13  CG1 SER A   1     -15.022 -16.693  -4.747  1.00  0.00     0.012 C 
ATOM     14  CG2 SER A   1     -16.386 -15.674  -2.946  1.00  0.00     0.012 C 
ENDBRANCH  11  12
BRANCH  11  15
ATOM     15  N   SER A   1     -15.925 -13.187  -3.857  1.00  0.00    -0.346 N 
ATOM     16  C   SER A   1     -14.979 -12.286  -3.406  1.00  0.00     0.243 C 
ATOM     17  O   SER A   1     -13.843 -12.228  -3.871  1.00  0.00    -0.271 OA
ATOM     18  H   SER A   1     -16.895 -13.043  -3.583  1.00  0.00     0.163 HD
BRANCH  16  19
ATOM     19  CA  SER A   1     -15.489 -11.286  -2.356  1.00  0.00     0.200 C 
BRANCH  19  20
ATOM     20  CB  SER A   1     -15.938  -9.988  -3.038  1.00  0.00     0.199 C 
BRANCH  20  21
ATOM     21  OG  SER A   1     -15.922 -10.123  -4.463  1.00  0.00    -0.398 OA
ATOM     22  H   SER A   1     -15.334  -9.426  -4.804  1.00  0.00     0.209 HD
ENDBRANCH  20  21
ENDBRANCH  19  20
BRANCH  19  23
ATOM     23  N   SER A   1     -16.600 -11.872  -1.606  1.00  0.00    -0.346 N 
HETATM   24  C   UNK A   0     -16.577 -11.904  -0.235  1.00  0.00     0.214 C 
HETATM   25  O   UNK A   0     -15.606 -11.528   0.411  1.00  0.00    -0.274 OA
HETATM   26  C   UNK A   0     -17.864 -12.357   0.388  1.00  0.00     0.117 C 
ATOM     27  H   SER A   1     -17.195 -12.544  -2.091  1.00  0.00     0.163 HD
ENDBRANCH  19  23
ENDBRANCH  16  19
ENDBRANCH  11  15
ENDBRANCH   8  11
ENDBRANCH   6   7
BRANCH   6  28
ATOM     28  CB  SER A   1     -18.308 -15.676  -8.723  1.00  0.00     0.009 C 
ATOM     29  CG1 SER A   1     -18.013 -15.735 -10.227  1.00  0.00     0.012 C 
ATOM     30  CG2 SER A   1     -17.697 -16.915  -8.058  1.00  0.00     0.012 C 
ENDBRANCH   6  28
ENDBRANCH   3   6
ENDBRANCH   1   2
BRANCH   1  31
ATOM     31  CB  VAL A   2     -21.339 -12.696  -5.098  1.00  0.00     0.009 C 
ATOM     32  CG1 VAL A   2     -22.820 -12.722  -5.478  1.00  0.00     0.012 C 
ATOM     33  CG2 VAL A   2     -20.892 -14.061  -4.570  1.00  0.00     0.012 C 
ENDBRANCH   1  31
BRANCH   1  34
ATOM     34  C   VAL A   2     -19.795 -10.768  -5.709  1.00  0.00     0.241 C 
ATOM     35  O   VAL A   2     -18.571 -10.679  -5.534  1.00  0.00    -0.271 OA
ATOM     36  N   ARG A   3     -20.658  -9.735  -5.436  1.00  0.00    -0.346 N 
ATOM     37  H   ARG A   3     -21.647  -9.837  -5.632  1.00  0.00     0.163 HD
BRANCH  36  38
ATOM     38  CA  ARG A   3     -20.241  -8.464  -4.812  1.00  0.00     0.176 C 
BRANCH  38  39
ATOM     39  CB  ARG A   3     -21.110  -7.270  -5.264  1.00  0.00     0.036 C 
BRANCH  39  40
ATOM     40  CG  ARG A   3     -20.413  -6.242  -6.173  1.00  0.00     0.022 C 
BRANCH  40  41
ATOM     41  CD  ARG A   3     -20.978  -4.835  -6.025  1.00  0.00     0.121 C 
BRANCH  41  42
ATOM     42  NE  ARG A   3     -21.381  -4.294  -7.313  1.00  0.00    -0.372 N 
ATOM     43  CZ  ARG A   3     -22.639  -4.178  -7.535  1.00  0.00     0.121 C 
ATOM     44  NH1 ARG A   3     -23.716  -4.465  -6.764  1.00  0.00    -0.279 NA
ATOM     45  NH2 ARG A   3     -23.054  -3.694  -8.725  1.00  0.00    -0.279 NA
ATOM     46 HH11 ARG A   3     -23.555  -5.120  -6.011  1.00  0.00     0.126 HD
ATOM     47 HH12 ARG A   3     -24.495  -4.794  -7.326  1.00  0.00     0.126 HD
ATOM     48 HH21 ARG A   3     -22.258  -3.335  -9.243  1.00  0.00     0.126 HD
ATOM     49 HH22 ARG A   3     -23.774  -2.988  -8.632  1.00  0.00     0.126 HD
ATOM     50  HE  ARG A   3     -20.692  -4.018  -8.012  1.00  0.00     0.161 HD
ENDBRANCH  41  42
ENDBRANCH  40  41
ENDBRANCH  39  40
ENDBRANCH  38  39
BRANCH  38  51
ATOM     51  C   ARG A   3     -20.244  -8.644  -3.269  1.00  0.00     0.241 C 
ATOM     52  O   ARG A   3     -19.204  -8.894  -2.653  1.00  0.00    -0.271 OA
ATOM     53  N   THR A   4     -21.460  -8.605  -2.630  1.00  0.00    -0.343 N 
ATOM     54  H   THR A   4     -22.293  -8.345  -3.158  1.00  0.00     0.163 HD
BRANCH  53  55
ATOM     55  CA  THR A   4     -21.715  -9.071  -1.236  1.00  0.00     0.210 C 
BRANCH  55  56
ATOM     56  CB  THR A   4     -22.600  -8.103  -0.415  1.00  0.00     0.147 C 
ATOM     57  CG2 THR A   4     -22.169  -7.935   1.039  1.00  0.00     0.042 C 
BRANCH  56  58
ATOM     58  OG1 THR A   4     -22.529  -6.765  -0.925  1.00  0.00    -0.393 OA
ATOM     59  HG1 THR A   4     -22.380  -6.147  -0.179  1.00  0.00     0.210 HD
ENDBRANCH  56  58
ENDBRANCH  55  56
BRANCH  55  60
ATOM     60  C   THR A   4     -22.369 -10.454  -1.368  1.00  0.00     0.166 C 
ATOM     61  O   THR A   4     -23.543 -10.664  -1.087  1.00  0.00    -0.648 OA
BRANCH  60  62
ATOM     62  OXT THR A   4     -21.570 -11.430  -1.852  1.00  0.00    -0.775 OA
ATOM     63  HXT THR A   4     -21.631 -12.301  -1.415  1.00  0.00     0.167 HD
ENDBRANCH  60  62
ENDBRANCH  55  60
ENDBRANCH  53  55
ENDBRANCH  38  51
ENDBRANCH  36  38
ENDBRANCH   1  34
TORSDOF 24
ENDMDL
MODEL 7
REMARK VINA RESULT:      -6.4      2.886      6.916
REMARK  24 active torsions:
REMARK  status: ('A' for Active; 'I' for Inactive)
REMARK    1  A    between atoms: CB_2  and  CA_4 
REMARK    2  A    between atoms: CA_4  and  C_5 
REMARK    3  A    between atoms: CA_4  and  N_14 
REMARK       I    between atoms: C_5  and  N_7 
REMARK    4  A    between atoms: N_7  and  CA_8 
REMARK    5  A    between atoms: CA_8  and  CB_9 
REMARK    6  A    between atoms: CA_8  and  C_12 
REMARK       I    between atoms: C_12  and  N_25 
REMARK       I    between atoms: N_14  and  C_15 
REMARK    7  A    between atoms: C_15  and  CA_17 
REMARK    8  A    between atoms: CA_17  and  CB_18 
REMARK    9  A    between atoms: CA_17  and  N_20 
REMARK   10  A    between atoms: CB_18  and  OG_19 
REMARK       I    between atoms: N_20  and  C_61 
REMARK   11  A    between atoms: N_25  and  CA_26 
REMARK   12  A    between atoms: CA_26  and  CB_27 
REMARK   13  A    between atoms: CA_26  and  C_30 
REMARK       I    between atoms: C_30  and  N_33 
REMARK   14  A    between atoms: N_33  and  CA_34 
REMARK   15  A    between atoms: CA_34  and  CB_35 
REMARK   16  A    between atoms: CA_34  and  C_43 
REMARK   17  A    between atoms: CB_35  and  CG_36 
REMARK   18  A    between atoms: CG_36  and  CD_37 
REMARK   19  A    between atoms: CD_37  and  NE_38 
REMARK       I    between atoms: CZ_40  and  NH1_41 
REMARK       I    between atoms: CZ_40  and  NH2_42 
REMARK       I    between atoms: C_43  and  N_50 
REMARK   20  A    between atoms: N_50  and  CA_51 
REMARK   21  A    between atoms: CA_51  and  CB_52 
REMARK   22  A    between atoms: CA_51  and  C_55 
REMARK   23  A    between atoms: CB_52  and  OG1_54 
REMARK   24  A    between atoms: C_55  and  OXT_57 
ROOT
ATOM      1  CA  VAL A   2     -17.742  -9.673  -3.922  1.00  0.00     0.180 C 
ENDROOT
BRANCH   1   2
ATOM      2  N   VAL A   2     -17.429 -10.885  -3.122  1.00  0.00    -0.346 N 
ATOM      3  C   SER A   1     -16.318 -11.023  -2.314  1.00  0.00     0.241 C 
ATOM      4  O   SER A   1     -15.483 -10.129  -2.195  1.00  0.00    -0.271 OA
ATOM      5  H   VAL A   2     -18.104 -11.644  -3.186  1.00  0.00     0.163 HD
BRANCH   3   6
ATOM      6  CA  SER A   1     -16.193 -12.345  -1.499  1.00  0.00     0.180 C 
BRANCH   6   7
ATOM      7  N   SER A   1     -17.555 -12.858  -1.265  1.00  0.00    -0.346 N 
ATOM      8  C   SER A   1     -18.059 -13.121   0.002  1.00  0.00     0.241 C 
ATOM      9  O   SER A   1     -17.359 -13.012   1.009  1.00  0.00    -0.271 OA
ATOM     10  H   SER A   1     -18.169 -12.946  -2.067  1.00  0.00     0.163 HD
BRANCH   8  11
ATOM     11  CA  SER A   1     -19.491 -13.734   0.067  1.00  0.00     0.180 C 
BRANCH  11  12
ATOM     12  CB  SER A   1     -19.537 -15.036   0.914  1.00  0.00     0.009 C 
ATOM     13  CG1 SER A   1     -20.923 -15.292   1.528  1.00  0.00     0.012 C 
ATOM     14  CG2 SER A   1     -19.165 -16.278   0.086  1.00  0.00     0.012 C 
ENDBRANCH  11  12
BRANCH  11  15
ATOM     15  N   SER A   1     -19.994 -13.974  -1.296  1.00  0.00    -0.346 N 
ATOM     16  C   SER A   1     -21.254 -13.556  -1.680  1.00  0.00     0.243 C 
ATOM     17  O   SER A   1     -21.995 -12.915  -0.938  1.00  0.00    -0.271 OA
ATOM     18  H   SER A   1     -19.358 -14.308  -2.018  1.00  0.00     0.163 HD
BRANCH  16  19
ATOM     19  CA  SER A   1     -21.615 -13.855  -3.143  1.00  0.00     0.200 C 
BRANCH  19  20
ATOM     20  CB  SER A   1     -20.355 -14.232  -3.932  1.00  0.00     0.199 C 
BRANCH  20  21
ATOM     21  OG  SER A   1     -19.397 -13.169  -3.911  1.00  0.00    -0.398 OA
ATOM     22  H   SER A   1     -19.899 -12.340  -3.825  1.00  0.00     0.209 HD
ENDBRANCH  20  21
ENDBRANCH  19  20
BRANCH  19  23
ATOM     23  N   SER A   1     -22.593 -14.941  -3.205  1.00  0.00    -0.346 N 
HETATM   24  C   UNK A   0     -23.417 -15.078  -4.292  1.00  0.00     0.214 C 
HETATM   25  O   UNK A   0     -23.433 -14.263  -5.207  1.00  0.00    -0.274 OA
HETATM   26  C   UNK A   0     -24.224 -16.343  -4.294  1.00  0.00     0.117 C 
ATOM     27  H   SER A   1     -22.889 -15.361  -2.323  1.00  0.00     0.163 HD
ENDBRANCH  19  23
ENDBRANCH  16  19
ENDBRANCH  11  15
ENDBRANCH   8  11
ENDBRANCH   6   7
BRANCH   6  28
ATOM     28  CB  SER A   1     -15.339 -13.364  -2.306  1.00  0.00     0.009 C 
ATOM     29  CG1 SER A   1     -15.163 -14.686  -1.551  1.00  0.00     0.012 C 
ATOM     30  CG2 SER A   1     -15.918 -13.667  -3.693  1.00  0.00     0.012 C 
ENDBRANCH   6  28
ENDBRANCH   3   6
ENDBRANCH   1   2
BRANCH   1  31
ATOM     31  CB  VAL A   2     -17.381  -9.860  -5.416  1.00  0.00     0.009 C 
ATOM     32  CG1 VAL A   2     -15.878  -9.824  -5.695  1.00  0.00     0.012 C 
ATOM     33  CG2 VAL A   2     -18.026 -11.078  -6.083  1.00  0.00     0.012 C 
ENDBRANCH   1  31
BRANCH   1  34
ATOM     34  C   VAL A   2     -19.246  -9.348  -3.762  1.00  0.00     0.241 C 
ATOM     35  O   VAL A   2     -20.065 -10.249  -3.530  1.00  0.00    -0.271 OA
ATOM     36  N   ARG A   3     -19.620  -8.039  -3.946  1.00  0.00    -0.346 N 
ATOM     37  H   ARG A   3     -18.913  -7.327  -4.094  1.00  0.00     0.163 HD
BRANCH  36  38
ATOM     38  CA  ARG A   3     -21.024  -7.587  -3.992  1.00  0.00     0.176 C 
BRANCH  38  39
ATOM     39  CB  ARG A   3     -21.291  -6.389  -3.055  1.00  0.00     0.036 C 
BRANCH  39  40
ATOM     40  CG  ARG A   3     -22.131  -6.695  -1.801  1.00  0.00     0.022 C 
BRANCH  40  41
ATOM     41  CD  ARG A   3     -21.473  -7.711  -0.876  1.00  0.00     0.121 C 
BRANCH  41  42
ATOM     42  NE  ARG A   3     -22.470  -8.523  -0.197  1.00  0.00    -0.372 N 
ATOM     43  CZ  ARG A   3     -22.799  -9.633  -0.749  1.00  0.00     0.121 C 
ATOM     44  NH1 ARG A   3     -22.372 -10.230  -1.888  1.00  0.00    -0.279 NA
ATOM     45  NH2 ARG A   3     -23.732 -10.409  -0.157  1.00  0.00    -0.279 NA
ATOM     46 HH11 ARG A   3     -21.938  -9.620  -2.567  1.00  0.00     0.126 HD
ATOM     47 HH12 ARG A   3     -23.122 -10.744  -2.339  1.00  0.00     0.126 HD
ATOM     48 HH21 ARG A   3     -23.941 -10.046   0.767  1.00  0.00     0.126 HD
ATOM     49 HH22 ARG A   3     -23.460 -11.383  -0.111  1.00  0.00     0.126 HD
ATOM     50  HE  ARG A   3     -22.891  -8.222   0.682  1.00  0.00     0.161 HD
ENDBRANCH  41  42
ENDBRANCH  40  41
ENDBRANCH  39  40
ENDBRANCH  38  39
BRANCH  38  51
ATOM     51  C   ARG A   3     -21.397  -7.275  -5.468  1.00  0.00     0.241 C 
ATOM     52  O   ARG A   3     -21.435  -8.169  -6.319  1.00  0.00    -0.271 OA
ATOM     53  N   THR A   4     -21.591  -5.958  -5.807  1.00  0.00    -0.343 N 
ATOM     54  H   THR A   4     -21.603  -5.251  -5.072  1.00  0.00     0.163 HD
BRANCH  53  55
ATOM     55  CA  THR A   4     -21.630  -5.425  -7.200  1.00  0.00     0.210 C 
BRANCH  55  56
ATOM     56  CB  THR A   4     -22.669  -4.295  -7.397  1.00  0.00     0.147 C 
ATOM     57  CG2 THR A   4     -23.207  -4.176  -8.820  1.00  0.00     0.042 C 
BRANCH  56  58
ATOM     58  OG1 THR A   4     -23.855  -4.530  -6.627  1.00  0.00    -0.393 OA
ATOM     59  HG1 THR A   4     -24.028  -3.749  -6.061  1.00  0.00     0.210 HD
ENDBRANCH  56  58
ENDBRANCH  55  56
BRANCH  55  60
ATOM     60  C   THR A   4     -20.206  -4.937  -7.503  1.00  0.00     0.166 C 
ATOM     61  O   THR A   4     -19.402  -4.645  -6.624  1.00  0.00    -0.648 OA
BRANCH  60  62
ATOM     62  OXT THR A   4     -19.878  -4.882  -8.812  1.00  0.00    -0.775 OA
ATOM     63  HXT THR A   4     -18.929  -4.964  -9.028  1.00  0.00     0.167 HD
ENDBRANCH  60  62
ENDBRANCH  55  60
ENDBRANCH  53  55
ENDBRANCH  38  51
ENDBRANCH  36  38
ENDBRANCH   1  34
TORSDOF 24
ENDMDL
MODEL 8
REMARK VINA RESULT:      -6.2      2.771      8.130
REMARK  24 active torsions:
REMARK  status: ('A' for Active; 'I' for Inactive)
REMARK    1  A    between atoms: CB_2  and  CA_4 
REMARK    2  A    between atoms: CA_4  and  C_5 
REMARK    3  A    between atoms: CA_4  and  N_14 
REMARK       I    between atoms: C_5  and  N_7 
REMARK    4  A    between atoms: N_7  and  CA_8 
REMARK    5  A    between atoms: CA_8  and  CB_9 
REMARK    6  A    between atoms: CA_8  and  C_12 
REMARK       I    between atoms: C_12  and  N_25 
REMARK       I    between atoms: N_14  and  C_15 
REMARK    7  A    between atoms: C_15  and  CA_17 
REMARK    8  A    between atoms: CA_17  and  CB_18 
REMARK    9  A    between atoms: CA_17  and  N_20 
REMARK   10  A    between atoms: CB_18  and  OG_19 
REMARK       I    between atoms: N_20  and  C_61 
REMARK   11  A    between atoms: N_25  and  CA_26 
REMARK   12  A    between atoms: CA_26  and  CB_27 
REMARK   13  A    between atoms: CA_26  and  C_30 
REMARK       I    between atoms: C_30  and  N_33 
REMARK   14  A    between atoms: N_33  and  CA_34 
REMARK   15  A    between atoms: CA_34  and  CB_35 
REMARK   16  A    between atoms: CA_34  and  C_43 
REMARK   17  A    between atoms: CB_35  and  CG_36 
REMARK   18  A    between atoms: CG_36  and  CD_37 
REMARK   19  A    between atoms: CD_37  and  NE_38 
REMARK       I    between atoms: CZ_40  and  NH1_41 
REMARK       I    between atoms: CZ_40  and  NH2_42 
REMARK       I    between atoms: C_43  and  N_50 
REMARK   20  A    between atoms: N_50  and  CA_51 
REMARK   21  A    between atoms: CA_51  and  CB_52 
REMARK   22  A    between atoms: CA_51  and  C_55 
REMARK   23  A    between atoms: CB_52  and  OG1_54 
REMARK   24  A    between atoms: C_55  and  OXT_57 
ROOT
ATOM      1  CA  VAL A   2     -22.343 -12.981  -1.620  1.00  0.00     0.180 C 
ENDROOT
BRANCH   1   2
ATOM      2  N   VAL A   2     -21.699 -11.648  -1.500  1.00  0.00    -0.346 N 
ATOM      3  C   SER A   1     -22.370 -10.479  -1.201  1.00  0.00     0.241 C 
ATOM      4  O   SER A   1     -23.585 -10.455  -1.007  1.00  0.00    -0.271 OA
ATOM      5  H   VAL A   2     -20.692 -11.629  -1.642  1.00  0.00     0.163 HD
BRANCH   3   6
ATOM      6  CA  SER A   1     -21.514  -9.186  -1.051  1.00  0.00     0.180 C 
BRANCH   6   7
ATOM      7  N   SER A   1     -21.050  -8.797  -2.396  1.00  0.00    -0.346 N 
ATOM      8  C   SER A   1     -19.879  -9.281  -2.963  1.00  0.00     0.241 C 
ATOM      9  O   SER A   1     -19.112 -10.009  -2.334  1.00  0.00    -0.271 OA
ATOM     10  H   SER A   1     -21.662  -8.210  -2.952  1.00  0.00     0.163 HD
BRANCH   8  11
ATOM     11  CA  SER A   1     -19.496  -8.707  -4.361  1.00  0.00     0.180 C 
BRANCH  11  12
ATOM     12  CB  SER A   1     -20.553  -7.700  -4.896  1.00  0.00     0.009 C 
ATOM     13  CG1 SER A   1     -19.950  -6.672  -5.866  1.00  0.00     0.012 C 
ATOM     14  CG2 SER A   1     -21.703  -8.407  -5.633  1.00  0.00     0.012 C 
ENDBRANCH  11  12
BRANCH  11  15
ATOM     15  N   SER A   1     -19.291  -9.811  -5.314  1.00  0.00    -0.346 N 
ATOM     16  C   SER A   1     -18.020 -10.223  -5.670  1.00  0.00     0.243 C 
ATOM     17  O   SER A   1     -17.003  -9.743  -5.176  1.00  0.00    -0.271 OA
ATOM     18  H   SER A   1     -20.080 -10.387  -5.598  1.00  0.00     0.163 HD
BRANCH  16  19
ATOM     19  CA  SER A   1     -17.977 -11.407  -6.650  1.00  0.00     0.200 C 
BRANCH  19  20
ATOM     20  CB  SER A   1     -16.853 -12.374  -6.260  1.00  0.00     0.199 C 
BRANCH  20  21
ATOM     21  OG  SER A   1     -15.568 -11.792  -6.499  1.00  0.00    -0.398 OA
ATOM     22  H   SER A   1     -15.021 -12.482  -6.915  1.00  0.00     0.209 HD
ENDBRANCH  20  21
ENDBRANCH  19  20
BRANCH  19  23
ATOM     23  N   SER A   1     -19.264 -12.103  -6.649  1.00  0.00    -0.346 N 
HETATM   24  C   UNK A   0     -19.694 -12.776  -7.764  1.00  0.00     0.214 C 
HETATM   25  O   UNK A   0     -19.074 -12.755  -8.820  1.00  0.00    -0.274 OA
HETATM   26  C   UNK A   0     -20.933 -13.594  -7.545  1.00  0.00     0.117 C 
ATOM     27  H   SER A   1     -19.965 -11.800  -5.972  1.00  0.00     0.163 HD
ENDBRANCH  19  23
ENDBRANCH  16  19
ENDBRANCH  11  15
ENDBRANCH   8  11
ENDBRANCH   6   7
BRANCH   6  28
ATOM     28  CB  SER A   1     -22.385  -8.068  -0.412  1.00  0.00     0.009 C 
ATOM     29  CG1 SER A   1     -22.044  -7.854   1.067  1.00  0.00     0.012 C 
ATOM     30  CG2 SER A   1     -22.267  -6.724  -1.139  1.00  0.00     0.012 C 
ENDBRANCH   6  28
ENDBRANCH   3   6
ENDBRANCH   1   2
BRANCH   1  31
ATOM     31  CB  VAL A   2     -22.646 -13.343  -3.095  1.00  0.00     0.009 C 
ATOM     32  CG1 VAL A   2     -21.770 -12.599  -4.103  1.00  0.00     0.012 C 
ATOM     33  CG2 VAL A   2     -22.662 -14.844  -3.394  1.00  0.00     0.012 C 
ENDBRANCH   1  31
BRANCH   1  34
ATOM     34  C   VAL A   2     -21.415 -14.040  -0.979  1.00  0.00     0.241 C 
ATOM     35  O   VAL A   2     -21.875 -14.901  -0.216  1.00  0.00    -0.271 OA
ATOM     36  N   ARG A   3     -20.074 -13.937  -1.255  1.00  0.00    -0.346 N 
ATOM     37  H   ARG A   3     -19.746 -13.243  -1.917  1.00  0.00     0.163 HD
BRANCH  36  38
ATOM     38  CA  ARG A   3     -19.038 -14.760  -0.600  1.00  0.00     0.176 C 
BRANCH  38  39
ATOM     39  CB  ARG A   3     -18.094 -15.440  -1.615  1.00  0.00     0.036 C 
BRANCH  39  40
ATOM     40  CG  ARG A   3     -17.809 -14.645  -2.902  1.00  0.00     0.022 C 
BRANCH  40  41
ATOM     41  CD  ARG A   3     -16.519 -13.836  -2.830  1.00  0.00     0.121 C 
BRANCH  41  42
ATOM     42  NE  ARG A   3     -16.775 -12.486  -2.355  1.00  0.00    -0.372 N 
ATOM     43  CZ  ARG A   3     -15.948 -11.571  -2.711  1.00  0.00     0.121 C 
ATOM     44  NH1 ARG A   3     -14.838 -11.618  -3.487  1.00  0.00    -0.279 NA
ATOM     45  NH2 ARG A   3     -16.142 -10.307  -2.279  1.00  0.00    -0.279 NA
ATOM     46 HH11 ARG A   3     -14.414 -12.529  -3.592  1.00  0.00     0.126 HD
ATOM     47 HH12 ARG A   3     -14.135 -10.962  -3.163  1.00  0.00     0.126 HD
ATOM     48 HH21 ARG A   3     -17.050 -10.236  -1.830  1.00  0.00     0.126 HD
ATOM     49 HH22 ARG A   3     -16.050  -9.621  -3.018  1.00  0.00     0.126 HD
ATOM     50  HE  ARG A   3     -17.578 -12.274  -1.763  1.00  0.00     0.161 HD
ENDBRANCH  41  42
ENDBRANCH  40  41
ENDBRANCH  39  40
ENDBRANCH  38  39
BRANCH  38  51
ATOM     51  C   ARG A   3     -18.269 -13.871   0.417  1.00  0.00     0.241 C 
ATOM     52  O   ARG A   3     -18.420 -12.646   0.436  1.00  0.00    -0.271 OA
ATOM     53  N   THR A   4     -17.350 -14.490   1.229  1.00  0.00    -0.343 N 
ATOM     54  H   THR A   4     -17.286 -15.507   1.225  1.00  0.00     0.163 HD
BRANCH  53  55
ATOM     55  CA  THR A   4     -16.296 -13.793   2.023  1.00  0.00     0.210 C 
BRANCH  55  56
ATOM     56  CB  THR A   4     -15.386 -14.758   2.819  1.00  0.00     0.147 C 
ATOM     57  CG2 THR A   4     -15.906 -16.191   2.898  1.00  0.00     0.042 C 
BRANCH  56  58
ATOM     58  OG1 THR A   4     -14.108 -14.918   2.189  1.00  0.00    -0.393 OA
ATOM     59  HG1 THR A   4     -13.987 -14.204   1.528  1.00  0.00     0.210 HD
ENDBRANCH  56  58
ENDBRANCH  55  56
BRANCH  55  60
ATOM     60  C   THR A   4     -15.488 -12.964   1.013  1.00  0.00     0.166 C 
ATOM     61  O   THR A   4     -14.822 -13.471   0.118  1.00  0.00    -0.648 OA
BRANCH  60  62
ATOM     62  OXT THR A   4     -15.587 -11.624   1.152  1.00  0.00    -0.775 OA
ATOM     63  HXT THR A   4     -14.895 -11.189   1.686  1.00  0.00     0.167 HD
ENDBRANCH  60  62
ENDBRANCH  55  60
ENDBRANCH  53  55
ENDBRANCH  38  51
ENDBRANCH  36  38
ENDBRANCH   1  34
TORSDOF 24
ENDMDL
MODEL 9
REMARK VINA RESULT:      -6.2      2.808      7.642
REMARK  24 active torsions:
REMARK  status: ('A' for Active; 'I' for Inactive)
REMARK    1  A    between atoms: CB_2  and  CA_4 
REMARK    2  A    between atoms: CA_4  and  C_5 
REMARK    3  A    between atoms: CA_4  and  N_14 
REMARK       I    between atoms: C_5  and  N_7 
REMARK    4  A    between atoms: N_7  and  CA_8 
REMARK    5  A    between atoms: CA_8  and  CB_9 
REMARK    6  A    between atoms: CA_8  and  C_12 
REMARK       I    between atoms: C_12  and  N_25 
REMARK       I    between atoms: N_14  and  C_15 
REMARK    7  A    between atoms: C_15  and  CA_17 
REMARK    8  A    between atoms: CA_17  and  CB_18 
REMARK    9  A    between atoms: CA_17  and  N_20 
REMARK   10  A    between atoms: CB_18  and  OG_19 
REMARK       I    between atoms: N_20  and  C_61 
REMARK   11  A    between atoms: N_25  and  CA_26 
REMARK   12  A    between atoms: CA_26  and  CB_27 
REMARK   13  A    between atoms: CA_26  and  C_30 
REMARK       I    between atoms: C_30  and  N_33 
REMARK   14  A    between atoms: N_33  and  CA_34 
REMARK   15  A    between atoms: CA_34  and  CB_35 
REMARK   16  A    between atoms: CA_34  and  C_43 
REMARK   17  A    between atoms: CB_35  and  CG_36 
REMARK   18  A    between atoms: CG_36  and  CD_37 
REMARK   19  A    between atoms: CD_37  and  NE_38 
REMARK       I    between atoms: CZ_40  and  NH1_41 
REMARK       I    between atoms: CZ_40  and  NH2_42 
REMARK       I    between atoms: C_43  and  N_50 
REMARK   20  A    between atoms: N_50  and  CA_51 
REMARK   21  A    between atoms: CA_51  and  CB_52 
REMARK   22  A    between atoms: CA_51  and  C_55 
REMARK   23  A    between atoms: CB_52  and  OG1_54 
REMARK   24  A    between atoms: C_55  and  OXT_57 
ROOT
ATOM      1  CA  VAL A   2     -21.174  -8.669  -4.384  1.00  0.00     0.180 C 
ENDROOT
BRANCH   1   2
ATOM      2  N   VAL A   2     -21.585  -9.071  -3.014  1.00  0.00    -0.346 N 
ATOM      3  C   SER A   1     -22.377 -10.163  -2.724  1.00  0.00     0.241 C 
ATOM      4  O   SER A   1     -22.814 -10.905  -3.603  1.00  0.00    -0.271 OA
ATOM      5  H   VAL A   2     -21.233  -8.488  -2.257  1.00  0.00     0.163 HD
BRANCH   3   6
ATOM      6  CA  SER A   1     -22.649 -10.465  -1.220  1.00  0.00     0.180 C 
BRANCH   6   7
ATOM      7  N   SER A   1     -22.083 -11.793  -0.920  1.00  0.00    -0.346 N 
ATOM      8  C   SER A   1     -22.813 -12.969  -1.021  1.00  0.00     0.241 C 
ATOM      9  O   SER A   1     -24.014 -12.960  -1.294  1.00  0.00    -0.271 OA
ATOM     10  H   SER A   1     -21.093 -11.845  -0.706  1.00  0.00     0.163 HD
BRANCH   8  11
ATOM     11  CA  SER A   1     -22.085 -14.279  -0.592  1.00  0.00     0.180 C 
BRANCH  11  12
ATOM     12  CB  SER A   1     -21.220 -14.082   0.685  1.00  0.00     0.009 C 
ATOM     13  CG1 SER A   1     -22.055 -13.654   1.903  1.00  0.00     0.012 C 
ATOM     14  CG2 SER A   1     -20.463 -15.363   1.074  1.00  0.00     0.012 C 
ENDBRANCH  11  12
BRANCH  11  15
ATOM     15  N   SER A   1     -21.269 -14.786  -1.708  1.00  0.00    -0.346 N 
ATOM     16  C   SER A   1     -20.132 -14.120  -2.124  1.00  0.00     0.243 C 
ATOM     17  O   SER A   1     -19.705 -13.116  -1.558  1.00  0.00    -0.271 OA
ATOM     18  H   SER A   1     -21.445 -15.717  -2.081  1.00  0.00     0.163 HD
BRANCH  16  19
ATOM     19  CA  SER A   1     -19.376 -14.795  -3.279  1.00  0.00     0.200 C 
BRANCH  19  20
ATOM     20  CB  SER A   1     -19.871 -16.234  -3.465  1.00  0.00     0.199 C 
BRANCH  20  21
ATOM     21  OG  SER A   1     -19.380 -17.086  -2.425  1.00  0.00    -0.398 OA
ATOM     22  H   SER A   1     -19.880 -16.863  -1.620  1.00  0.00     0.209 HD
ENDBRANCH  20  21
ENDBRANCH  19  20
BRANCH  19  23
ATOM     23  N   SER A   1     -19.566 -14.033  -4.514  1.00  0.00    -0.346 N 
HETATM   24  C   UNK A   0     -18.524 -13.843  -5.384  1.00  0.00     0.214 C 
HETATM   25  O   UNK A   0     -17.386 -14.222  -5.135  1.00  0.00    -0.274 OA
HETATM   26  C   UNK A   0     -18.922 -13.212  -6.686  1.00  0.00     0.117 C 
ATOM     27  H   SER A   1     -20.345 -13.374  -4.547  1.00  0.00     0.163 HD
ENDBRANCH  19  23
ENDBRANCH  16  19
ENDBRANCH  11  15
ENDBRANCH   8  11
ENDBRANCH   6   7
BRANCH   6  28
ATOM     28  CB  SER A   1     -21.984  -9.362  -0.350  1.00  0.00     0.009 C 
ATOM     29  CG1 SER A   1     -23.026  -8.459   0.322  1.00  0.00     0.012 C 
ATOM     30  CG2 SER A   1     -21.058  -9.926   0.733  1.00  0.00     0.012 C 
ENDBRANCH   6  28
ENDBRANCH   3   6
ENDBRANCH   1   2
BRANCH   1  31
ATOM     31  CB  VAL A   2     -20.807  -7.167  -4.458  1.00  0.00     0.009 C 
ATOM     32  CG1 VAL A   2     -20.962  -6.564  -5.854  1.00  0.00     0.012 C 
ATOM     33  CG2 VAL A   2     -21.495  -6.288  -3.410  1.00  0.00     0.012 C 
ENDBRANCH   1  31
BRANCH   1  34
ATOM     34  C   VAL A   2     -19.973  -9.544  -4.819  1.00  0.00     0.241 C 
ATOM     35  O   VAL A   2     -20.077 -10.324  -5.776  1.00  0.00    -0.271 OA
ATOM     36  N   ARG A   3     -18.831  -9.448  -4.063  1.00  0.00    -0.346 N 
ATOM     37  H   ARG A   3     -18.776  -8.767  -3.313  1.00  0.00     0.163 HD
BRANCH  36  38
ATOM     38  CA  ARG A   3     -17.657 -10.326  -4.238  1.00  0.00     0.176 C 
BRANCH  38  39
ATOM     39  CB  ARG A   3     -16.760  -9.887  -5.415  1.00  0.00     0.036 C 
BRANCH  39  40
ATOM     40  CG  ARG A   3     -16.045 -11.021  -6.171  1.00  0.00     0.022 C 
BRANCH  40  41
ATOM     41  CD  ARG A   3     -14.719 -11.419  -5.534  1.00  0.00     0.121 C 
BRANCH  41  42
ATOM     42  NE  ARG A   3     -14.833 -12.693  -4.841  1.00  0.00    -0.372 N 
ATOM     43  CZ  ARG A   3     -14.101 -13.658  -5.261  1.00  0.00     0.121 C 
ATOM     44  NH1 ARG A   3     -13.192 -13.725  -6.264  1.00  0.00    -0.279 NA
ATOM     45  NH2 ARG A   3     -14.188 -14.861  -4.653  1.00  0.00    -0.279 NA
ATOM     46 HH11 ARG A   3     -13.275 -13.015  -6.979  1.00  0.00     0.126 HD
ATOM     47 HH12 ARG A   3     -13.195 -14.639  -6.704  1.00  0.00     0.126 HD
ATOM     48 HH21 ARG A   3     -14.748 -14.777  -3.810  1.00  0.00     0.126 HD
ATOM     49 HH22 ARG A   3     -13.283 -15.264  -4.449  1.00  0.00     0.126 HD
ATOM     50  HE  ARG A   3     -15.470 -12.813  -4.053  1.00  0.00     0.161 HD
ENDBRANCH  41  42
ENDBRANCH  40  41
ENDBRANCH  39  40
ENDBRANCH  38  39
BRANCH  38  51
ATOM     51  C   ARG A   3     -16.879 -10.388  -2.894  1.00  0.00     0.241 C 
ATOM     52  O   ARG A   3     -16.101  -9.488  -2.565  1.00  0.00    -0.271 OA
ATOM     53  N   THR A   4     -17.020 -11.523  -2.133  1.00  0.00    -0.343 N 
ATOM     54  H   THR A   4     -17.708 -12.224  -2.406  1.00  0.00     0.163 HD
BRANCH  53  55
ATOM     55  CA  THR A   4     -16.130 -11.916  -1.002  1.00  0.00     0.210 C 
BRANCH  55  56
ATOM     56  CB  THR A   4     -16.876 -12.059   0.347  1.00  0.00     0.147 C 
ATOM     57  CG2 THR A   4     -17.252 -13.493   0.709  1.00  0.00     0.042 C 
BRANCH  56  58
ATOM     58  OG1 THR A   4     -16.053 -11.657   1.449  1.00  0.00    -0.393 OA
ATOM     59  HG1 THR A   4     -16.019 -12.385   2.104  1.00  0.00     0.210 HD
ENDBRANCH  56  58
ENDBRANCH  55  56
BRANCH  55  60
ATOM     60  C   THR A   4     -15.474 -13.239  -1.424  1.00  0.00     0.166 C 
ATOM     61  O   THR A   4     -14.461 -13.678  -0.892  1.00  0.00    -0.648 OA
BRANCH  60  62
ATOM     62  OXT THR A   4     -16.109 -13.914  -2.407  1.00  0.00    -0.775 OA
ATOM     63  HXT THR A   4     -16.579 -14.728  -2.143  1.00  0.00     0.167 HD
ENDBRANCH  60  62
ENDBRANCH  55  60
ENDBRANCH  53  55
ENDBRANCH  38  51
ENDBRANCH  36  38
ENDBRANCH   1  34
TORSDOF 24
ENDMDL
