MODEL 1
REMARK VINA RESULT:      -6.0      0.000      0.000
REMARK  0 active torsions:
REMARK  status: ('A' for Active; 'I' for Inactive)
ROOT
HETATM    1  C   UNL     1     -22.918  -2.860 -14.201  1.00  0.00     0.018 C 
HETATM    2  C   UNL     1     -22.975  -2.780 -12.685  1.00  0.00     0.060 C 
HETATM    3  C   UNL     1     -22.042  -3.794 -12.005  1.00  0.00     0.024 C 
HETATM    4  C   UNL     1     -22.713  -4.329 -10.727  1.00  0.00     0.060 C 
HETATM    5  C   UNL     1     -24.141  -3.871 -10.837  1.00  0.00     0.199 C 
HETATM    6  O   UNL     1     -25.024  -4.026 -10.016  1.00  0.00    -0.289 OA
HETATM    7  C   UNL     1     -24.326  -3.130 -12.138  1.00  0.00     0.199 C 
HETATM    8  O   UNL     1     -25.412  -2.849 -12.607  1.00  0.00    -0.289 OA
HETATM    9  C   UNL     1     -22.052  -3.844  -9.449  1.00  0.00     0.018 C 
ENDROOT
TORSDOF 0
ENDMDL
MODEL 2
REMARK VINA RESULT:      -5.9      1.283      3.231
REMARK  0 active torsions:
REMARK  status: ('A' for Active; 'I' for Inactive)
ROOT
HETATM    1  C   UNL     1     -20.702  -4.124  -9.386  1.00  0.00     0.018 C 
HETATM    2  C   UNL     1     -21.954  -4.308 -10.227  1.00  0.00     0.060 C 
HETATM    3  C   UNL     1     -22.004  -3.352 -11.428  1.00  0.00     0.024 C 
HETATM    4  C   UNL     1     -23.457  -2.900 -11.663  1.00  0.00     0.060 C 
HETATM    5  C   UNL     1     -24.186  -3.337 -10.422  1.00  0.00     0.199 C 
HETATM    6  O   UNL     1     -25.376  -3.231 -10.199  1.00  0.00    -0.289 OA
HETATM    7  C   UNL     1     -23.209  -3.985  -9.473  1.00  0.00     0.199 C 
HETATM    8  O   UNL     1     -23.457  -4.223  -8.308  1.00  0.00    -0.289 OA
HETATM    9  C   UNL     1     -24.073  -3.478 -12.924  1.00  0.00     0.018 C 
ENDROOT
TORSDOF 0
ENDMDL
MODEL 3
REMARK VINA RESULT:      -5.7      1.414      2.519
REMARK  0 active torsions:
REMARK  status: ('A' for Active; 'I' for Inactive)
ROOT
HETATM    1  C   UNL     1     -20.599  -4.059 -11.312  1.00  0.00     0.018 C 
HETATM    2  C   UNL     1     -21.911  -3.351 -11.021  1.00  0.00     0.060 C 
HETATM    3  C   UNL     1     -22.811  -4.144 -10.061  1.00  0.00     0.024 C 
HETATM    4  C   UNL     1     -24.283  -3.971 -10.477  1.00  0.00     0.060 C 
HETATM    5  C   UNL     1     -24.211  -3.347 -11.844  1.00  0.00     0.199 C 
HETATM    6  O   UNL     1     -25.145  -2.985 -12.531  1.00  0.00    -0.289 OA
HETATM    7  C   UNL     1     -22.764  -3.190 -12.243  1.00  0.00     0.199 C 
HETATM    8  O   UNL     1     -22.400  -2.935 -13.374  1.00  0.00    -0.289 OA
HETATM    9  C   UNL     1     -25.090  -3.130  -9.505  1.00  0.00     0.018 C 
ENDROOT
TORSDOF 0
ENDMDL
MODEL 4
REMARK VINA RESULT:      -5.2      2.186      4.421
REMARK  0 active torsions:
REMARK  status: ('A' for Active; 'I' for Inactive)
ROOT
HETATM    1  C   UNL     1     -19.858  -4.732  -7.162  1.00  0.00     0.018 C 
HETATM    2  C   UNL     1     -20.807  -4.938  -8.329  1.00  0.00     0.060 C 
HETATM    3  C   UNL     1     -20.371  -4.171  -9.587  1.00  0.00     0.024 C 
HETATM    4  C   UNL     1     -21.616  -3.644 -10.323  1.00  0.00     0.060 C 
HETATM    5  C   UNL     1     -22.736  -3.832  -9.337  1.00  0.00     0.199 C 
HETATM    6  O   UNL     1     -23.915  -3.598  -9.519  1.00  0.00    -0.289 OA
HETATM    7  C   UNL     1     -22.182  -4.407  -8.058  1.00  0.00     0.199 C 
HETATM    8  O   UNL     1     -22.800  -4.448  -7.013  1.00  0.00    -0.289 OA
HETATM    9  C   UNL     1     -21.885  -4.353 -11.638  1.00  0.00     0.018 C 
ENDROOT
TORSDOF 0
ENDMDL
MODEL 5
REMARK VINA RESULT:      -5.2      2.203      3.311
REMARK  0 active torsions:
REMARK  status: ('A' for Active; 'I' for Inactive)
ROOT
HETATM    1  C   UNL     1     -21.537  -3.896 -11.664  1.00  0.00     0.018 C 
HETATM    2  C   UNL     1     -21.322  -3.665 -10.178  1.00  0.00     0.060 C 
HETATM    3  C   UNL     1     -20.345  -4.676  -9.559  1.00  0.00     0.024 C 
HETATM    4  C   UNL     1     -20.810  -5.032  -8.135  1.00  0.00     0.060 C 
HETATM    5  C   UNL     1     -22.207  -4.480  -8.053  1.00  0.00     0.199 C 
HETATM    6  O   UNL     1     -22.939  -4.487  -7.082  1.00  0.00    -0.289 OA
HETATM    7  C   UNL     1     -22.574  -3.856  -9.376  1.00  0.00     0.199 C 
HETATM    8  O   UNL     1     -23.707  -3.541  -9.683  1.00  0.00    -0.289 OA
HETATM    9  C   UNL     1     -19.909  -4.477  -7.048  1.00  0.00     0.018 C 
ENDROOT
TORSDOF 0
ENDMDL
MODEL 6
REMARK VINA RESULT:      -5.1      2.259      3.925
REMARK  0 active torsions:
REMARK  status: ('A' for Active; 'I' for Inactive)
ROOT
HETATM    1  C   UNL     1     -20.050  -4.851  -8.437  1.00  0.00     0.018 C 
HETATM    2  C   UNL     1     -21.173  -4.046  -9.067  1.00  0.00     0.060 C 
HETATM    3  C   UNL     1     -22.564  -4.565  -8.673  1.00  0.00     0.024 C 
HETATM    4  C   UNL     1     -23.518  -4.435  -9.875  1.00  0.00     0.060 C 
HETATM    5  C   UNL     1     -22.611  -4.142 -11.038  1.00  0.00     0.199 C 
HETATM    6  O   UNL     1     -22.945  -3.911 -12.184  1.00  0.00    -0.289 OA
HETATM    7  C   UNL     1     -21.179  -4.135 -10.563  1.00  0.00     0.199 C 
HETATM    8  O   UNL     1     -20.220  -4.158 -11.309  1.00  0.00    -0.289 OA
HETATM    9  C   UNL     1     -24.579  -3.366  -9.691  1.00  0.00     0.018 C 
ENDROOT
TORSDOF 0
ENDMDL
MODEL 7
REMARK VINA RESULT:      -4.8      9.711     11.628
REMARK  0 active torsions:
REMARK  status: ('A' for Active; 'I' for Inactive)
ROOT
HETATM    1  C   UNL     1     -21.134  -6.106  -3.364  1.00  0.00     0.018 C 
HETATM    2  C   UNL     1     -21.740  -7.189  -2.489  1.00  0.00     0.060 C 
HETATM    3  C   UNL     1     -22.306  -6.637  -1.172  1.00  0.00     0.024 C 
HETATM    4  C   UNL     1     -22.052  -7.650  -0.041  1.00  0.00     0.060 C 
HETATM    5  C   UNL     1     -21.074  -8.628  -0.632  1.00  0.00     0.199 C 
HETATM    6  O   UNL     1     -20.636  -9.631  -0.103  1.00  0.00    -0.289 OA
HETATM    7  C   UNL     1     -20.730  -8.200  -2.036  1.00  0.00     0.199 C 
HETATM    8  O   UNL     1     -19.800  -8.656  -2.672  1.00  0.00    -0.289 OA
HETATM    9  C   UNL     1     -23.314  -8.330   0.456  1.00  0.00     0.018 C 
ENDROOT
TORSDOF 0
ENDMDL
MODEL 8
REMARK VINA RESULT:      -4.8     20.751     22.232
REMARK  0 active torsions:
REMARK  status: ('A' for Active; 'I' for Inactive)
ROOT
HETATM    1  C   UNL     1     -16.210   8.974   2.318  1.00  0.00     0.018 C 
HETATM    2  C   UNL     1     -15.521   9.391   3.606  1.00  0.00     0.060 C 
HETATM    3  C   UNL     1     -14.190   8.655   3.829  1.00  0.00     0.024 C 
HETATM    4  C   UNL     1     -14.012   8.361   5.329  1.00  0.00     0.060 C 
HETATM    5  C   UNL     1     -15.365   8.639   5.925  1.00  0.00     0.199 C 
HETATM    6  O   UNL     1     -15.670   8.588   7.100  1.00  0.00    -0.289 OA
HETATM    7  C   UNL     1     -16.318   9.043   4.827  1.00  0.00     0.199 C 
HETATM    8  O   UNL     1     -17.524   9.102   4.968  1.00  0.00    -0.289 OA
HETATM    9  C   UNL     1     -12.918   9.187   5.981  1.00  0.00     0.018 C 
ENDROOT
TORSDOF 0
ENDMDL
MODEL 9
REMARK VINA RESULT:      -4.7     23.000     24.297
REMARK  0 active torsions:
REMARK  status: ('A' for Active; 'I' for Inactive)
ROOT
HETATM    1  C   UNL     1      -9.027 -13.657   5.965  1.00  0.00     0.018 C 
HETATM    2  C   UNL     1      -8.514 -14.215   4.650  1.00  0.00     0.060 C 
HETATM    3  C   UNL     1      -9.169 -13.550   3.430  1.00  0.00     0.024 C 
HETATM    4  C   UNL     1      -9.380 -14.602   2.325  1.00  0.00     0.060 C 
HETATM    5  C   UNL     1      -9.142 -15.917   3.014  1.00  0.00     0.199 C 
HETATM    6  O   UNL     1      -9.151 -17.020   2.504  1.00  0.00    -0.289 OA
HETATM    7  C   UNL     1      -8.841 -15.667   4.471  1.00  0.00     0.199 C 
HETATM    8  O   UNL     1      -8.837 -16.538   5.318  1.00  0.00    -0.289 OA
HETATM    9  C   UNL     1      -8.470 -14.409   1.126  1.00  0.00     0.018 C 
ENDROOT
TORSDOF 0
ENDMDL
