MODEL 1
REMARK VINA RESULT:      -7.0      0.000      0.000
REMARK  16 active torsions:
REMARK  status: ('A' for Active; 'I' for Inactive)
REMARK    1  A    between atoms: C_2  and  C_3 
REMARK    2  A    between atoms: C_3  and  C_4 
REMARK    3  A    between atoms: C_4  and  C_5 
REMARK    4  A    between atoms: C_5  and  C_6 
REMARK    5  A    between atoms: C_6  and  C_7 
REMARK    6  A    between atoms: C_7  and  C_8 
REMARK    7  A    between atoms: C_8  and  C_9 
REMARK    8  A    between atoms: C_9  and  C_10 
REMARK    9  A    between atoms: C_10  and  C_11 
REMARK   10  A    between atoms: C_11  and  C_12 
REMARK   11  A    between atoms: C_12  and  O_14 
REMARK   12  A    between atoms: O_14  and  C_15 
REMARK   13  A    between atoms: C_15  and  C_16 
REMARK   14  A    between atoms: C_16  and  C_17 
REMARK   15  A    between atoms: C_16  and  O_19 
REMARK   16  A    between atoms: C_17  and  O_18 
ROOT
HETATM    1  C   UNL     1     -23.177  -3.931 -10.564  1.00  0.00     0.111 C 
ENDROOT
BRANCH   1   2
HETATM    2  C   UNL     1     -22.943  -3.876  -9.055  1.00  0.00     0.010 C 
BRANCH   2   3
HETATM    3  C   UNL     1     -21.777  -4.752  -8.624  1.00  0.00     0.000 C 
BRANCH   3   4
HETATM    4  C   UNL     1     -20.913  -4.008  -7.614  1.00  0.00     0.000 C 
BRANCH   4   5
HETATM    5  C   UNL     1     -20.541  -4.927  -6.462  1.00  0.00     0.000 C 
BRANCH   5   6
HETATM    6  C   UNL     1     -21.241  -6.267  -6.612  1.00  0.00     0.000 C 
BRANCH   6   7
HETATM    7  C   UNL     1     -21.867  -6.678  -5.290  1.00  0.00     0.000 C 
BRANCH   7   8
HETATM    8  C   UNL     1     -21.145  -5.997  -4.140  1.00  0.00     0.000 C 
BRANCH   8   9
HETATM    9  C   UNL     1     -21.235  -6.854  -2.888  1.00  0.00    -0.000 C 
BRANCH   9  10
HETATM   10  C   UNL     1     -22.190  -6.226  -1.883  1.00  0.00    -0.005 C 
HETATM   11  C   UNL     1     -22.381  -7.148  -0.696  1.00  0.00     0.005 C 
ENDBRANCH   9  10
ENDBRANCH   8   9
ENDBRANCH   7   8
ENDBRANCH   6   7
ENDBRANCH   5   6
ENDBRANCH   4   5
ENDBRANCH   3   4
ENDBRANCH   2   3
ENDBRANCH   1   2
BRANCH   1  12
HETATM   12  C   UNL     1     -24.489  -3.251 -10.899  1.00  0.00     0.258 C 
HETATM   13  O   UNL     1     -25.384  -3.055 -10.104  1.00  0.00    -0.265 OA
BRANCH  12  14
HETATM   14  O   UNL     1     -24.570  -3.005 -12.243  1.00  0.00    -0.319 OA
BRANCH  14  15
HETATM   15  C   UNL     1     -23.311  -3.100 -12.932  1.00  0.00     0.212 C 
BRANCH  15  16
HETATM   16  C   UNL     1     -23.375  -2.734 -14.418  1.00  0.00     0.166 C 
BRANCH  16  17
HETATM   17  C   UNL     1     -23.556  -1.226 -14.606  1.00  0.00     0.198 C 
BRANCH  17  18
HETATM   18  O   UNL     1     -24.930  -0.850 -14.584  1.00  0.00    -0.398 OA
HETATM   19  H   UNL     1     -25.449  -1.634 -14.839  1.00  0.00     0.209 HD
ENDBRANCH  17  18
ENDBRANCH  16  17
BRANCH  16  20
HETATM   20  O   UNL     1     -22.188  -3.171 -15.100  1.00  0.00    -0.391 OA
HETATM   21  H   UNL     1     -22.193  -4.142 -15.144  1.00  0.00     0.210 HD
ENDBRANCH  16  20
ENDBRANCH  15  16
ENDBRANCH  14  15
ENDBRANCH  12  14
ENDBRANCH   1  12
TORSDOF 16
ENDMDL
MODEL 2
REMARK VINA RESULT:      -6.6     11.975     13.794
REMARK  16 active torsions:
REMARK  status: ('A' for Active; 'I' for Inactive)
REMARK    1  A    between atoms: C_2  and  C_3 
REMARK    2  A    between atoms: C_3  and  C_4 
REMARK    3  A    between atoms: C_4  and  C_5 
REMARK    4  A    between atoms: C_5  and  C_6 
REMARK    5  A    between atoms: C_6  and  C_7 
REMARK    6  A    between atoms: C_7  and  C_8 
REMARK    7  A    between atoms: C_8  and  C_9 
REMARK    8  A    between atoms: C_9  and  C_10 
REMARK    9  A    between atoms: C_10  and  C_11 
REMARK   10  A    between atoms: C_11  and  C_12 
REMARK   11  A    between atoms: C_12  and  O_14 
REMARK   12  A    between atoms: O_14  and  C_15 
REMARK   13  A    between atoms: C_15  and  C_16 
REMARK   14  A    between atoms: C_16  and  C_17 
REMARK   15  A    between atoms: C_16  and  O_19 
REMARK   16  A    between atoms: C_17  and  O_18 
ROOT
HETATM    1  C   UNL     1     -36.389   0.086 -11.834  1.00  0.00     0.111 C 
ENDROOT
BRANCH   1   2
HETATM    2  C   UNL     1     -36.980  -0.875 -10.803  1.00  0.00     0.010 C 
BRANCH   2   3
HETATM    3  C   UNL     1     -36.069  -2.063 -10.538  1.00  0.00     0.000 C 
BRANCH   3   4
HETATM    4  C   UNL     1     -34.709  -1.831 -11.182  1.00  0.00     0.000 C 
BRANCH   4   5
HETATM    5  C   UNL     1     -33.673  -2.765 -10.579  1.00  0.00     0.000 C 
BRANCH   5   6
HETATM    6  C   UNL     1     -32.870  -3.439 -11.679  1.00  0.00     0.000 C 
BRANCH   6   7
HETATM    7  C   UNL     1     -32.944  -4.948 -11.527  1.00  0.00     0.000 C 
BRANCH   7   8
HETATM    8  C   UNL     1     -33.998  -5.316 -10.496  1.00  0.00     0.000 C 
BRANCH   8   9
HETATM    9  C   UNL     1     -34.717  -6.587 -10.916  1.00  0.00    -0.000 C 
BRANCH   9  10
HETATM   10  C   UNL     1     -34.882  -7.520  -9.725  1.00  0.00    -0.005 C 
HETATM   11  C   UNL     1     -33.914  -8.681  -9.831  1.00  0.00     0.005 C 
ENDBRANCH   9  10
ENDBRANCH   8   9
ENDBRANCH   7   8
ENDBRANCH   6   7
ENDBRANCH   5   6
ENDBRANCH   4   5
ENDBRANCH   3   4
ENDBRANCH   2   3
ENDBRANCH   1   2
BRANCH   1  12
HETATM   12  C   UNL     1     -36.955  -0.228 -13.204  1.00  0.00     0.258 C 
HETATM   13  O   UNL     1     -38.067  -0.670 -13.403  1.00  0.00    -0.265 OA
BRANCH  12  14
HETATM   14  O   UNL     1     -35.996  -0.062 -14.166  1.00  0.00    -0.319 OA
BRANCH  14  15
HETATM   15  C   UNL     1     -36.496   0.479 -15.402  1.00  0.00     0.212 C 
BRANCH  15  16
HETATM   16  C   UNL     1     -36.656  -0.554 -16.523  1.00  0.00     0.166 C 
BRANCH  16  17
HETATM   17  C   UNL     1     -35.379  -1.379 -16.698  1.00  0.00     0.198 C 
BRANCH  17  18
HETATM   18  O   UNL     1     -35.173  -2.274 -15.608  1.00  0.00    -0.398 OA
HETATM   19  H   UNL     1     -35.083  -1.733 -14.802  1.00  0.00     0.209 HD
ENDBRANCH  17  18
ENDBRANCH  16  17
BRANCH  16  20
HETATM   20  O   UNL     1     -37.767  -1.425 -16.255  1.00  0.00    -0.391 OA
HETATM   21  H   UNL     1     -37.464  -2.345 -16.316  1.00  0.00     0.210 HD
ENDBRANCH  16  20
ENDBRANCH  15  16
ENDBRANCH  14  15
ENDBRANCH  12  14
ENDBRANCH   1  12
TORSDOF 16
ENDMDL
MODEL 3
REMARK VINA RESULT:      -6.3      1.588      3.139
REMARK  16 active torsions:
REMARK  status: ('A' for Active; 'I' for Inactive)
REMARK    1  A    between atoms: C_2  and  C_3 
REMARK    2  A    between atoms: C_3  and  C_4 
REMARK    3  A    between atoms: C_4  and  C_5 
REMARK    4  A    between atoms: C_5  and  C_6 
REMARK    5  A    between atoms: C_6  and  C_7 
REMARK    6  A    between atoms: C_7  and  C_8 
REMARK    7  A    between atoms: C_8  and  C_9 
REMARK    8  A    between atoms: C_9  and  C_10 
REMARK    9  A    between atoms: C_10  and  C_11 
REMARK   10  A    between atoms: C_11  and  C_12 
REMARK   11  A    between atoms: C_12  and  O_14 
REMARK   12  A    between atoms: O_14  and  C_15 
REMARK   13  A    between atoms: C_15  and  C_16 
REMARK   14  A    between atoms: C_16  and  C_17 
REMARK   15  A    between atoms: C_16  and  O_19 
REMARK   16  A    between atoms: C_17  and  O_18 
ROOT
HETATM    1  C   UNL     1     -21.089  -5.104  -8.141  1.00  0.00     0.111 C 
ENDROOT
BRANCH   1   2
HETATM    2  C   UNL     1     -20.128  -4.419  -7.171  1.00  0.00     0.010 C 
BRANCH   2   3
HETATM    3  C   UNL     1     -20.096  -5.104  -5.814  1.00  0.00     0.000 C 
BRANCH   3   4
HETATM    4  C   UNL     1     -20.091  -6.616  -5.995  1.00  0.00     0.000 C 
BRANCH   4   5
HETATM    5  C   UNL     1     -20.956  -7.277  -4.934  1.00  0.00     0.000 C 
BRANCH   5   6
HETATM    6  C   UNL     1     -21.875  -6.251  -4.293  1.00  0.00     0.000 C 
BRANCH   6   7
HETATM    7  C   UNL     1     -21.840  -6.394  -2.781  1.00  0.00     0.000 C 
BRANCH   7   8
HETATM    8  C   UNL     1     -20.892  -7.513  -2.387  1.00  0.00     0.000 C 
BRANCH   8   9
HETATM    9  C   UNL     1     -21.214  -7.999  -0.983  1.00  0.00    -0.000 C 
BRANCH   9  10
HETATM   10  C   UNL     1     -22.433  -7.271  -0.437  1.00  0.00    -0.005 C 
HETATM   11  C   UNL     1     -23.163  -8.148   0.560  1.00  0.00     0.005 C 
ENDBRANCH   9  10
ENDBRANCH   8   9
ENDBRANCH   7   8
ENDBRANCH   6   7
ENDBRANCH   5   6
ENDBRANCH   4   5
ENDBRANCH   3   4
ENDBRANCH   2   3
ENDBRANCH   1   2
BRANCH   1  12
HETATM   12  C   UNL     1     -22.357  -4.283  -8.265  1.00  0.00     0.258 C 
HETATM   13  O   UNL     1     -23.282  -4.324  -7.481  1.00  0.00    -0.265 OA
BRANCH  12  14
HETATM   14  O   UNL     1     -22.362  -3.589  -9.445  1.00  0.00    -0.319 OA
BRANCH  14  15
HETATM   15  C   UNL     1     -23.438  -3.948 -10.330  1.00  0.00     0.212 C 
BRANCH  15  16
HETATM   16  C   UNL     1     -23.668  -2.960 -11.478  1.00  0.00     0.166 C 
BRANCH  16  17
HETATM   17  C   UNL     1     -22.684  -3.211 -12.624  1.00  0.00     0.198 C 
BRANCH  17  18
HETATM   18  O   UNL     1     -21.337  -3.267 -12.164  1.00  0.00    -0.398 OA
HETATM   19  H   UNL     1     -20.832  -3.794 -12.810  1.00  0.00     0.209 HD
ENDBRANCH  17  18
ENDBRANCH  16  17
BRANCH  16  20
HETATM   20  O   UNL     1     -25.017  -3.052 -11.964  1.00  0.00    -0.391 OA
HETATM   21  H   UNL     1     -25.349  -3.949 -11.796  1.00  0.00     0.210 HD
ENDBRANCH  16  20
ENDBRANCH  15  16
ENDBRANCH  14  15
ENDBRANCH  12  14
ENDBRANCH   1  12
TORSDOF 16
ENDMDL
MODEL 4
REMARK VINA RESULT:      -6.2      1.515      2.154
REMARK  16 active torsions:
REMARK  status: ('A' for Active; 'I' for Inactive)
REMARK    1  A    between atoms: C_2  and  C_3 
REMARK    2  A    between atoms: C_3  and  C_4 
REMARK    3  A    between atoms: C_4  and  C_5 
REMARK    4  A    between atoms: C_5  and  C_6 
REMARK    5  A    between atoms: C_6  and  C_7 
REMARK    6  A    between atoms: C_7  and  C_8 
REMARK    7  A    between atoms: C_8  and  C_9 
REMARK    8  A    between atoms: C_9  and  C_10 
REMARK    9  A    between atoms: C_10  and  C_11 
REMARK   10  A    between atoms: C_11  and  C_12 
REMARK   11  A    between atoms: C_12  and  O_14 
REMARK   12  A    between atoms: O_14  and  C_15 
REMARK   13  A    between atoms: C_15  and  C_16 
REMARK   14  A    between atoms: C_16  and  C_17 
REMARK   15  A    between atoms: C_16  and  O_19 
REMARK   16  A    between atoms: C_17  and  O_18 
ROOT
HETATM    1  C   UNL     1     -21.743  -4.029  -9.432  1.00  0.00     0.111 C 
ENDROOT
BRANCH   1   2
HETATM    2  C   UNL     1     -20.299  -4.190  -8.962  1.00  0.00     0.010 C 
BRANCH   2   3
HETATM    3  C   UNL     1     -20.177  -5.170  -7.806  1.00  0.00     0.000 C 
BRANCH   3   4
HETATM    4  C   UNL     1     -21.093  -4.746  -6.666  1.00  0.00     0.000 C 
BRANCH   4   5
HETATM    5  C   UNL     1     -20.551  -5.250  -5.338  1.00  0.00     0.000 C 
BRANCH   5   6
HETATM    6  C   UNL     1     -20.661  -6.764  -5.268  1.00  0.00     0.000 C 
BRANCH   6   7
HETATM    7  C   UNL     1     -20.996  -7.195  -3.850  1.00  0.00     0.000 C 
BRANCH   7   8
HETATM    8  C   UNL     1     -22.219  -6.444  -3.354  1.00  0.00     0.000 C 
BRANCH   8   9
HETATM    9  C   UNL     1     -22.126  -6.232  -1.851  1.00  0.00    -0.000 C 
BRANCH   9  10
HETATM   10  C   UNL     1     -21.703  -7.518  -1.159  1.00  0.00    -0.005 C 
HETATM   11  C   UNL     1     -22.634  -7.822  -0.003  1.00  0.00     0.005 C 
ENDBRANCH   9  10
ENDBRANCH   8   9
ENDBRANCH   7   8
ENDBRANCH   6   7
ENDBRANCH   5   6
ENDBRANCH   4   5
ENDBRANCH   3   4
ENDBRANCH   2   3
ENDBRANCH   1   2
BRANCH   1  12
HETATM   12  C   UNL     1     -21.762  -3.407 -10.813  1.00  0.00     0.258 C 
HETATM   13  O   UNL     1     -20.773  -3.059 -11.424  1.00  0.00    -0.265 OA
BRANCH  12  14
HETATM   14  O   UNL     1     -23.050  -3.179 -11.217  1.00  0.00    -0.319 OA
BRANCH  14  15
HETATM   15  C   UNL     1     -23.540  -4.134 -12.175  1.00  0.00     0.212 C 
BRANCH  15  16
HETATM   16  C   UNL     1     -24.051  -3.513 -13.479  1.00  0.00     0.166 C 
BRANCH  16  17
HETATM   17  C   UNL     1     -23.035  -2.523 -14.053  1.00  0.00     0.198 C 
BRANCH  17  18
HETATM   18  O   UNL     1     -22.392  -3.036 -15.216  1.00  0.00    -0.398 OA
HETATM   19  H   UNL     1     -22.693  -3.957 -15.331  1.00  0.00     0.209 HD
ENDBRANCH  17  18
ENDBRANCH  16  17
BRANCH  16  20
HETATM   20  O   UNL     1     -24.337  -4.534 -14.449  1.00  0.00    -0.391 OA
HETATM   21  H   UNL     1     -25.276  -4.479 -14.693  1.00  0.00     0.210 HD
ENDBRANCH  16  20
ENDBRANCH  15  16
ENDBRANCH  14  15
ENDBRANCH  12  14
ENDBRANCH   1  12
TORSDOF 16
ENDMDL
MODEL 5
REMARK VINA RESULT:      -6.2      1.890      3.067
REMARK  16 active torsions:
REMARK  status: ('A' for Active; 'I' for Inactive)
REMARK    1  A    between atoms: C_2  and  C_3 
REMARK    2  A    between atoms: C_3  and  C_4 
REMARK    3  A    between atoms: C_4  and  C_5 
REMARK    4  A    between atoms: C_5  and  C_6 
REMARK    5  A    between atoms: C_6  and  C_7 
REMARK    6  A    between atoms: C_7  and  C_8 
REMARK    7  A    between atoms: C_8  and  C_9 
REMARK    8  A    between atoms: C_9  and  C_10 
REMARK    9  A    between atoms: C_10  and  C_11 
REMARK   10  A    between atoms: C_11  and  C_12 
REMARK   11  A    between atoms: C_12  and  O_14 
REMARK   12  A    between atoms: O_14  and  C_15 
REMARK   13  A    between atoms: C_15  and  C_16 
REMARK   14  A    between atoms: C_16  and  C_17 
REMARK   15  A    between atoms: C_16  and  O_19 
REMARK   16  A    between atoms: C_17  and  O_18 
ROOT
HETATM    1  C   UNL     1     -20.451  -4.521  -9.253  1.00  0.00     0.111 C 
ENDROOT
BRANCH   1   2
HETATM    2  C   UNL     1     -21.409  -4.576  -8.065  1.00  0.00     0.010 C 
BRANCH   2   3
HETATM    3  C   UNL     1     -20.804  -3.966  -6.811  1.00  0.00     0.000 C 
BRANCH   3   4
HETATM    4  C   UNL     1     -20.092  -5.041  -6.001  1.00  0.00     0.000 C 
BRANCH   4   5
HETATM    5  C   UNL     1     -21.062  -5.704  -5.037  1.00  0.00     0.000 C 
BRANCH   5   6
HETATM    6  C   UNL     1     -21.195  -7.183  -5.361  1.00  0.00     0.000 C 
BRANCH   6   7
HETATM    7  C   UNL     1     -20.312  -7.999  -4.432  1.00  0.00     0.000 C 
BRANCH   7   8
HETATM    8  C   UNL     1     -21.136  -8.545  -3.279  1.00  0.00     0.000 C 
BRANCH   8   9
HETATM    9  C   UNL     1     -20.815  -7.785  -2.003  1.00  0.00    -0.000 C 
BRANCH   9  10
HETATM   10  C   UNL     1     -21.989  -6.904  -1.602  1.00  0.00    -0.005 C 
HETATM   11  C   UNL     1     -22.546  -7.350  -0.265  1.00  0.00     0.005 C 
ENDBRANCH   9  10
ENDBRANCH   8   9
ENDBRANCH   7   8
ENDBRANCH   6   7
ENDBRANCH   5   6
ENDBRANCH   4   5
ENDBRANCH   3   4
ENDBRANCH   2   3
ENDBRANCH   1   2
BRANCH   1  12
HETATM   12  C   UNL     1     -21.229  -4.227 -10.520  1.00  0.00     0.258 C 
HETATM   13  O   UNL     1     -20.846  -3.496 -11.408  1.00  0.00    -0.265 OA
BRANCH  12  14
HETATM   14  O   UNL     1     -22.471  -4.800 -10.461  1.00  0.00    -0.319 OA
BRANCH  14  15
HETATM   15  C   UNL     1     -23.262  -4.606 -11.646  1.00  0.00     0.212 C 
BRANCH  15  16
HETATM   16  C   UNL     1     -24.290  -3.473 -11.541  1.00  0.00     0.166 C 
BRANCH  16  17
HETATM   17  C   UNL     1     -24.743  -3.276 -10.092  1.00  0.00     0.198 C 
BRANCH  17  18
HETATM   18  O   UNL     1     -25.245  -4.482  -9.524  1.00  0.00    -0.398 OA
HETATM   19  H   UNL     1     -24.524  -5.138  -9.552  1.00  0.00     0.209 HD
ENDBRANCH  17  18
ENDBRANCH  16  17
BRANCH  16  20
HETATM   20  O   UNL     1     -23.746  -2.246 -12.053  1.00  0.00    -0.391 OA
HETATM   21  H   UNL     1     -22.968  -2.452 -12.597  1.00  0.00     0.210 HD
ENDBRANCH  16  20
ENDBRANCH  15  16
ENDBRANCH  14  15
ENDBRANCH  12  14
ENDBRANCH   1  12
TORSDOF 16
ENDMDL
MODEL 6
REMARK VINA RESULT:      -6.1      2.448      4.495
REMARK  16 active torsions:
REMARK  status: ('A' for Active; 'I' for Inactive)
REMARK    1  A    between atoms: C_2  and  C_3 
REMARK    2  A    between atoms: C_3  and  C_4 
REMARK    3  A    between atoms: C_4  and  C_5 
REMARK    4  A    between atoms: C_5  and  C_6 
REMARK    5  A    between atoms: C_6  and  C_7 
REMARK    6  A    between atoms: C_7  and  C_8 
REMARK    7  A    between atoms: C_8  and  C_9 
REMARK    8  A    between atoms: C_9  and  C_10 
REMARK    9  A    between atoms: C_10  and  C_11 
REMARK   10  A    between atoms: C_11  and  C_12 
REMARK   11  A    between atoms: C_12  and  O_14 
REMARK   12  A    between atoms: O_14  and  C_15 
REMARK   13  A    between atoms: C_15  and  C_16 
REMARK   14  A    between atoms: C_16  and  C_17 
REMARK   15  A    between atoms: C_16  and  O_19 
REMARK   16  A    between atoms: C_17  and  O_18 
ROOT
HETATM    1  C   UNL     1     -20.764  -5.077  -7.149  1.00  0.00     0.111 C 
ENDROOT
BRANCH   1   2
HETATM    2  C   UNL     1     -20.456  -5.227  -5.660  1.00  0.00     0.010 C 
BRANCH   2   3
HETATM    3  C   UNL     1     -20.571  -6.669  -5.193  1.00  0.00     0.000 C 
BRANCH   3   4
HETATM    4  C   UNL     1     -21.775  -6.824  -4.274  1.00  0.00     0.000 C 
BRANCH   4   5
HETATM    5  C   UNL     1     -21.319  -7.051  -2.841  1.00  0.00     0.000 C 
BRANCH   5   6
HETATM    6  C   UNL     1     -22.338  -6.478  -1.870  1.00  0.00     0.000 C 
BRANCH   6   7
HETATM    7  C   UNL     1     -22.137  -7.082  -0.491  1.00  0.00     0.000 C 
BRANCH   7   8
HETATM    8  C   UNL     1     -21.326  -8.361  -0.596  1.00  0.00     0.000 C 
BRANCH   8   9
HETATM    9  C   UNL     1     -21.652  -9.283   0.567  1.00  0.00    -0.000 C 
BRANCH   9  10
HETATM   10  C   UNL     1     -22.195 -10.609   0.057  1.00  0.00    -0.005 C 
HETATM   11  C   UNL     1     -23.666 -10.477  -0.283  1.00  0.00     0.005 C 
ENDBRANCH   9  10
ENDBRANCH   8   9
ENDBRANCH   7   8
ENDBRANCH   6   7
ENDBRANCH   5   6
ENDBRANCH   4   5
ENDBRANCH   3   4
ENDBRANCH   2   3
ENDBRANCH   1   2
BRANCH   1  12
HETATM   12  C   UNL     1     -22.130  -4.445  -7.324  1.00  0.00     0.258 C 
HETATM   13  O   UNL     1     -23.078  -4.644  -6.595  1.00  0.00    -0.265 OA
BRANCH  12  14
HETATM   14  O   UNL     1     -22.175  -3.721  -8.485  1.00  0.00    -0.319 OA
BRANCH  14  15
HETATM   15  C   UNL     1     -22.394  -4.518  -9.663  1.00  0.00     0.212 C 
BRANCH  15  16
HETATM   16  C   UNL     1     -23.827  -4.464 -10.204  1.00  0.00     0.166 C 
BRANCH  16  17
HETATM   17  C   UNL     1     -24.565  -3.228  -9.683  1.00  0.00     0.198 C 
BRANCH  17  18
HETATM   18  O   UNL     1     -25.979  -3.393  -9.738  1.00  0.00    -0.398 OA
HETATM   19  H   UNL     1     -26.157  -4.213 -10.235  1.00  0.00     0.209 HD
ENDBRANCH  17  18
ENDBRANCH  16  17
BRANCH  16  20
HETATM   20  O   UNL     1     -23.827  -4.461 -11.641  1.00  0.00    -0.391 OA
HETATM   21  H   UNL     1     -22.979  -4.105 -11.952  1.00  0.00     0.210 HD
ENDBRANCH  16  20
ENDBRANCH  15  16
ENDBRANCH  14  15
ENDBRANCH  12  14
ENDBRANCH   1  12
TORSDOF 16
ENDMDL
MODEL 7
REMARK VINA RESULT:      -6.0      1.378      2.359
REMARK  16 active torsions:
REMARK  status: ('A' for Active; 'I' for Inactive)
REMARK    1  A    between atoms: C_2  and  C_3 
REMARK    2  A    between atoms: C_3  and  C_4 
REMARK    3  A    between atoms: C_4  and  C_5 
REMARK    4  A    between atoms: C_5  and  C_6 
REMARK    5  A    between atoms: C_6  and  C_7 
REMARK    6  A    between atoms: C_7  and  C_8 
REMARK    7  A    between atoms: C_8  and  C_9 
REMARK    8  A    between atoms: C_9  and  C_10 
REMARK    9  A    between atoms: C_10  and  C_11 
REMARK   10  A    between atoms: C_11  and  C_12 
REMARK   11  A    between atoms: C_12  and  O_14 
REMARK   12  A    between atoms: O_14  and  C_15 
REMARK   13  A    between atoms: C_15  and  C_16 
REMARK   14  A    between atoms: C_16  and  C_17 
REMARK   15  A    between atoms: C_16  and  O_19 
REMARK   16  A    between atoms: C_17  and  O_18 
ROOT
HETATM    1  C   UNL     1     -22.343  -4.419 -10.443  1.00  0.00     0.111 C 
ENDROOT
BRANCH   1   2
HETATM    2  C   UNL     1     -22.788  -3.512  -9.298  1.00  0.00     0.010 C 
BRANCH   2   3
HETATM    3  C   UNL     1     -23.236  -4.303  -8.080  1.00  0.00     0.000 C 
BRANCH   3   4
HETATM    4  C   UNL     1     -22.231  -4.133  -6.949  1.00  0.00     0.000 C 
BRANCH   4   5
HETATM    5  C   UNL     1     -20.893  -3.664  -7.498  1.00  0.00     0.000 C 
BRANCH   5   6
HETATM    6  C   UNL     1     -19.770  -4.533  -6.957  1.00  0.00     0.000 C 
BRANCH   6   7
HETATM    7  C   UNL     1     -20.155  -5.999  -7.055  1.00  0.00     0.000 C 
BRANCH   7   8
HETATM    8  C   UNL     1     -20.179  -6.623  -5.671  1.00  0.00     0.000 C 
BRANCH   8   9
HETATM    9  C   UNL     1     -21.413  -7.497  -5.514  1.00  0.00    -0.000 C 
BRANCH   9  10
HETATM   10  C   UNL     1     -21.792  -7.621  -4.046  1.00  0.00    -0.005 C 
HETATM   11  C   UNL     1     -21.496  -6.326  -3.318  1.00  0.00     0.005 C 
ENDBRANCH   9  10
ENDBRANCH   8   9
ENDBRANCH   7   8
ENDBRANCH   6   7
ENDBRANCH   5   6
ENDBRANCH   4   5
ENDBRANCH   3   4
ENDBRANCH   2   3
ENDBRANCH   1   2
BRANCH   1  12
HETATM   12  C   UNL     1     -22.317  -3.629 -11.736  1.00  0.00     0.258 C 
HETATM   13  O   UNL     1     -21.390  -3.622 -12.519  1.00  0.00    -0.265 OA
BRANCH  12  14
HETATM   14  O   UNL     1     -23.427  -2.834 -11.831  1.00  0.00    -0.319 OA
BRANCH  14  15
HETATM   15  C   UNL     1     -24.039  -2.838 -13.133  1.00  0.00     0.212 C 
BRANCH  15  16
HETATM   16  C   UNL     1     -23.746  -1.590 -13.973  1.00  0.00     0.166 C 
BRANCH  16  17
HETATM   17  C   UNL     1     -22.981  -1.952 -15.248  1.00  0.00     0.198 C 
BRANCH  17  18
HETATM   18  O   UNL     1     -22.252  -3.168 -15.102  1.00  0.00    -0.398 OA
HETATM   19  H   UNL     1     -21.906  -3.406 -15.981  1.00  0.00     0.209 HD
ENDBRANCH  17  18
ENDBRANCH  16  17
BRANCH  16  20
HETATM   20  O   UNL     1     -24.965  -0.909 -14.313  1.00  0.00    -0.391 OA
HETATM   21  H   UNL     1     -25.065  -0.138 -13.731  1.00  0.00     0.210 HD
ENDBRANCH  16  20
ENDBRANCH  15  16
ENDBRANCH  14  15
ENDBRANCH  12  14
ENDBRANCH   1  12
TORSDOF 16
ENDMDL
MODEL 8
REMARK VINA RESULT:      -5.7     11.973     13.705
REMARK  16 active torsions:
REMARK  status: ('A' for Active; 'I' for Inactive)
REMARK    1  A    between atoms: C_2  and  C_3 
REMARK    2  A    between atoms: C_3  and  C_4 
REMARK    3  A    between atoms: C_4  and  C_5 
REMARK    4  A    between atoms: C_5  and  C_6 
REMARK    5  A    between atoms: C_6  and  C_7 
REMARK    6  A    between atoms: C_7  and  C_8 
REMARK    7  A    between atoms: C_8  and  C_9 
REMARK    8  A    between atoms: C_9  and  C_10 
REMARK    9  A    between atoms: C_10  and  C_11 
REMARK   10  A    between atoms: C_11  and  C_12 
REMARK   11  A    between atoms: C_12  and  O_14 
REMARK   12  A    between atoms: O_14  and  C_15 
REMARK   13  A    between atoms: C_15  and  C_16 
REMARK   14  A    between atoms: C_16  and  C_17 
REMARK   15  A    between atoms: C_16  and  O_19 
REMARK   16  A    between atoms: C_17  and  O_18 
ROOT
HETATM    1  C   UNL     1     -34.487  -0.315 -12.589  1.00  0.00     0.111 C 
ENDROOT
BRANCH   1   2
HETATM    2  C   UNL     1     -35.561  -0.887 -11.666  1.00  0.00     0.010 C 
BRANCH   2   3
HETATM    3  C   UNL     1     -35.015  -1.977 -10.757  1.00  0.00     0.000 C 
BRANCH   3   4
HETATM    4  C   UNL     1     -33.512  -2.120 -10.960  1.00  0.00     0.000 C 
BRANCH   4   5
HETATM    5  C   UNL     1     -33.168  -3.543 -11.368  1.00  0.00     0.000 C 
BRANCH   5   6
HETATM    6  C   UNL     1     -34.174  -4.055 -12.386  1.00  0.00     0.000 C 
BRANCH   6   7
HETATM    7  C   UNL     1     -34.587  -5.475 -12.040  1.00  0.00     0.000 C 
BRANCH   7   8
HETATM    8  C   UNL     1     -34.002  -5.874 -10.697  1.00  0.00     0.000 C 
BRANCH   8   9
HETATM    9  C   UNL     1     -35.073  -6.513  -9.829  1.00  0.00    -0.000 C 
BRANCH   9  10
HETATM   10  C   UNL     1     -34.844  -8.013  -9.723  1.00  0.00    -0.005 C 
HETATM   11  C   UNL     1     -33.416  -8.353 -10.095  1.00  0.00     0.005 C 
ENDBRANCH   9  10
ENDBRANCH   8   9
ENDBRANCH   7   8
ENDBRANCH   6   7
ENDBRANCH   5   6
ENDBRANCH   4   5
ENDBRANCH   3   4
ENDBRANCH   2   3
ENDBRANCH   1   2
BRANCH   1  12
HETATM   12  C   UNL     1     -35.144   0.326 -13.795  1.00  0.00     0.258 C 
HETATM   13  O   UNL     1     -34.549   0.933 -14.660  1.00  0.00    -0.265 OA
BRANCH  12  14
HETATM   14  O   UNL     1     -36.506   0.230 -13.704  1.00  0.00    -0.319 OA
BRANCH  14  15
HETATM   15  C   UNL     1     -37.075  -0.814 -14.515  1.00  0.00     0.212 C 
BRANCH  15  16
HETATM   16  C   UNL     1     -37.507  -0.362 -15.914  1.00  0.00     0.166 C 
BRANCH  16  17
HETATM   17  C   UNL     1     -38.074   1.060 -15.881  1.00  0.00     0.198 C 
BRANCH  17  18
HETATM   18  O   UNL     1     -37.070   2.037 -16.143  1.00  0.00    -0.398 OA
HETATM   19  H   UNL     1     -37.393   2.596 -16.873  1.00  0.00     0.209 HD
ENDBRANCH  17  18
ENDBRANCH  16  17
BRANCH  16  20
HETATM   20  O   UNL     1     -36.402  -0.425 -16.831  1.00  0.00    -0.391 OA
HETATM   21  H   UNL     1     -35.590  -0.605 -16.330  1.00  0.00     0.210 HD
ENDBRANCH  16  20
ENDBRANCH  15  16
ENDBRANCH  14  15
ENDBRANCH  12  14
ENDBRANCH   1  12
TORSDOF 16
ENDMDL
MODEL 9
REMARK VINA RESULT:      -5.5      1.950      3.934
REMARK  16 active torsions:
REMARK  status: ('A' for Active; 'I' for Inactive)
REMARK    1  A    between atoms: C_2  and  C_3 
REMARK    2  A    between atoms: C_3  and  C_4 
REMARK    3  A    between atoms: C_4  and  C_5 
REMARK    4  A    between atoms: C_5  and  C_6 
REMARK    5  A    between atoms: C_6  and  C_7 
REMARK    6  A    between atoms: C_7  and  C_8 
REMARK    7  A    between atoms: C_8  and  C_9 
REMARK    8  A    between atoms: C_9  and  C_10 
REMARK    9  A    between atoms: C_10  and  C_11 
REMARK   10  A    between atoms: C_11  and  C_12 
REMARK   11  A    between atoms: C_12  and  O_14 
REMARK   12  A    between atoms: O_14  and  C_15 
REMARK   13  A    between atoms: C_15  and  C_16 
REMARK   14  A    between atoms: C_16  and  C_17 
REMARK   15  A    between atoms: C_16  and  O_19 
REMARK   16  A    between atoms: C_17  and  O_18 
ROOT
HETATM    1  C   UNL     1     -20.879  -4.554  -7.195  1.00  0.00     0.111 C 
ENDROOT
BRANCH   1   2
HETATM    2  C   UNL     1     -20.843  -5.904  -6.481  1.00  0.00     0.010 C 
BRANCH   2   3
HETATM    3  C   UNL     1     -20.843  -5.753  -4.968  1.00  0.00     0.000 C 
BRANCH   3   4
HETATM    4  C   UNL     1     -22.037  -6.486  -4.371  1.00  0.00     0.000 C 
BRANCH   4   5
HETATM    5  C   UNL     1     -21.646  -7.150  -3.061  1.00  0.00     0.000 C 
BRANCH   5   6
HETATM    6  C   UNL     1     -20.402  -8.000  -3.254  1.00  0.00     0.000 C 
BRANCH   6   7
HETATM    7  C   UNL     1     -20.700  -9.446  -2.896  1.00  0.00     0.000 C 
BRANCH   7   8
HETATM    8  C   UNL     1     -22.079  -9.553  -2.270  1.00  0.00     0.000 C 
BRANCH   8   9
HETATM    9  C   UNL     1     -21.981 -10.200  -0.898  1.00  0.00    -0.000 C 
BRANCH   9  10
HETATM   10  C   UNL     1     -23.141  -9.759  -0.019  1.00  0.00    -0.005 C 
HETATM   11  C   UNL     1     -23.049  -8.273   0.262  1.00  0.00     0.005 C 
ENDBRANCH   9  10
ENDBRANCH   8   9
ENDBRANCH   7   8
ENDBRANCH   6   7
ENDBRANCH   5   6
ENDBRANCH   4   5
ENDBRANCH   3   4
ENDBRANCH   2   3
ENDBRANCH   1   2
BRANCH   1  12
HETATM   12  C   UNL     1     -22.265  -4.316  -7.761  1.00  0.00     0.258 C 
HETATM   13  O   UNL     1     -23.296  -4.464  -7.140  1.00  0.00    -0.265 OA
BRANCH  12  14
HETATM   14  O   UNL     1     -22.192  -4.034  -9.098  1.00  0.00    -0.319 OA
BRANCH  14  15
HETATM   15  C   UNL     1     -23.341  -4.464  -9.850  1.00  0.00     0.212 C 
BRANCH  15  16
HETATM   16  C   UNL     1     -24.104  -3.328 -10.541  1.00  0.00     0.166 C 
BRANCH  16  17
HETATM   17  C   UNL     1     -24.124  -3.523 -12.059  1.00  0.00     0.198 C 
BRANCH  17  18
HETATM   18  O   UNL     1     -24.462  -2.320 -12.744  1.00  0.00    -0.398 OA
HETATM   19  H   UNL     1     -23.697  -1.720 -12.671  1.00  0.00     0.209 HD
ENDBRANCH  17  18
ENDBRANCH  16  17
BRANCH  16  20
HETATM   20  O   UNL     1     -25.449  -3.244 -10.042  1.00  0.00    -0.391 OA
HETATM   21  H   UNL     1     -25.747  -4.135  -9.795  1.00  0.00     0.210 HD
ENDBRANCH  16  20
ENDBRANCH  15  16
ENDBRANCH  14  15
ENDBRANCH  12  14
ENDBRANCH   1  12
TORSDOF 16
ENDMDL
