MODEL 1
REMARK VINA RESULT:      -1.3      0.000      0.000
REMARK  16 active torsions:
REMARK  status: ('A' for Active; 'I' for Inactive)
REMARK    1  A    between atoms: C_2  and  C_3 
REMARK    2  A    between atoms: C_3  and  C_4 
REMARK    3  A    between atoms: C_4  and  C_5 
REMARK    4  A    between atoms: C_5  and  C_6 
REMARK    5  A    between atoms: C_6  and  C_7 
REMARK    6  A    between atoms: C_7  and  C_8 
REMARK    7  A    between atoms: C_8  and  C_9 
REMARK    8  A    between atoms: C_9  and  C_10 
REMARK    9  A    between atoms: C_10  and  C_11 
REMARK   10  A    between atoms: C_11  and  C_12 
REMARK   11  A    between atoms: C_12  and  O_13 
REMARK   12  A    between atoms: O_13  and  C_14 
REMARK   13  A    between atoms: C_14  and  C_15 
REMARK   14  A    between atoms: C_15  and  O_16 
REMARK   15  A    between atoms: O_16  and  S_17 
REMARK   16  A    between atoms: S_17  and  O_20 
ROOT
HETATM    1  H   UNL     1     -25.358  -0.700 -15.260  1.00  0.00     0.309 HD
HETATM    2  H   UNL     1     -23.950  -0.910 -14.471  1.00  0.00     0.309 HD
HETATM    3  H   UNL     1     -24.684   0.543 -14.451  1.00  0.00     0.309 HD
HETATM    4  N   UNL     2     -24.467  -0.252 -15.051  1.00  0.00     0.072 N 
ENDROOT
TORSDOF 16
ENDMDL
MODEL 2
REMARK VINA RESULT:      -1.2     13.500     13.500
REMARK  16 active torsions:
REMARK  status: ('A' for Active; 'I' for Inactive)
REMARK    1  A    between atoms: C_2  and  C_3 
REMARK    2  A    between atoms: C_3  and  C_4 
REMARK    3  A    between atoms: C_4  and  C_5 
REMARK    4  A    between atoms: C_5  and  C_6 
REMARK    5  A    between atoms: C_6  and  C_7 
REMARK    6  A    between atoms: C_7  and  C_8 
REMARK    7  A    between atoms: C_8  and  C_9 
REMARK    8  A    between atoms: C_9  and  C_10 
REMARK    9  A    between atoms: C_10  and  C_11 
REMARK   10  A    between atoms: C_11  and  C_12 
REMARK   11  A    between atoms: C_12  and  O_13 
REMARK   12  A    between atoms: O_13  and  C_14 
REMARK   13  A    between atoms: C_14  and  C_15 
REMARK   14  A    between atoms: C_15  and  O_16 
REMARK   15  A    between atoms: O_16  and  S_17 
REMARK   16  A    between atoms: S_17  and  O_20 
ROOT
HETATM    1  H   UNL     1     -33.619  -8.177 -10.668  1.00  0.00     0.309 HD
HETATM    2  H   UNL     1     -33.966  -9.035  -9.329  1.00  0.00     0.309 HD
HETATM    3  H   UNL     1     -32.475  -9.107  -9.977  1.00  0.00     0.309 HD
HETATM    4  N   UNL     2     -33.466  -9.077 -10.215  1.00  0.00     0.072 N 
ENDROOT
TORSDOF 16
ENDMDL
MODEL 3
REMARK VINA RESULT:      -1.1      7.756      7.756
REMARK  16 active torsions:
REMARK  status: ('A' for Active; 'I' for Inactive)
REMARK    1  A    between atoms: C_2  and  C_3 
REMARK    2  A    between atoms: C_3  and  C_4 
REMARK    3  A    between atoms: C_4  and  C_5 
REMARK    4  A    between atoms: C_5  and  C_6 
REMARK    5  A    between atoms: C_6  and  C_7 
REMARK    6  A    between atoms: C_7  and  C_8 
REMARK    7  A    between atoms: C_8  and  C_9 
REMARK    8  A    between atoms: C_9  and  C_10 
REMARK    9  A    between atoms: C_10  and  C_11 
REMARK   10  A    between atoms: C_11  and  C_12 
REMARK   11  A    between atoms: C_12  and  O_13 
REMARK   12  A    between atoms: O_13  and  C_14 
REMARK   13  A    between atoms: C_14  and  C_15 
REMARK   14  A    between atoms: C_15  and  O_16 
REMARK   15  A    between atoms: O_16  and  S_17 
REMARK   16  A    between atoms: S_17  and  O_20 
ROOT
HETATM    1  H   UNL     1     -24.969  -8.411 -17.085  1.00  0.00     0.309 HD
HETATM    2  H   UNL     1     -23.347  -8.290 -17.149  1.00  0.00     0.309 HD
HETATM    3  H   UNL     1     -24.187  -7.392 -16.084  1.00  0.00     0.309 HD
HETATM    4  N   UNL     2     -24.199  -7.744 -17.040  1.00  0.00     0.072 N 
ENDROOT
TORSDOF 16
ENDMDL
MODEL 4
REMARK VINA RESULT:      -1.1     12.666     12.666
REMARK  16 active torsions:
REMARK  status: ('A' for Active; 'I' for Inactive)
REMARK    1  A    between atoms: C_2  and  C_3 
REMARK    2  A    between atoms: C_3  and  C_4 
REMARK    3  A    between atoms: C_4  and  C_5 
REMARK    4  A    between atoms: C_5  and  C_6 
REMARK    5  A    between atoms: C_6  and  C_7 
REMARK    6  A    between atoms: C_7  and  C_8 
REMARK    7  A    between atoms: C_8  and  C_9 
REMARK    8  A    between atoms: C_9  and  C_10 
REMARK    9  A    between atoms: C_10  and  C_11 
REMARK   10  A    between atoms: C_11  and  C_12 
REMARK   11  A    between atoms: C_12  and  O_13 
REMARK   12  A    between atoms: O_13  and  C_14 
REMARK   13  A    between atoms: C_14  and  C_15 
REMARK   14  A    between atoms: C_15  and  O_16 
REMARK   15  A    between atoms: O_16  and  S_17 
REMARK   16  A    between atoms: S_17  and  O_20 
ROOT
HETATM    1  H   UNL     1     -35.947   2.492 -16.173  1.00  0.00     0.309 HD
HETATM    2  H   UNL     1     -36.043   3.425 -17.504  1.00  0.00     0.309 HD
HETATM    3  H   UNL     1     -36.681   3.944 -16.100  1.00  0.00     0.309 HD
HETATM    4  N   UNL     2     -36.566   3.118 -16.686  1.00  0.00     0.072 N 
ENDROOT
TORSDOF 16
ENDMDL
MODEL 5
REMARK VINA RESULT:      -1.1      9.475      9.475
REMARK  16 active torsions:
REMARK  status: ('A' for Active; 'I' for Inactive)
REMARK    1  A    between atoms: C_2  and  C_3 
REMARK    2  A    between atoms: C_3  and  C_4 
REMARK    3  A    between atoms: C_4  and  C_5 
REMARK    4  A    between atoms: C_5  and  C_6 
REMARK    5  A    between atoms: C_6  and  C_7 
REMARK    6  A    between atoms: C_7  and  C_8 
REMARK    7  A    between atoms: C_8  and  C_9 
REMARK    8  A    between atoms: C_9  and  C_10 
REMARK    9  A    between atoms: C_10  and  C_11 
REMARK   10  A    between atoms: C_11  and  C_12 
REMARK   11  A    between atoms: C_12  and  O_13 
REMARK   12  A    between atoms: O_13  and  C_14 
REMARK   13  A    between atoms: C_14  and  C_15 
REMARK   14  A    between atoms: C_15  and  O_16 
REMARK   15  A    between atoms: O_16  and  S_17 
REMARK   16  A    between atoms: S_17  and  O_20 
ROOT
HETATM    1  H   UNL     1     -33.462  -3.011 -16.467  1.00  0.00     0.309 HD
HETATM    2  H   UNL     1     -32.283  -3.702 -17.351  1.00  0.00     0.309 HD
HETATM    3  H   UNL     1     -32.917  -2.277 -17.815  1.00  0.00     0.309 HD
HETATM    4  N   UNL     2     -33.158  -3.187 -17.424  1.00  0.00     0.072 N 
ENDROOT
TORSDOF 16
ENDMDL
MODEL 6
REMARK VINA RESULT:      -1.0      6.392      6.392
REMARK  16 active torsions:
REMARK  status: ('A' for Active; 'I' for Inactive)
REMARK    1  A    between atoms: C_2  and  C_3 
REMARK    2  A    between atoms: C_3  and  C_4 
REMARK    3  A    between atoms: C_4  and  C_5 
REMARK    4  A    between atoms: C_5  and  C_6 
REMARK    5  A    between atoms: C_6  and  C_7 
REMARK    6  A    between atoms: C_7  and  C_8 
REMARK    7  A    between atoms: C_8  and  C_9 
REMARK    8  A    between atoms: C_9  and  C_10 
REMARK    9  A    between atoms: C_10  and  C_11 
REMARK   10  A    between atoms: C_11  and  C_12 
REMARK   11  A    between atoms: C_12  and  O_13 
REMARK   12  A    between atoms: O_13  and  C_14 
REMARK   13  A    between atoms: C_14  and  C_15 
REMARK   14  A    between atoms: C_15  and  O_16 
REMARK   15  A    between atoms: O_16  and  S_17 
REMARK   16  A    between atoms: S_17  and  O_20 
ROOT
HETATM    1  H   UNL     1     -24.884  -3.927 -10.417  1.00  0.00     0.309 HD
HETATM    2  H   UNL     1     -24.938  -3.007  -9.076  1.00  0.00     0.309 HD
HETATM    3  H   UNL     1     -25.790  -4.392  -9.147  1.00  0.00     0.309 HD
HETATM    4  N   UNL     2     -25.511  -3.579  -9.694  1.00  0.00     0.072 N 
ENDROOT
TORSDOF 16
ENDMDL
MODEL 7
REMARK VINA RESULT:      -1.0     13.694     13.694
REMARK  16 active torsions:
REMARK  status: ('A' for Active; 'I' for Inactive)
REMARK    1  A    between atoms: C_2  and  C_3 
REMARK    2  A    between atoms: C_3  and  C_4 
REMARK    3  A    between atoms: C_4  and  C_5 
REMARK    4  A    between atoms: C_5  and  C_6 
REMARK    5  A    between atoms: C_6  and  C_7 
REMARK    6  A    between atoms: C_7  and  C_8 
REMARK    7  A    between atoms: C_8  and  C_9 
REMARK    8  A    between atoms: C_9  and  C_10 
REMARK    9  A    between atoms: C_10  and  C_11 
REMARK   10  A    between atoms: C_11  and  C_12 
REMARK   11  A    between atoms: C_12  and  O_13 
REMARK   12  A    between atoms: O_13  and  C_14 
REMARK   13  A    between atoms: C_14  and  C_15 
REMARK   14  A    between atoms: C_15  and  O_16 
REMARK   15  A    between atoms: O_16  and  S_17 
REMARK   16  A    between atoms: S_17  and  O_20 
ROOT
HETATM    1  H   UNL     1     -35.658  -8.831 -14.507  1.00  0.00     0.309 HD
HETATM    2  H   UNL     1     -36.384  -7.773 -13.504  1.00  0.00     0.309 HD
HETATM    3  H   UNL     1     -36.479  -7.563 -15.115  1.00  0.00     0.309 HD
HETATM    4  N   UNL     2     -35.846  -7.839 -14.366  1.00  0.00     0.072 N 
ENDROOT
TORSDOF 16
ENDMDL
MODEL 8
REMARK VINA RESULT:      -1.0     12.033     12.033
REMARK  16 active torsions:
REMARK  status: ('A' for Active; 'I' for Inactive)
REMARK    1  A    between atoms: C_2  and  C_3 
REMARK    2  A    between atoms: C_3  and  C_4 
REMARK    3  A    between atoms: C_4  and  C_5 
REMARK    4  A    between atoms: C_5  and  C_6 
REMARK    5  A    between atoms: C_6  and  C_7 
REMARK    6  A    between atoms: C_7  and  C_8 
REMARK    7  A    between atoms: C_8  and  C_9 
REMARK    8  A    between atoms: C_9  and  C_10 
REMARK    9  A    between atoms: C_10  and  C_11 
REMARK   10  A    between atoms: C_11  and  C_12 
REMARK   11  A    between atoms: C_12  and  O_13 
REMARK   12  A    between atoms: O_13  and  C_14 
REMARK   13  A    between atoms: C_14  and  C_15 
REMARK   14  A    between atoms: C_15  and  O_16 
REMARK   15  A    between atoms: O_16  and  S_17 
REMARK   16  A    between atoms: S_17  and  O_20 
ROOT
HETATM    1  H   UNL     1     -36.484  -1.242 -16.269  1.00  0.00     0.309 HD
HETATM    2  H   UNL     1     -36.814  -1.166 -17.861  1.00  0.00     0.309 HD
HETATM    3  H   UNL     1     -35.323  -0.800 -17.321  1.00  0.00     0.309 HD
HETATM    4  N   UNL     2     -36.314  -0.693 -17.110  1.00  0.00     0.072 N 
ENDROOT
TORSDOF 16
ENDMDL
MODEL 9
REMARK VINA RESULT:      -1.0      4.665      4.665
REMARK  16 active torsions:
REMARK  status: ('A' for Active; 'I' for Inactive)
REMARK    1  A    between atoms: C_2  and  C_3 
REMARK    2  A    between atoms: C_3  and  C_4 
REMARK    3  A    between atoms: C_4  and  C_5 
REMARK    4  A    between atoms: C_5  and  C_6 
REMARK    5  A    between atoms: C_6  and  C_7 
REMARK    6  A    between atoms: C_7  and  C_8 
REMARK    7  A    between atoms: C_8  and  C_9 
REMARK    8  A    between atoms: C_9  and  C_10 
REMARK    9  A    between atoms: C_10  and  C_11 
REMARK   10  A    between atoms: C_11  and  C_12 
REMARK   11  A    between atoms: C_12  and  O_13 
REMARK   12  A    between atoms: O_13  and  C_14 
REMARK   13  A    between atoms: C_14  and  C_15 
REMARK   14  A    between atoms: C_15  and  O_16 
REMARK   15  A    between atoms: O_16  and  S_17 
REMARK   16  A    between atoms: S_17  and  O_20 
ROOT
HETATM    1  H   UNL     1     -21.543  -3.831 -12.075  1.00  0.00     0.309 HD
HETATM    2  H   UNL     1     -21.846  -4.396 -13.572  1.00  0.00     0.309 HD
HETATM    3  H   UNL     1     -21.239  -2.898 -13.375  1.00  0.00     0.309 HD
HETATM    4  N   UNL     2     -21.908  -3.563 -12.988  1.00  0.00     0.072 N 
ENDROOT
TORSDOF 16
ENDMDL
