MODEL 1
REMARK VINA RESULT:      -6.3      0.000      0.000
REMARK  10 active torsions:
REMARK  status: ('A' for Active; 'I' for Inactive)
REMARK    1  A    between atoms: N_2  and  C_5 
REMARK    2  A    between atoms: C_5  and  C_6 
REMARK    3  A    between atoms: C_6  and  O_7 
REMARK    4  A    between atoms: O_7  and  P_8 
REMARK    5  A    between atoms: P_8  and  O_11 
REMARK    6  A    between atoms: O_11  and  C_12 
REMARK    7  A    between atoms: C_12  and  C_13 
REMARK    8  A    between atoms: C_13  and  C_14 
REMARK    9  A    between atoms: C_13  and  O_16 
REMARK   10  A    between atoms: C_14  and  O_15 
ROOT
HETATM    1  P   UNL     1     -23.977  -3.690 -10.756  1.00  0.00     0.408 P 
HETATM    2  O   UNL     1     -25.266  -3.098 -10.168  1.00  0.00    -0.624 OA
HETATM    3  O   UNL     1     -22.635  -2.985 -10.588  1.00  0.00    -0.624 OA
ENDROOT
BRANCH   1   4
HETATM    4  O   UNL     1     -23.714  -4.474  -9.237  1.00  0.00    -0.288 OA
BRANCH   4   5
HETATM    5  C   UNL     1     -22.397  -4.238  -8.776  1.00  0.00     0.209 C 
BRANCH   5   6
HETATM    6  C   UNL     1     -22.313  -4.561  -7.292  1.00  0.00     0.262 C 
BRANCH   6   7
HETATM    7  N   UNL     1     -21.020  -5.290  -6.853  1.00  0.00    -0.077 N 
HETATM    8  C   UNL     1     -20.118  -5.403  -8.063  1.00  0.00     0.271 C 
HETATM    9  C   UNL     1     -21.327  -6.670  -6.301  1.00  0.00     0.271 C 
HETATM   10  C   UNL     1     -20.291  -4.489  -5.762  1.00  0.00     0.271 C 
ENDBRANCH   6   7
ENDBRANCH   5   6
ENDBRANCH   4   5
ENDBRANCH   1   4
BRANCH   1  11
HETATM   11  O   UNL     1     -24.240  -2.905 -12.275  1.00  0.00    -0.287 OA
BRANCH  11  12
HETATM   12  C   UNL     1     -23.065  -2.812 -13.065  1.00  0.00     0.215 C 
BRANCH  12  13
HETATM   13  C   UNL     1     -23.328  -2.579 -14.554  1.00  0.00     0.166 C 
BRANCH  13  14
HETATM   14  C   UNL     1     -23.620  -1.101 -14.882  1.00  0.00     0.198 C 
BRANCH  14  15
HETATM   15  O   UNL     1     -24.963  -0.788 -14.483  1.00  0.00    -0.398 OA
HETATM   16  H   UNL     1     -24.866  -0.348 -13.621  1.00  0.00     0.209 HD
ENDBRANCH  14  15
ENDBRANCH  13  14
BRANCH  13  17
HETATM   17  O   UNL     1     -22.186  -3.047 -15.293  1.00  0.00    -0.391 OA
HETATM   18  H   UNL     1     -21.819  -2.277 -15.761  1.00  0.00     0.210 HD
ENDBRANCH  13  17
ENDBRANCH  12  13
ENDBRANCH  11  12
ENDBRANCH   1  11
TORSDOF 10
ENDMDL
MODEL 2
REMARK VINA RESULT:      -5.4      8.547     10.255
REMARK  10 active torsions:
REMARK  status: ('A' for Active; 'I' for Inactive)
REMARK    1  A    between atoms: N_2  and  C_5 
REMARK    2  A    between atoms: C_5  and  C_6 
REMARK    3  A    between atoms: C_6  and  O_7 
REMARK    4  A    between atoms: O_7  and  P_8 
REMARK    5  A    between atoms: P_8  and  O_11 
REMARK    6  A    between atoms: O_11  and  C_12 
REMARK    7  A    between atoms: C_12  and  C_13 
REMARK    8  A    between atoms: C_13  and  C_14 
REMARK    9  A    between atoms: C_13  and  O_16 
REMARK   10  A    between atoms: C_14  and  O_15 
ROOT
HETATM    1  P   UNL     1     -25.462  -7.032 -16.626  1.00  0.00     0.408 P 
HETATM    2  O   UNL     1     -25.350  -5.600 -16.082  1.00  0.00    -0.624 OA
HETATM    3  O   UNL     1     -24.569  -8.150 -16.100  1.00  0.00    -0.624 OA
ENDROOT
BRANCH   1   4
HETATM    4  O   UNL     1     -26.576  -7.369 -15.347  1.00  0.00    -0.288 OA
BRANCH   4   5
HETATM    5  C   UNL     1     -27.834  -6.780 -15.614  1.00  0.00     0.209 C 
BRANCH   5   6
HETATM    6  C   UNL     1     -28.596  -7.639 -16.612  1.00  0.00     0.262 C 
BRANCH   6   7
HETATM    7  N   UNL     1     -29.473  -6.855 -17.616  1.00  0.00    -0.077 N 
HETATM    8  C   UNL     1     -28.551  -6.054 -18.511  1.00  0.00     0.271 C 
HETATM    9  C   UNL     1     -30.437  -5.928 -16.899  1.00  0.00     0.271 C 
HETATM   10  C   UNL     1     -30.295  -7.820 -18.486  1.00  0.00     0.271 C 
ENDBRANCH   6   7
ENDBRANCH   5   6
ENDBRANCH   4   5
ENDBRANCH   1   4
BRANCH   1  11
HETATM   11  O   UNL     1     -24.347  -6.694 -17.906  1.00  0.00    -0.287 OA
BRANCH  11  12
HETATM   12  C   UNL     1     -24.948  -6.726 -19.191  1.00  0.00     0.215 C 
BRANCH  12  13
HETATM   13  C   UNL     1     -24.422  -7.838 -20.101  1.00  0.00     0.166 C 
BRANCH  13  14
HETATM   14  C   UNL     1     -24.744  -7.590 -21.588  1.00  0.00     0.198 C 
BRANCH  14  15
HETATM   15  O   UNL     1     -24.119  -8.611 -22.380  1.00  0.00    -0.398 OA
HETATM   16  H   UNL     1     -23.668  -8.126 -23.092  1.00  0.00     0.209 HD
ENDBRANCH  14  15
ENDBRANCH  13  14
BRANCH  13  17
HETATM   17  O   UNL     1     -23.002  -7.951 -19.900  1.00  0.00    -0.391 OA
HETATM   18  H   UNL     1     -22.842  -7.823 -18.949  1.00  0.00     0.210 HD
ENDBRANCH  13  17
ENDBRANCH  12  13
ENDBRANCH  11  12
ENDBRANCH   1  11
TORSDOF 10
ENDMDL
MODEL 3
REMARK VINA RESULT:      -5.3      1.818      2.561
REMARK  10 active torsions:
REMARK  status: ('A' for Active; 'I' for Inactive)
REMARK    1  A    between atoms: N_2  and  C_5 
REMARK    2  A    between atoms: C_5  and  C_6 
REMARK    3  A    between atoms: C_6  and  O_7 
REMARK    4  A    between atoms: O_7  and  P_8 
REMARK    5  A    between atoms: P_8  and  O_11 
REMARK    6  A    between atoms: O_11  and  C_12 
REMARK    7  A    between atoms: C_12  and  C_13 
REMARK    8  A    between atoms: C_13  and  C_14 
REMARK    9  A    between atoms: C_13  and  O_16 
REMARK   10  A    between atoms: C_14  and  O_15 
ROOT
HETATM    1  P   UNL     1     -22.417  -3.897  -9.660  1.00  0.00     0.408 P 
HETATM    2  O   UNL     1     -21.538  -4.585 -10.715  1.00  0.00    -0.624 OA
HETATM    3  O   UNL     1     -23.818  -4.406  -9.345  1.00  0.00    -0.624 OA
ENDROOT
BRANCH   1   4
HETATM    4  O   UNL     1     -21.789  -5.010  -8.495  1.00  0.00    -0.288 OA
BRANCH   4   5
HETATM    5  C   UNL     1     -21.857  -4.460  -7.194  1.00  0.00     0.209 C 
BRANCH   5   6
HETATM    6  C   UNL     1     -22.106  -5.570  -6.185  1.00  0.00     0.262 C 
BRANCH   6   7
HETATM    7  N   UNL     1     -20.919  -5.876  -5.240  1.00  0.00    -0.077 N 
HETATM    8  C   UNL     1     -20.008  -4.667  -5.235  1.00  0.00     0.271 C 
HETATM    9  C   UNL     1     -20.154  -7.103  -5.697  1.00  0.00     0.271 C 
HETATM   10  C   UNL     1     -21.418  -6.129  -3.808  1.00  0.00     0.271 C 
ENDBRANCH   6   7
ENDBRANCH   5   6
ENDBRANCH   4   5
ENDBRANCH   1   4
BRANCH   1  11
HETATM   11  O   UNL     1     -23.044  -2.784 -10.827  1.00  0.00    -0.287 OA
BRANCH  11  12
HETATM   12  C   UNL     1     -24.280  -3.201 -11.386  1.00  0.00     0.215 C 
BRANCH  12  13
HETATM   13  C   UNL     1     -24.175  -3.715 -12.824  1.00  0.00     0.166 C 
BRANCH  13  14
HETATM   14  C   UNL     1     -23.160  -2.919 -13.667  1.00  0.00     0.198 C 
BRANCH  14  15
HETATM   15  O   UNL     1     -21.838  -3.412 -13.399  1.00  0.00    -0.398 OA
HETATM   16  H   UNL     1     -21.551  -2.923 -12.609  1.00  0.00     0.209 HD
ENDBRANCH  14  15
ENDBRANCH  13  14
BRANCH  13  17
HETATM   17  O   UNL     1     -23.819  -5.108 -12.780  1.00  0.00    -0.391 OA
HETATM   18  H   UNL     1     -23.453  -5.277 -11.894  1.00  0.00     0.210 HD
ENDBRANCH  13  17
ENDBRANCH  12  13
ENDBRANCH  11  12
ENDBRANCH   1  11
TORSDOF 10
ENDMDL
MODEL 4
REMARK VINA RESULT:      -5.2      1.678      2.407
REMARK  10 active torsions:
REMARK  status: ('A' for Active; 'I' for Inactive)
REMARK    1  A    between atoms: N_2  and  C_5 
REMARK    2  A    between atoms: C_5  and  C_6 
REMARK    3  A    between atoms: C_6  and  O_7 
REMARK    4  A    between atoms: O_7  and  P_8 
REMARK    5  A    between atoms: P_8  and  O_11 
REMARK    6  A    between atoms: O_11  and  C_12 
REMARK    7  A    between atoms: C_12  and  C_13 
REMARK    8  A    between atoms: C_13  and  C_14 
REMARK    9  A    between atoms: C_13  and  O_16 
REMARK   10  A    between atoms: C_14  and  O_15 
ROOT
HETATM    1  P   UNL     1     -23.886  -3.645  -9.902  1.00  0.00     0.408 P 
HETATM    2  O   UNL     1     -23.960  -5.002 -10.618  1.00  0.00    -0.624 OA
HETATM    3  O   UNL     1     -25.149  -2.865  -9.555  1.00  0.00    -0.624 OA
ENDROOT
BRANCH   1   4
HETATM    4  O   UNL     1     -24.041  -4.493  -8.403  1.00  0.00    -0.288 OA
BRANCH   4   5
HETATM    5  C   UNL     1     -22.921  -4.248  -7.575  1.00  0.00     0.209 C 
BRANCH   5   6
HETATM    6  C   UNL     1     -21.796  -3.648  -8.405  1.00  0.00     0.262 C 
BRANCH   6   7
HETATM    7  N   UNL     1     -20.510  -4.505  -8.483  1.00  0.00    -0.077 N 
HETATM    8  C   UNL     1     -20.760  -5.787  -7.719  1.00  0.00     0.271 C 
HETATM    9  C   UNL     1     -19.322  -3.770  -7.893  1.00  0.00     0.271 C 
HETATM   10  C   UNL     1     -20.180  -4.853  -9.944  1.00  0.00     0.271 C 
ENDBRANCH   6   7
ENDBRANCH   5   6
ENDBRANCH   4   5
ENDBRANCH   1   4
BRANCH   1  11
HETATM   11  O   UNL     1     -23.732  -2.797 -11.403  1.00  0.00    -0.287 OA
BRANCH  11  12
HETATM   12  C   UNL     1     -24.603  -3.287 -12.411  1.00  0.00     0.215 C 
BRANCH  12  13
HETATM   13  C   UNL     1     -24.059  -3.143 -13.834  1.00  0.00     0.166 C 
BRANCH  13  14
HETATM   14  C   UNL     1     -22.569  -2.751 -13.863  1.00  0.00     0.198 C 
BRANCH  14  15
HETATM   15  O   UNL     1     -21.818  -3.700 -13.090  1.00  0.00    -0.398 OA
HETATM   16  H   UNL     1     -21.034  -3.890 -13.632  1.00  0.00     0.209 HD
ENDBRANCH  14  15
ENDBRANCH  13  14
BRANCH  13  17
HETATM   17  O   UNL     1     -24.272  -4.386 -14.526  1.00  0.00    -0.391 OA
HETATM   18  H   UNL     1     -24.819  -4.185 -15.305  1.00  0.00     0.210 HD
ENDBRANCH  13  17
ENDBRANCH  12  13
ENDBRANCH  11  12
ENDBRANCH   1  11
TORSDOF 10
ENDMDL
MODEL 5
REMARK VINA RESULT:      -5.1      4.158      8.226
REMARK  10 active torsions:
REMARK  status: ('A' for Active; 'I' for Inactive)
REMARK    1  A    between atoms: N_2  and  C_5 
REMARK    2  A    between atoms: C_5  and  C_6 
REMARK    3  A    between atoms: C_6  and  O_7 
REMARK    4  A    between atoms: O_7  and  P_8 
REMARK    5  A    between atoms: P_8  and  O_11 
REMARK    6  A    between atoms: O_11  and  C_12 
REMARK    7  A    between atoms: C_12  and  C_13 
REMARK    8  A    between atoms: C_13  and  C_14 
REMARK    9  A    between atoms: C_13  and  O_16 
REMARK   10  A    between atoms: C_14  and  O_15 
ROOT
HETATM    1  P   UNL     1     -21.588  -5.158  -6.592  1.00  0.00     0.408 P 
HETATM    2  O   UNL     1     -23.026  -4.750  -6.945  1.00  0.00    -0.624 OA
HETATM    3  O   UNL     1     -21.031  -6.519  -6.996  1.00  0.00    -0.624 OA
ENDROOT
BRANCH   1   4
HETATM    4  O   UNL     1     -21.098  -4.542  -8.132  1.00  0.00    -0.288 OA
BRANCH   4   5
HETATM    5  C   UNL     1     -22.106  -3.716  -8.682  1.00  0.00     0.209 C 
BRANCH   5   6
HETATM    6  C   UNL     1     -21.991  -3.715 -10.199  1.00  0.00     0.262 C 
BRANCH   6   7
HETATM    7  N   UNL     1     -23.339  -3.724 -10.958  1.00  0.00    -0.077 N 
HETATM    8  C   UNL     1     -24.430  -3.367  -9.971  1.00  0.00     0.271 C 
HETATM    9  C   UNL     1     -23.616  -5.084 -11.571  1.00  0.00     0.271 C 
HETATM   10  C   UNL     1     -23.331  -2.682 -12.088  1.00  0.00     0.271 C 
ENDBRANCH   6   7
ENDBRANCH   5   6
ENDBRANCH   4   5
ENDBRANCH   1   4
BRANCH   1  11
HETATM   11  O   UNL     1     -22.080  -5.775  -5.053  1.00  0.00    -0.287 OA
BRANCH  11  12
HETATM   12  C   UNL     1     -20.992  -5.995  -4.168  1.00  0.00     0.215 C 
BRANCH  12  13
HETATM   13  C   UNL     1     -21.117  -7.266  -3.324  1.00  0.00     0.166 C 
BRANCH  13  14
HETATM   14  C   UNL     1     -21.803  -7.013  -1.967  1.00  0.00     0.198 C 
BRANCH  14  15
HETATM   15  O   UNL     1     -22.628  -5.843  -2.068  1.00  0.00    -0.398 OA
HETATM   16  H   UNL     1     -22.542  -5.408  -1.203  1.00  0.00     0.209 HD
ENDBRANCH  14  15
ENDBRANCH  13  14
BRANCH  13  17
HETATM   17  O   UNL     1     -21.846  -8.244  -4.088  1.00  0.00    -0.391 OA
HETATM   18  H   UNL     1     -21.204  -8.674  -4.679  1.00  0.00     0.210 HD
ENDBRANCH  13  17
ENDBRANCH  12  13
ENDBRANCH  11  12
ENDBRANCH   1  11
TORSDOF 10
ENDMDL
MODEL 6
REMARK VINA RESULT:      -5.0      1.898      2.517
REMARK  10 active torsions:
REMARK  status: ('A' for Active; 'I' for Inactive)
REMARK    1  A    between atoms: N_2  and  C_5 
REMARK    2  A    between atoms: C_5  and  C_6 
REMARK    3  A    between atoms: C_6  and  O_7 
REMARK    4  A    between atoms: O_7  and  P_8 
REMARK    5  A    between atoms: P_8  and  O_11 
REMARK    6  A    between atoms: O_11  and  C_12 
REMARK    7  A    between atoms: C_12  and  C_13 
REMARK    8  A    between atoms: C_13  and  C_14 
REMARK    9  A    between atoms: C_13  and  O_16 
REMARK   10  A    between atoms: C_14  and  O_15 
ROOT
HETATM    1  P   UNL     1     -22.044  -4.593  -9.170  1.00  0.00     0.408 P 
HETATM    2  O   UNL     1     -22.989  -4.046  -8.089  1.00  0.00    -0.624 OA
HETATM    3  O   UNL     1     -21.157  -3.662  -9.988  1.00  0.00    -0.624 OA
ENDROOT
BRANCH   1   4
HETATM    4  O   UNL     1     -20.803  -4.660  -7.969  1.00  0.00    -0.288 OA
BRANCH   4   5
HETATM    5  C   UNL     1     -21.316  -4.298  -6.701  1.00  0.00     0.209 C 
BRANCH   5   6
HETATM    6  C   UNL     1     -20.473  -4.940  -5.609  1.00  0.00     0.262 C 
BRANCH   6   7
HETATM    7  N   UNL     1     -21.118  -6.166  -4.920  1.00  0.00    -0.077 N 
HETATM    8  C   UNL     1     -20.273  -7.378  -5.245  1.00  0.00     0.271 C 
HETATM    9  C   UNL     1     -22.542  -6.380  -5.397  1.00  0.00     0.271 C 
HETATM   10  C   UNL     1     -21.148  -5.974  -3.394  1.00  0.00     0.271 C 
ENDBRANCH   6   7
ENDBRANCH   5   6
ENDBRANCH   4   5
ENDBRANCH   1   4
BRANCH   1  11
HETATM   11  O   UNL     1     -23.287  -4.524 -10.372  1.00  0.00    -0.287 OA
BRANCH  11  12
HETATM   12  C   UNL     1     -23.256  -3.329 -11.137  1.00  0.00     0.215 C 
BRANCH  12  13
HETATM   13  C   UNL     1     -23.091  -3.553 -12.642  1.00  0.00     0.166 C 
BRANCH  13  14
HETATM   14  C   UNL     1     -23.641  -2.382 -13.481  1.00  0.00     0.198 C 
BRANCH  14  15
HETATM   15  O   UNL     1     -23.613  -2.745 -14.869  1.00  0.00    -0.398 OA
HETATM   16  H   UNL     1     -23.783  -1.913 -15.343  1.00  0.00     0.209 HD
ENDBRANCH  14  15
ENDBRANCH  13  14
BRANCH  13  17
HETATM   17  O   UNL     1     -21.695  -3.764 -12.917  1.00  0.00    -0.391 OA
HETATM   18  H   UNL     1     -21.633  -4.080 -13.835  1.00  0.00     0.210 HD
ENDBRANCH  13  17
ENDBRANCH  12  13
ENDBRANCH  11  12
ENDBRANCH   1  11
TORSDOF 10
ENDMDL
MODEL 7
REMARK VINA RESULT:      -5.0      3.634      7.400
REMARK  10 active torsions:
REMARK  status: ('A' for Active; 'I' for Inactive)
REMARK    1  A    between atoms: N_2  and  C_5 
REMARK    2  A    between atoms: C_5  and  C_6 
REMARK    3  A    between atoms: C_6  and  O_7 
REMARK    4  A    between atoms: O_7  and  P_8 
REMARK    5  A    between atoms: P_8  and  O_11 
REMARK    6  A    between atoms: O_11  and  C_12 
REMARK    7  A    between atoms: C_12  and  C_13 
REMARK    8  A    between atoms: C_13  and  C_14 
REMARK    9  A    between atoms: C_13  and  O_16 
REMARK   10  A    between atoms: C_14  and  O_15 
ROOT
HETATM    1  P   UNL     1     -21.400  -3.997  -7.323  1.00  0.00     0.408 P 
HETATM    2  O   UNL     1     -22.777  -4.544  -6.919  1.00  0.00    -0.624 OA
HETATM    3  O   UNL     1     -20.485  -4.775  -8.263  1.00  0.00    -0.624 OA
ENDROOT
BRANCH   1   4
HETATM    4  O   UNL     1     -22.153  -3.284  -8.707  1.00  0.00    -0.288 OA
BRANCH   4   5
HETATM    5  C   UNL     1     -23.113  -4.164  -9.259  1.00  0.00     0.209 C 
BRANCH   5   6
HETATM    6  C   UNL     1     -24.014  -3.397 -10.216  1.00  0.00     0.262 C 
BRANCH   6   7
HETATM    7  N   UNL     1     -23.655  -3.546 -11.714  1.00  0.00    -0.077 N 
HETATM    8  C   UNL     1     -22.348  -2.822 -11.952  1.00  0.00     0.271 C 
HETATM    9  C   UNL     1     -24.741  -2.966 -12.600  1.00  0.00     0.271 C 
HETATM   10  C   UNL     1     -23.477  -5.028 -12.083  1.00  0.00     0.271 C 
ENDBRANCH   6   7
ENDBRANCH   5   6
ENDBRANCH   4   5
ENDBRANCH   1   4
BRANCH   1  11
HETATM   11  O   UNL     1     -20.646  -4.711  -5.939  1.00  0.00    -0.287 OA
BRANCH  11  12
HETATM   12  C   UNL     1     -20.060  -5.974  -6.213  1.00  0.00     0.215 C 
BRANCH  12  13
HETATM   13  C   UNL     1     -20.522  -7.095  -5.280  1.00  0.00     0.166 C 
BRANCH  13  14
HETATM   14  C   UNL     1     -21.357  -6.574  -4.093  1.00  0.00     0.198 C 
BRANCH  14  15
HETATM   15  O   UNL     1     -22.658  -6.193  -4.566  1.00  0.00    -0.398 OA
HETATM   16  H   UNL     1     -22.498  -5.821  -5.449  1.00  0.00     0.209 HD
ENDBRANCH  14  15
ENDBRANCH  13  14
BRANCH  13  17
HETATM   17  O   UNL     1     -21.276  -8.045  -6.054  1.00  0.00    -0.391 OA
HETATM   18  H   UNL     1     -21.844  -8.529  -5.430  1.00  0.00     0.210 HD
ENDBRANCH  13  17
ENDBRANCH  12  13
ENDBRANCH  11  12
ENDBRANCH   1  11
TORSDOF 10
ENDMDL
MODEL 8
REMARK VINA RESULT:      -4.9      3.712      5.796
REMARK  10 active torsions:
REMARK  status: ('A' for Active; 'I' for Inactive)
REMARK    1  A    between atoms: N_2  and  C_5 
REMARK    2  A    between atoms: C_5  and  C_6 
REMARK    3  A    between atoms: C_6  and  O_7 
REMARK    4  A    between atoms: O_7  and  P_8 
REMARK    5  A    between atoms: P_8  and  O_11 
REMARK    6  A    between atoms: O_11  and  C_12 
REMARK    7  A    between atoms: C_12  and  C_13 
REMARK    8  A    between atoms: C_13  and  C_14 
REMARK    9  A    between atoms: C_13  and  O_16 
REMARK   10  A    between atoms: C_14  and  O_15 
ROOT
HETATM    1  P   UNL     1     -21.207  -5.546  -6.371  1.00  0.00     0.408 P 
HETATM    2  O   UNL     1     -20.661  -6.957  -6.634  1.00  0.00    -0.624 OA
HETATM    3  O   UNL     1     -22.668  -5.320  -6.000  1.00  0.00    -0.624 OA
ENDROOT
BRANCH   1   4
HETATM    4  O   UNL     1     -20.856  -5.785  -4.695  1.00  0.00    -0.288 OA
BRANCH   4   5
HETATM    5  C   UNL     1     -21.881  -6.539  -4.074  1.00  0.00     0.209 C 
BRANCH   5   6
HETATM    6  C   UNL     1     -21.371  -7.099  -2.755  1.00  0.00     0.262 C 
BRANCH   6   7
HETATM    7  N   UNL     1     -21.102  -8.623  -2.751  1.00  0.00    -0.077 N 
HETATM    8  C   UNL     1     -21.833  -9.220  -1.568  1.00  0.00     0.271 C 
HETATM    9  C   UNL     1     -19.618  -8.919  -2.649  1.00  0.00     0.271 C 
HETATM   10  C   UNL     1     -21.631  -9.269  -4.042  1.00  0.00     0.271 C 
ENDBRANCH   6   7
ENDBRANCH   5   6
ENDBRANCH   4   5
ENDBRANCH   1   4
BRANCH   1  11
HETATM   11  O   UNL     1     -21.558  -5.307  -8.048  1.00  0.00    -0.287 OA
BRANCH  11  12
HETATM   12  C   UNL     1     -21.788  -3.947  -8.381  1.00  0.00     0.215 C 
BRANCH  12  13
HETATM   13  C   UNL     1     -23.107  -3.696  -9.115  1.00  0.00     0.166 C 
BRANCH  13  14
HETATM   14  C   UNL     1     -23.241  -4.536 -10.400  1.00  0.00     0.198 C 
BRANCH  14  15
HETATM   15  O   UNL     1     -21.957  -4.634 -11.033  1.00  0.00    -0.398 OA
HETATM   16  H   UNL     1     -21.668  -3.713 -11.144  1.00  0.00     0.209 HD
ENDBRANCH  14  15
ENDBRANCH  13  14
BRANCH  13  17
HETATM   17  O   UNL     1     -24.188  -3.977  -8.208  1.00  0.00    -0.391 OA
HETATM   18  H   UNL     1     -23.988  -3.510  -7.378  1.00  0.00     0.210 HD
ENDBRANCH  13  17
ENDBRANCH  12  13
ENDBRANCH  11  12
ENDBRANCH   1  11
TORSDOF 10
ENDMDL
MODEL 9
REMARK VINA RESULT:      -4.8      2.744      4.261
REMARK  10 active torsions:
REMARK  status: ('A' for Active; 'I' for Inactive)
REMARK    1  A    between atoms: N_2  and  C_5 
REMARK    2  A    between atoms: C_5  and  C_6 
REMARK    3  A    between atoms: C_6  and  O_7 
REMARK    4  A    between atoms: O_7  and  P_8 
REMARK    5  A    between atoms: P_8  and  O_11 
REMARK    6  A    between atoms: O_11  and  C_12 
REMARK    7  A    between atoms: C_12  and  C_13 
REMARK    8  A    between atoms: C_13  and  C_14 
REMARK    9  A    between atoms: C_13  and  O_16 
REMARK   10  A    between atoms: C_14  and  O_15 
ROOT
HETATM    1  P   UNL     1     -21.907  -4.622  -7.546  1.00  0.00     0.408 P 
HETATM    2  O   UNL     1     -23.375  -4.467  -7.122  1.00  0.00    -0.624 OA
HETATM    3  O   UNL     1     -20.884  -3.527  -7.266  1.00  0.00    -0.624 OA
ENDROOT
BRANCH   1   4
HETATM    4  O   UNL     1     -21.583  -5.275  -5.979  1.00  0.00    -0.288 OA
BRANCH   4   5
HETATM    5  C   UNL     1     -21.203  -6.634  -6.074  1.00  0.00     0.209 C 
BRANCH   5   6
HETATM    6  C   UNL     1     -21.814  -7.416  -4.921  1.00  0.00     0.262 C 
BRANCH   6   7
HETATM    7  N   UNL     1     -20.876  -8.457  -4.265  1.00  0.00    -0.077 N 
HETATM    8  C   UNL     1     -20.683  -8.059  -2.817  1.00  0.00     0.271 C 
HETATM    9  C   UNL     1     -19.536  -8.514  -4.973  1.00  0.00     0.271 C 
HETATM   10  C   UNL     1     -21.505  -9.859  -4.316  1.00  0.00     0.271 C 
ENDBRANCH   6   7
ENDBRANCH   5   6
ENDBRANCH   4   5
ENDBRANCH   1   4
BRANCH   1  11
HETATM   11  O   UNL     1     -22.232  -3.967  -9.115  1.00  0.00    -0.287 OA
BRANCH  11  12
HETATM   12  C   UNL     1     -23.477  -4.391  -9.648  1.00  0.00     0.215 C 
BRANCH  12  13
HETATM   13  C   UNL     1     -24.222  -3.312 -10.436  1.00  0.00     0.166 C 
BRANCH  13  14
HETATM   14  C   UNL     1     -24.162  -3.539 -11.959  1.00  0.00     0.198 C 
BRANCH  14  15
HETATM   15  O   UNL     1     -25.035  -2.603 -12.609  1.00  0.00    -0.398 OA
HETATM   16  H   UNL     1     -24.671  -2.512 -13.506  1.00  0.00     0.209 HD
ENDBRANCH  14  15
ENDBRANCH  13  14
BRANCH  13  17
HETATM   17  O   UNL     1     -25.586  -3.281  -9.980  1.00  0.00    -0.391 OA
HETATM   18  H   UNL     1     -26.106  -2.843 -10.677  1.00  0.00     0.210 HD
ENDBRANCH  13  17
ENDBRANCH  12  13
ENDBRANCH  11  12
ENDBRANCH   1  11
TORSDOF 10
ENDMDL
