MODEL 1
REMARK VINA RESULT:      -4.5      0.000      0.000
REMARK  3 active torsions:
REMARK  status: ('A' for Active; 'I' for Inactive)
REMARK       I    between atoms: C_2  and  N_4 
REMARK    1  A    between atoms: N_4  and  C_5 
REMARK    2  A    between atoms: C_5  and  C_6 
REMARK    3  A    between atoms: C_6  and  O_7 
ROOT
HETATM    1  C   UNL     1     -23.668  -3.270 -11.037  1.00  0.00     0.117 C 
HETATM    2  C   UNL     1     -24.104  -3.010 -12.454  1.00  0.00     0.213 C 
HETATM    3  O   UNL     1     -25.269  -3.105 -12.817  1.00  0.00    -0.274 OA
HETATM    4  N   UNL     1     -23.069  -2.659 -13.288  1.00  0.00    -0.359 N 
HETATM    5  H   UNL     1     -22.131  -2.568 -12.919  1.00  0.00     0.162 HD
ENDROOT
BRANCH   4   6
HETATM    6  C   UNL     1     -23.284  -2.400 -14.704  1.00  0.00     0.148 C 
BRANCH   6   7
HETATM    7  C   UNL     1     -23.577  -0.927 -14.980  1.00  0.00     0.183 C 
BRANCH   7   8
HETATM    8  O   UNL     1     -24.942  -0.636 -14.673  1.00  0.00    -0.399 OA
HETATM    9  H   UNL     1     -25.211   0.063 -15.293  1.00  0.00     0.209 HD
ENDBRANCH   7   8
ENDBRANCH   6   7
ENDBRANCH   4   6
TORSDOF 3
ENDMDL
MODEL 2
REMARK VINA RESULT:      -4.4     15.692     16.061
REMARK  3 active torsions:
REMARK  status: ('A' for Active; 'I' for Inactive)
REMARK       I    between atoms: C_2  and  N_4 
REMARK    1  A    between atoms: N_4  and  C_5 
REMARK    2  A    between atoms: C_5  and  C_6 
REMARK    3  A    between atoms: C_6  and  O_7 
ROOT
HETATM    1  C   UNL     1     -30.161 -14.489 -18.291  1.00  0.00     0.117 C 
HETATM    2  C   UNL     1     -30.062 -14.576 -19.789  1.00  0.00     0.213 C 
HETATM    3  O   UNL     1     -29.388 -13.802 -20.456  1.00  0.00    -0.274 OA
HETATM    4  N   UNL     1     -30.799 -15.606 -20.326  1.00  0.00    -0.359 N 
HETATM    5  H   UNL     1     -31.312 -16.231 -19.718  1.00  0.00     0.162 HD
ENDROOT
BRANCH   4   6
HETATM    6  C   UNL     1     -30.858 -15.834 -21.763  1.00  0.00     0.148 C 
BRANCH   6   7
HETATM    7  C   UNL     1     -32.044 -15.121 -22.408  1.00  0.00     0.183 C 
BRANCH   7   8
HETATM    8  O   UNL     1     -31.778 -13.721 -22.504  1.00  0.00    -0.399 OA
HETATM    9  H   UNL     1     -32.635 -13.298 -22.687  1.00  0.00     0.209 HD
ENDBRANCH   7   8
ENDBRANCH   6   7
ENDBRANCH   4   6
TORSDOF 3
ENDMDL
MODEL 3
REMARK VINA RESULT:      -4.3      2.546      2.712
REMARK  3 active torsions:
REMARK  status: ('A' for Active; 'I' for Inactive)
REMARK       I    between atoms: C_2  and  N_4 
REMARK    1  A    between atoms: N_4  and  C_5 
REMARK    2  A    between atoms: C_5  and  C_6 
REMARK    3  A    between atoms: C_6  and  O_7 
ROOT
HETATM    1  C   UNL     1     -20.438  -4.080 -11.003  1.00  0.00     0.117 C 
HETATM    2  C   UNL     1     -21.797  -3.579 -11.411  1.00  0.00     0.213 C 
HETATM    3  O   UNL     1     -22.659  -3.265 -10.600  1.00  0.00    -0.274 OA
HETATM    4  N   UNL     1     -21.968  -3.511 -12.774  1.00  0.00    -0.359 N 
HETATM    5  H   UNL     1     -21.205  -3.757 -13.391  1.00  0.00     0.162 HD
ENDROOT
BRANCH   4   6
HETATM    6  C   UNL     1     -23.227  -3.082 -13.365  1.00  0.00     0.148 C 
BRANCH   6   7
HETATM    7  C   UNL     1     -23.022  -2.389 -14.709  1.00  0.00     0.183 C 
BRANCH   7   8
HETATM    8  O   UNL     1     -22.159  -3.173 -15.535  1.00  0.00    -0.399 OA
HETATM    9  H   UNL     1     -22.066  -4.030 -15.086  1.00  0.00     0.209 HD
ENDBRANCH   7   8
ENDBRANCH   6   7
ENDBRANCH   4   6
TORSDOF 3
ENDMDL
MODEL 4
REMARK VINA RESULT:      -4.2      1.701      3.804
REMARK  3 active torsions:
REMARK  status: ('A' for Active; 'I' for Inactive)
REMARK       I    between atoms: C_2  and  N_4 
REMARK    1  A    between atoms: N_4  and  C_5 
REMARK    2  A    between atoms: C_5  and  C_6 
REMARK    3  A    between atoms: C_6  and  O_7 
ROOT
HETATM    1  C   UNL     1     -23.251  -2.573 -13.854  1.00  0.00     0.117 C 
HETATM    2  C   UNL     1     -24.101  -3.190 -12.776  1.00  0.00     0.213 C 
HETATM    3  O   UNL     1     -25.323  -3.130 -12.780  1.00  0.00    -0.274 OA
HETATM    4  N   UNL     1     -23.369  -3.821 -11.797  1.00  0.00    -0.359 N 
HETATM    5  H   UNL     1     -22.360  -3.861 -11.867  1.00  0.00     0.162 HD
ENDROOT
BRANCH   4   6
HETATM    6  C   UNL     1     -24.009  -4.449 -10.651  1.00  0.00     0.148 C 
BRANCH   6   7
HETATM    7  C   UNL     1     -24.448  -3.426  -9.607  1.00  0.00     0.183 C 
BRANCH   7   8
HETATM    8  O   UNL     1     -25.852  -3.187  -9.718  1.00  0.00    -0.399 OA
HETATM    9  H   UNL     1     -26.098  -3.454 -10.621  1.00  0.00     0.209 HD
ENDBRANCH   7   8
ENDBRANCH   6   7
ENDBRANCH   4   6
TORSDOF 3
ENDMDL
MODEL 5
REMARK VINA RESULT:      -4.2      1.676      2.097
REMARK  3 active torsions:
REMARK  status: ('A' for Active; 'I' for Inactive)
REMARK       I    between atoms: C_2  and  N_4 
REMARK    1  A    between atoms: N_4  and  C_5 
REMARK    2  A    between atoms: C_5  and  C_6 
REMARK    3  A    between atoms: C_6  and  O_7 
ROOT
HETATM    1  C   UNL     1     -23.510  -3.985  -9.254  1.00  0.00     0.117 C 
HETATM    2  C   UNL     1     -24.320  -3.462 -10.409  1.00  0.00     0.213 C 
HETATM    3  O   UNL     1     -25.508  -3.179 -10.313  1.00  0.00    -0.274 OA
HETATM    4  N   UNL     1     -23.597  -3.336 -11.572  1.00  0.00    -0.359 N 
HETATM    5  H   UNL     1     -22.610  -3.559 -11.579  1.00  0.00     0.162 HD
ENDROOT
BRANCH   4   6
HETATM    6  C   UNL     1     -24.212  -2.878 -12.809  1.00  0.00     0.148 C 
BRANCH   6   7
HETATM    7  C   UNL     1     -23.178  -2.616 -13.900  1.00  0.00     0.183 C 
BRANCH   7   8
HETATM    8  O   UNL     1     -23.829  -2.167 -15.091  1.00  0.00    -0.399 OA
HETATM    9  H   UNL     1     -23.132  -1.770 -15.642  1.00  0.00     0.209 HD
ENDBRANCH   7   8
ENDBRANCH   6   7
ENDBRANCH   4   6
TORSDOF 3
ENDMDL
MODEL 6
REMARK VINA RESULT:      -4.2     15.993     16.539
REMARK  3 active torsions:
REMARK  status: ('A' for Active; 'I' for Inactive)
REMARK       I    between atoms: C_2  and  N_4 
REMARK    1  A    between atoms: N_4  and  C_5 
REMARK    2  A    between atoms: C_5  and  C_6 
REMARK    3  A    between atoms: C_6  and  O_7 
ROOT
HETATM    1  C   UNL     1     -32.526 -16.076 -22.574  1.00  0.00     0.117 C 
HETATM    2  C   UNL     1     -31.512 -15.330 -21.749  1.00  0.00     0.213 C 
HETATM    3  O   UNL     1     -31.310 -14.129 -21.874  1.00  0.00    -0.274 OA
HETATM    4  N   UNL     1     -30.845 -16.129 -20.850  1.00  0.00    -0.359 N 
HETATM    5  H   UNL     1     -31.080 -17.110 -20.775  1.00  0.00     0.162 HD
ENDROOT
BRANCH   4   6
HETATM    6  C   UNL     1     -29.801 -15.598 -19.985  1.00  0.00     0.148 C 
BRANCH   6   7
HETATM    7  C   UNL     1     -30.374 -14.773 -18.836  1.00  0.00     0.183 C 
BRANCH   7   8
HETATM    8  O   UNL     1     -30.207 -13.380 -19.106  1.00  0.00    -0.399 OA
HETATM    9  H   UNL     1     -29.456 -13.091 -18.560  1.00  0.00     0.209 HD
ENDBRANCH   7   8
ENDBRANCH   6   7
ENDBRANCH   4   6
TORSDOF 3
ENDMDL
MODEL 7
REMARK VINA RESULT:      -3.9      2.510      3.981
REMARK  3 active torsions:
REMARK  status: ('A' for Active; 'I' for Inactive)
REMARK       I    between atoms: C_2  and  N_4 
REMARK    1  A    between atoms: N_4  and  C_5 
REMARK    2  A    between atoms: C_5  and  C_6 
REMARK    3  A    between atoms: C_6  and  O_7 
ROOT
HETATM    1  C   UNL     1     -22.888  -2.296 -15.033  1.00  0.00     0.117 C 
HETATM    2  C   UNL     1     -23.275  -2.878 -13.701  1.00  0.00     0.213 C 
HETATM    3  O   UNL     1     -24.415  -2.821 -13.258  1.00  0.00    -0.274 OA
HETATM    4  N   UNL     1     -22.227  -3.475 -13.041  1.00  0.00    -0.359 N 
HETATM    5  H   UNL     1     -21.314  -3.516 -13.475  1.00  0.00     0.162 HD
ENDROOT
BRANCH   4   6
HETATM    6  C   UNL     1     -22.394  -4.067 -11.722  1.00  0.00     0.148 C 
BRANCH   6   7
HETATM    7  C   UNL     1     -21.055  -4.408 -11.073  1.00  0.00     0.183 C 
BRANCH   7   8
HETATM    8  O   UNL     1     -20.000  -3.704 -11.732  1.00  0.00    -0.399 OA
HETATM    9  H   UNL     1     -20.071  -3.938 -12.674  1.00  0.00     0.209 HD
ENDBRANCH   7   8
ENDBRANCH   6   7
ENDBRANCH   4   6
TORSDOF 3
ENDMDL
MODEL 8
REMARK VINA RESULT:      -3.9      3.411      4.276
REMARK  3 active torsions:
REMARK  status: ('A' for Active; 'I' for Inactive)
REMARK       I    between atoms: C_2  and  N_4 
REMARK    1  A    between atoms: N_4  and  C_5 
REMARK    2  A    between atoms: C_5  and  C_6 
REMARK    3  A    between atoms: C_6  and  O_7 
ROOT
HETATM    1  C   UNL     1     -20.366  -3.747 -11.153  1.00  0.00     0.117 C 
HETATM    2  C   UNL     1     -21.841  -3.536 -11.361  1.00  0.00     0.213 C 
HETATM    3  O   UNL     1     -22.289  -2.710 -12.146  1.00  0.00    -0.274 OA
HETATM    4  N   UNL     1     -22.625  -4.359 -10.586  1.00  0.00    -0.359 N 
HETATM    5  H   UNL     1     -22.193  -5.043  -9.978  1.00  0.00     0.162 HD
ENDROOT
BRANCH   4   6
HETATM    6  C   UNL     1     -24.078  -4.282 -10.621  1.00  0.00     0.148 C 
BRANCH   6   7
HETATM    7  C   UNL     1     -24.631  -3.388  -9.514  1.00  0.00     0.183 C 
BRANCH   7   8
HETATM    8  O   UNL     1     -26.035  -3.196  -9.698  1.00  0.00    -0.399 OA
HETATM    9  H   UNL     1     -26.153  -2.247  -9.877  1.00  0.00     0.209 HD
ENDBRANCH   7   8
ENDBRANCH   6   7
ENDBRANCH   4   6
TORSDOF 3
ENDMDL
MODEL 9
REMARK VINA RESULT:      -3.6      3.144      4.294
REMARK  3 active torsions:
REMARK  status: ('A' for Active; 'I' for Inactive)
REMARK       I    between atoms: C_2  and  N_4 
REMARK    1  A    between atoms: N_4  and  C_5 
REMARK    2  A    between atoms: C_5  and  C_6 
REMARK    3  A    between atoms: C_6  and  O_7 
ROOT
HETATM    1  C   UNL     1     -21.573  -3.706  -7.532  1.00  0.00     0.117 C 
HETATM    2  C   UNL     1     -22.615  -4.000  -8.577  1.00  0.00     0.213 C 
HETATM    3  O   UNL     1     -23.791  -4.200  -8.304  1.00  0.00    -0.274 OA
HETATM    4  N   UNL     1     -22.114  -4.020  -9.858  1.00  0.00    -0.359 N 
HETATM    5  H   UNL     1     -21.136  -3.816 -10.021  1.00  0.00     0.162 HD
ENDROOT
BRANCH   4   6
HETATM    6  C   UNL     1     -22.959  -4.320 -11.004  1.00  0.00     0.148 C 
BRANCH   6   7
HETATM    7  C   UNL     1     -23.782  -3.111 -11.441  1.00  0.00     0.183 C 
BRANCH   7   8
HETATM    8  O   UNL     1     -25.100  -3.195 -10.895  1.00  0.00    -0.399 OA
HETATM    9  H   UNL     1     -24.998  -3.590 -10.012  1.00  0.00     0.209 HD
ENDBRANCH   7   8
ENDBRANCH   6   7
ENDBRANCH   4   6
TORSDOF 3
ENDMDL
