MODEL 1
REMARK VINA RESULT:      -5.0      0.000      0.000
REMARK  12 active torsions:
REMARK  status: ('A' for Active; 'I' for Inactive)
REMARK    1  A    between atoms: C_1  and  C_2 
REMARK    2  A    between atoms: C_1  and  O_23 
REMARK    3  A    between atoms: C_3  and  O_22 
REMARK    4  A    between atoms: C_4  and  O_21 
REMARK    5  A    between atoms: C_5  and  O_20 
REMARK    6  A    between atoms: C_6  and  O_8 
REMARK    7  A    between atoms: O_8  and  C_9 
REMARK    8  A    between atoms: C_10  and  C_18 
REMARK    9  A    between atoms: C_12  and  O_17 
REMARK   10  A    between atoms: C_13  and  O_16 
REMARK   11  A    between atoms: C_14  and  O_15 
REMARK   12  A    between atoms: C_18  and  O_19 
ROOT
HETATM    1  O   UNL     1     -20.091  -9.896  -2.170  1.00  0.00    -0.348 OA
ENDROOT
BRANCH   1   2
HETATM    2  C   UNL     1     -19.079  -9.939  -3.202  1.00  0.00     0.292 C 
HETATM    3  C   UNL     1     -19.648 -10.499  -4.522  1.00  0.00     0.204 C 
HETATM    4  C   UNL     1     -18.535 -10.602  -5.565  1.00  0.00     0.183 C 
HETATM    5  C   UNL     1     -17.380 -11.471  -5.054  1.00  0.00     0.180 C 
HETATM    6  C   UNL     1     -16.907 -10.950  -3.679  1.00  0.00     0.179 C 
HETATM    7  O   UNL     1     -18.011 -10.790  -2.752  1.00  0.00    -0.348 OA
BRANCH   3   8
HETATM    8  O   UNL     1     -20.220 -11.805  -4.297  1.00  0.00    -0.388 OA
HETATM    9  H   UNL     1     -20.584 -11.803  -3.387  1.00  0.00     0.210 HD
ENDBRANCH   3   8
BRANCH   4  10
HETATM   10  O   UNL     1     -19.077 -11.118  -6.782  1.00  0.00    -0.390 OA
HETATM   11  H   UNL     1     -20.042 -11.173  -6.627  1.00  0.00     0.210 HD
ENDBRANCH   4  10
BRANCH   5  12
HETATM   12  O   UNL     1     -17.795 -12.843  -4.930  1.00  0.00    -0.390 OA
HETATM   13  H   UNL     1     -17.989 -13.171  -5.830  1.00  0.00     0.210 HD
ENDBRANCH   5  12
BRANCH   6  14
HETATM   14  C   UNL     1     -16.055  -9.673  -3.797  1.00  0.00     0.198 C 
BRANCH  14  15
HETATM   15  O   UNL     1     -15.805  -9.120  -2.513  1.00  0.00    -0.398 OA
HETATM   16  H   UNL     1     -16.481  -8.441  -2.339  1.00  0.00     0.209 HD
ENDBRANCH  14  15
ENDBRANCH   6  14
ENDBRANCH   1   2
BRANCH   1  17
HETATM   17  C   UNL     1     -21.261  -9.077  -2.448  1.00  0.00     0.187 C 
HETATM   18  C   UNL     1     -21.165  -7.684  -1.789  1.00  0.00     0.180 C 
HETATM   19  O   UNL     1     -21.280  -7.744  -0.361  1.00  0.00    -0.349 OA
HETATM   20  C   UNL     1     -22.379  -8.468   0.170  1.00  0.00     0.288 C 
HETATM   21  C   UNL     1     -22.582  -9.871  -0.432  1.00  0.00     0.204 C 
HETATM   22  C   UNL     1     -22.519  -9.826  -1.962  1.00  0.00     0.183 C 
BRANCH  18  23
HETATM   23  C   UNL     1     -22.106  -6.649  -2.433  1.00  0.00     0.198 C 
BRANCH  23  24
HETATM   24  O   UNL     1     -22.388  -5.562  -1.557  1.00  0.00    -0.398 OA
HETATM   25  H   UNL     1     -23.287  -5.238  -1.764  1.00  0.00     0.209 HD
ENDBRANCH  23  24
ENDBRANCH  18  23
BRANCH  20  26
HETATM   26  O   UNL     1     -23.579  -7.704   0.146  1.00  0.00    -0.369 OA
HETATM   27  H   UNL     1     -23.342  -6.783   0.378  1.00  0.00     0.212 HD
ENDBRANCH  20  26
BRANCH  21  28
HETATM   28  O   UNL     1     -23.834 -10.425   0.005  1.00  0.00    -0.388 OA
HETATM   29  H   UNL     1     -23.957 -10.129   0.930  1.00  0.00     0.210 HD
ENDBRANCH  21  28
BRANCH  22  30
HETATM   30  O   UNL     1     -22.535 -11.131  -2.548  1.00  0.00    -0.390 OA
HETATM   31  H   UNL     1     -23.238 -11.645  -2.097  1.00  0.00     0.210 HD
ENDBRANCH  22  30
ENDBRANCH   1  17
TORSDOF 12
ENDMDL
MODEL 2
REMARK VINA RESULT:      -4.8      1.256      2.181
REMARK  12 active torsions:
REMARK  status: ('A' for Active; 'I' for Inactive)
REMARK    1  A    between atoms: C_1  and  C_2 
REMARK    2  A    between atoms: C_1  and  O_23 
REMARK    3  A    between atoms: C_3  and  O_22 
REMARK    4  A    between atoms: C_4  and  O_21 
REMARK    5  A    between atoms: C_5  and  O_20 
REMARK    6  A    between atoms: C_6  and  O_8 
REMARK    7  A    between atoms: O_8  and  C_9 
REMARK    8  A    between atoms: C_10  and  C_18 
REMARK    9  A    between atoms: C_12  and  O_17 
REMARK   10  A    between atoms: C_13  and  O_16 
REMARK   11  A    between atoms: C_14  and  O_15 
REMARK   12  A    between atoms: C_18  and  O_19 
ROOT
HETATM    1  O   UNL     1     -20.111 -10.069  -1.708  1.00  0.00    -0.348 OA
ENDROOT
BRANCH   1   2
HETATM    2  C   UNL     1     -19.229 -10.543  -2.752  1.00  0.00     0.292 C 
HETATM    3  C   UNL     1     -18.384 -11.740  -2.270  1.00  0.00     0.204 C 
HETATM    4  C   UNL     1     -17.411 -12.165  -3.370  1.00  0.00     0.183 C 
HETATM    5  C   UNL     1     -16.513 -10.996  -3.792  1.00  0.00     0.180 C 
HETATM    6  C   UNL     1     -17.388  -9.777  -4.161  1.00  0.00     0.179 C 
HETATM    7  O   UNL     1     -18.351  -9.467  -3.122  1.00  0.00    -0.348 OA
BRANCH   3   8
HETATM    8  O   UNL     1     -17.644 -11.377  -1.085  1.00  0.00    -0.388 OA
HETATM    9  H   UNL     1     -17.491 -12.203  -0.581  1.00  0.00     0.210 HD
ENDBRANCH   3   8
BRANCH   4  10
HETATM   10  O   UNL     1     -16.639 -13.276  -2.912  1.00  0.00    -0.390 OA
HETATM   11  H   UNL     1     -15.748 -13.141  -3.294  1.00  0.00     0.210 HD
ENDBRANCH   4  10
BRANCH   5  12
HETATM   12  O   UNL     1     -15.615 -10.637  -2.727  1.00  0.00    -0.390 OA
HETATM   13  H   UNL     1     -15.595 -11.384  -2.098  1.00  0.00     0.210 HD
ENDBRANCH   5  12
BRANCH   6  14
HETATM   14  C   UNL     1     -18.049  -9.928  -5.544  1.00  0.00     0.198 C 
BRANCH  14  15
HETATM   15  O   UNL     1     -18.850  -8.792  -5.840  1.00  0.00    -0.398 OA
HETATM   16  H   UNL     1     -19.756  -8.973  -5.534  1.00  0.00     0.209 HD
ENDBRANCH  14  15
ENDBRANCH   6  14
ENDBRANCH   1   2
BRANCH   1  17
HETATM   17  C   UNL     1     -21.234  -9.247  -2.135  1.00  0.00     0.187 C 
HETATM   18  C   UNL     1     -21.157  -7.816  -1.562  1.00  0.00     0.180 C 
HETATM   19  O   UNL     1     -21.390  -7.777  -0.148  1.00  0.00    -0.349 OA
HETATM   20  C   UNL     1     -22.546  -8.442   0.335  1.00  0.00     0.288 C 
HETATM   21  C   UNL     1     -22.736  -9.878  -0.190  1.00  0.00     0.204 C 
HETATM   22  C   UNL     1     -22.546  -9.937  -1.709  1.00  0.00     0.183 C 
BRANCH  18  23
HETATM   23  C   UNL     1     -22.015  -6.808  -2.349  1.00  0.00     0.198 C 
BRANCH  23  24
HETATM   24  O   UNL     1     -22.351  -5.665  -1.568  1.00  0.00    -0.398 OA
HETATM   25  H   UNL     1     -21.541  -5.128  -1.462  1.00  0.00     0.209 HD
ENDBRANCH  23  24
ENDBRANCH  18  23
BRANCH  20  26
HETATM   26  O   UNL     1     -23.721  -7.658   0.161  1.00  0.00    -0.369 OA
HETATM   27  H   UNL     1     -24.482  -8.274   0.158  1.00  0.00     0.212 HD
ENDBRANCH  20  26
BRANCH  21  28
HETATM   28  O   UNL     1     -24.033 -10.377   0.176  1.00  0.00    -0.388 OA
HETATM   29  H   UNL     1     -24.047 -11.321  -0.082  1.00  0.00     0.210 HD
ENDBRANCH  21  28
BRANCH  22  30
HETATM   30  O   UNL     1     -22.547 -11.278  -2.208  1.00  0.00    -0.390 OA
HETATM   31  H   UNL     1     -23.425 -11.437  -2.617  1.00  0.00     0.210 HD
ENDBRANCH  22  30
ENDBRANCH   1  17
TORSDOF 12
ENDMDL
MODEL 3
REMARK VINA RESULT:      -4.8      1.131      2.579
REMARK  12 active torsions:
REMARK  status: ('A' for Active; 'I' for Inactive)
REMARK    1  A    between atoms: C_1  and  C_2 
REMARK    2  A    between atoms: C_1  and  O_23 
REMARK    3  A    between atoms: C_3  and  O_22 
REMARK    4  A    between atoms: C_4  and  O_21 
REMARK    5  A    between atoms: C_5  and  O_20 
REMARK    6  A    between atoms: C_6  and  O_8 
REMARK    7  A    between atoms: O_8  and  C_9 
REMARK    8  A    between atoms: C_10  and  C_18 
REMARK    9  A    between atoms: C_12  and  O_17 
REMARK   10  A    between atoms: C_13  and  O_16 
REMARK   11  A    between atoms: C_14  and  O_15 
REMARK   12  A    between atoms: C_18  and  O_19 
ROOT
HETATM    1  O   UNL     1     -20.163 -10.013  -2.064  1.00  0.00    -0.348 OA
ENDROOT
BRANCH   1   2
HETATM    2  C   UNL     1     -19.659 -10.831  -3.144  1.00  0.00     0.292 C 
HETATM    3  C   UNL     1     -18.154 -10.584  -3.378  1.00  0.00     0.204 C 
HETATM    4  C   UNL     1     -17.672 -11.407  -4.574  1.00  0.00     0.183 C 
HETATM    5  C   UNL     1     -18.484 -11.076  -5.832  1.00  0.00     0.180 C 
HETATM    6  C   UNL     1     -19.992 -11.225  -5.532  1.00  0.00     0.179 C 
HETATM    7  O   UNL     1     -20.381 -10.495  -4.341  1.00  0.00    -0.348 OA
BRANCH   3   8
HETATM    8  O   UNL     1     -17.917  -9.183  -3.630  1.00  0.00    -0.388 OA
HETATM    9  H   UNL     1     -17.091  -9.124  -4.154  1.00  0.00     0.210 HD
ENDBRANCH   3   8
BRANCH   4  10
HETATM   10  O   UNL     1     -16.278 -11.172  -4.776  1.00  0.00    -0.390 OA
HETATM   11  H   UNL     1     -16.131 -10.250  -4.482  1.00  0.00     0.210 HD
ENDBRANCH   4  10
BRANCH   5  12
HETATM   12  O   UNL     1     -18.213  -9.733  -6.271  1.00  0.00    -0.390 OA
HETATM   13  H   UNL     1     -17.293  -9.713  -6.599  1.00  0.00     0.210 HD
ENDBRANCH   5  12
BRANCH   6  14
HETATM   14  C   UNL     1     -20.437 -12.698  -5.484  1.00  0.00     0.198 C 
BRANCH  14  15
HETATM   15  O   UNL     1     -21.766 -12.802  -4.995  1.00  0.00    -0.398 OA
HETATM   16  H   UNL     1     -21.759 -13.394  -4.222  1.00  0.00     0.209 HD
ENDBRANCH  14  15
ENDBRANCH   6  14
ENDBRANCH   1   2
BRANCH   1  17
HETATM   17  C   UNL     1     -21.302  -9.163  -2.376  1.00  0.00     0.187 C 
HETATM   18  C   UNL     1     -21.171  -7.760  -1.745  1.00  0.00     0.180 C 
HETATM   19  O   UNL     1     -21.307  -7.785  -0.318  1.00  0.00    -0.349 OA
HETATM   20  C   UNL     1     -22.436  -8.462   0.212  1.00  0.00     0.288 C 
HETATM   21  C   UNL     1     -22.676  -9.870  -0.364  1.00  0.00     0.204 C 
HETATM   22  C   UNL     1     -22.590  -9.860  -1.894  1.00  0.00     0.183 C 
BRANCH  18  23
HETATM   23  C   UNL     1     -22.069  -6.709  -2.425  1.00  0.00     0.198 C 
BRANCH  23  24
HETATM   24  O   UNL     1     -22.365  -5.617  -1.561  1.00  0.00    -0.398 OA
HETATM   25  H   UNL     1     -22.482  -5.973  -0.658  1.00  0.00     0.209 HD
ENDBRANCH  23  24
ENDBRANCH  18  23
BRANCH  20  26
HETATM   26  O   UNL     1     -23.611  -7.662   0.154  1.00  0.00    -0.369 OA
HETATM   27  H   UNL     1     -24.001  -7.783  -0.736  1.00  0.00     0.212 HD
ENDBRANCH  20  26
BRANCH  21  28
HETATM   28  O   UNL     1     -23.951 -10.375   0.065  1.00  0.00    -0.388 OA
HETATM   29  H   UNL     1     -23.865 -10.559   1.023  1.00  0.00     0.210 HD
ENDBRANCH  21  28
BRANCH  22  30
HETATM   30  O   UNL     1     -22.640 -11.176  -2.453  1.00  0.00    -0.390 OA
HETATM   31  H   UNL     1     -21.714 -11.476  -2.579  1.00  0.00     0.210 HD
ENDBRANCH  22  30
ENDBRANCH   1  17
TORSDOF 12
ENDMDL
MODEL 4
REMARK VINA RESULT:      -4.6      1.790      3.163
REMARK  12 active torsions:
REMARK  status: ('A' for Active; 'I' for Inactive)
REMARK    1  A    between atoms: C_1  and  C_2 
REMARK    2  A    between atoms: C_1  and  O_23 
REMARK    3  A    between atoms: C_3  and  O_22 
REMARK    4  A    between atoms: C_4  and  O_21 
REMARK    5  A    between atoms: C_5  and  O_20 
REMARK    6  A    between atoms: C_6  and  O_8 
REMARK    7  A    between atoms: O_8  and  C_9 
REMARK    8  A    between atoms: C_10  and  C_18 
REMARK    9  A    between atoms: C_12  and  O_17 
REMARK   10  A    between atoms: C_13  and  O_16 
REMARK   11  A    between atoms: C_14  and  O_15 
REMARK   12  A    between atoms: C_18  and  O_19 
ROOT
HETATM    1  O   UNL     1     -19.419  -8.982  -3.028  1.00  0.00    -0.348 OA
ENDROOT
BRANCH   1   2
HETATM    2  C   UNL     1     -18.683  -9.968  -3.788  1.00  0.00     0.292 C 
HETATM    3  C   UNL     1     -17.388 -10.383  -3.060  1.00  0.00     0.204 C 
HETATM    4  C   UNL     1     -16.599 -11.366  -3.926  1.00  0.00     0.183 C 
HETATM    5  C   UNL     1     -16.285 -10.761  -5.299  1.00  0.00     0.180 C 
HETATM    6  C   UNL     1     -17.590 -10.254  -5.953  1.00  0.00     0.179 C 
HETATM    7  O   UNL     1     -18.343  -9.394  -5.061  1.00  0.00    -0.348 OA
BRANCH   3   8
HETATM    8  O   UNL     1     -16.579  -9.220  -2.792  1.00  0.00    -0.388 OA
HETATM    9  H   UNL     1     -15.774  -9.299  -3.346  1.00  0.00     0.210 HD
ENDBRANCH   3   8
BRANCH   4  10
HETATM   10  O   UNL     1     -15.406 -11.745  -3.238  1.00  0.00    -0.390 OA
HETATM   11  H   UNL     1     -14.688 -11.632  -3.893  1.00  0.00     0.210 HD
ENDBRANCH   4  10
BRANCH   5  12
HETATM   12  O   UNL     1     -15.357  -9.670  -5.172  1.00  0.00    -0.390 OA
HETATM   13  H   UNL     1     -15.107  -9.392  -6.075  1.00  0.00     0.210 HD
ENDBRANCH   5  12
BRANCH   6  14
HETATM   14  C   UNL     1     -18.447 -11.401  -6.518  1.00  0.00     0.198 C 
BRANCH  14  15
HETATM   15  O   UNL     1     -17.649 -12.282  -7.297  1.00  0.00    -0.398 OA
HETATM   16  H   UNL     1     -18.237 -12.766  -7.904  1.00  0.00     0.209 HD
ENDBRANCH  14  15
ENDBRANCH   6  14
ENDBRANCH   1   2
BRANCH   1  17
HETATM   17  C   UNL     1     -20.785  -8.722  -3.459  1.00  0.00     0.187 C 
HETATM   18  C   UNL     1     -20.924  -7.351  -4.154  1.00  0.00     0.180 C 
HETATM   19  O   UNL     1     -20.776  -6.256  -3.242  1.00  0.00    -0.349 OA
HETATM   20  C   UNL     1     -21.555  -6.290  -2.057  1.00  0.00     0.288 C 
HETATM   21  C   UNL     1     -21.507  -7.624  -1.288  1.00  0.00     0.204 C 
HETATM   22  C   UNL     1     -21.718  -8.811  -2.234  1.00  0.00     0.183 C 
BRANCH  18  23
HETATM   23  C   UNL     1     -22.186  -7.248  -5.030  1.00  0.00     0.198 C 
BRANCH  23  24
HETATM   24  O   UNL     1     -22.530  -5.897  -5.319  1.00  0.00    -0.398 OA
HETATM   25  H   UNL     1     -21.787  -5.331  -5.030  1.00  0.00     0.209 HD
ENDBRANCH  23  24
ENDBRANCH  18  23
BRANCH  20  26
HETATM   26  O   UNL     1     -22.893  -5.864  -2.288  1.00  0.00    -0.369 OA
HETATM   27  H   UNL     1     -22.849  -4.953  -2.645  1.00  0.00     0.212 HD
ENDBRANCH  20  26
BRANCH  21  28
HETATM   28  O   UNL     1     -22.490  -7.633  -0.241  1.00  0.00    -0.388 OA
HETATM   29  H   UNL     1     -22.261  -8.383   0.345  1.00  0.00     0.210 HD
ENDBRANCH  21  28
BRANCH  22  30
HETATM   30  O   UNL     1     -21.512 -10.070  -1.586  1.00  0.00    -0.390 OA
HETATM   31  H   UNL     1     -21.713 -10.772  -2.241  1.00  0.00     0.210 HD
ENDBRANCH  22  30
ENDBRANCH   1  17
TORSDOF 12
ENDMDL
MODEL 5
REMARK VINA RESULT:      -4.6      8.127      9.903
REMARK  12 active torsions:
REMARK  status: ('A' for Active; 'I' for Inactive)
REMARK    1  A    between atoms: C_1  and  C_2 
REMARK    2  A    between atoms: C_1  and  O_23 
REMARK    3  A    between atoms: C_3  and  O_22 
REMARK    4  A    between atoms: C_4  and  O_21 
REMARK    5  A    between atoms: C_5  and  O_20 
REMARK    6  A    between atoms: C_6  and  O_8 
REMARK    7  A    between atoms: O_8  and  C_9 
REMARK    8  A    between atoms: C_10  and  C_18 
REMARK    9  A    between atoms: C_12  and  O_17 
REMARK   10  A    between atoms: C_13  and  O_16 
REMARK   11  A    between atoms: C_14  and  O_15 
REMARK   12  A    between atoms: C_18  and  O_19 
ROOT
HETATM    1  O   UNL     1     -21.321  -4.970 -10.234  1.00  0.00    -0.348 OA
ENDROOT
BRANCH   1   2
HETATM    2  C   UNL     1     -20.364  -5.114  -9.159  1.00  0.00     0.292 C 
HETATM    3  C   UNL     1     -20.935  -5.975  -8.014  1.00  0.00     0.204 C 
HETATM    4  C   UNL     1     -19.929  -6.043  -6.864  1.00  0.00     0.183 C 
HETATM    5  C   UNL     1     -19.566  -4.639  -6.367  1.00  0.00     0.180 C 
HETATM    6  C   UNL     1     -19.104  -3.769  -7.557  1.00  0.00     0.179 C 
HETATM    7  O   UNL     1     -20.052  -3.806  -8.653  1.00  0.00    -0.348 OA
BRANCH   3   8
HETATM    8  O   UNL     1     -22.172  -5.404  -7.538  1.00  0.00    -0.388 OA
HETATM    9  H   UNL     1     -21.949  -4.539  -7.135  1.00  0.00     0.210 HD
ENDBRANCH   3   8
BRANCH   4  10
HETATM   10  O   UNL     1     -20.469  -6.845  -5.813  1.00  0.00    -0.390 OA
HETATM   11  H   UNL     1     -19.725  -7.407  -5.515  1.00  0.00     0.210 HD
ENDBRANCH   4  10
BRANCH   5  12
HETATM   12  O   UNL     1     -20.697  -4.019  -5.730  1.00  0.00    -0.390 OA
HETATM   13  H   UNL     1     -20.351  -3.356  -5.101  1.00  0.00     0.210 HD
ENDBRANCH   5  12
BRANCH   6  14
HETATM   14  C   UNL     1     -17.673  -4.111  -8.012  1.00  0.00     0.198 C 
BRANCH  14  15
HETATM   15  O   UNL     1     -16.758  -3.958  -6.936  1.00  0.00    -0.398 OA
HETATM   16  H   UNL     1     -16.917  -4.677  -6.299  1.00  0.00     0.209 HD
ENDBRANCH  14  15
ENDBRANCH   6  14
ENDBRANCH   1   2
BRANCH   1  17
HETATM   17  C   UNL     1     -22.184  -3.799 -10.176  1.00  0.00     0.187 C 
HETATM   18  C   UNL     1     -23.675  -4.181 -10.059  1.00  0.00     0.180 C 
HETATM   19  O   UNL     1     -24.188  -4.766 -11.263  1.00  0.00    -0.349 OA
HETATM   20  C   UNL     1     -23.950  -4.066 -12.475  1.00  0.00     0.288 C 
HETATM   21  C   UNL     1     -22.492  -3.616 -12.688  1.00  0.00     0.204 C 
HETATM   22  C   UNL     1     -21.937  -2.938 -11.432  1.00  0.00     0.183 C 
BRANCH  18  23
HETATM   23  C   UNL     1     -24.548  -3.033  -9.519  1.00  0.00     0.198 C 
BRANCH  23  24
HETATM   24  O   UNL     1     -25.933  -3.250  -9.767  1.00  0.00    -0.398 OA
HETATM   25  H   UNL     1     -26.020  -3.630 -10.664  1.00  0.00     0.209 HD
ENDBRANCH  23  24
ENDBRANCH  18  23
BRANCH  20  26
HETATM   26  O   UNL     1     -24.865  -2.991 -12.655  1.00  0.00    -0.369 OA
HETATM   27  H   UNL     1     -25.761  -3.338 -12.467  1.00  0.00     0.212 HD
ENDBRANCH  20  26
BRANCH  21  28
HETATM   28  O   UNL     1     -22.402  -2.735 -13.819  1.00  0.00    -0.388 OA
HETATM   29  H   UNL     1     -23.316  -2.621 -14.153  1.00  0.00     0.210 HD
ENDBRANCH  21  28
BRANCH  22  30
HETATM   30  O   UNL     1     -20.538  -2.660 -11.534  1.00  0.00    -0.390 OA
HETATM   31  H   UNL     1     -20.427  -1.967 -12.221  1.00  0.00     0.210 HD
ENDBRANCH  22  30
ENDBRANCH   1  17
TORSDOF 12
ENDMDL
MODEL 6
REMARK VINA RESULT:      -4.5      1.880      2.892
REMARK  12 active torsions:
REMARK  status: ('A' for Active; 'I' for Inactive)
REMARK    1  A    between atoms: C_1  and  C_2 
REMARK    2  A    between atoms: C_1  and  O_23 
REMARK    3  A    between atoms: C_3  and  O_22 
REMARK    4  A    between atoms: C_4  and  O_21 
REMARK    5  A    between atoms: C_5  and  O_20 
REMARK    6  A    between atoms: C_6  and  O_8 
REMARK    7  A    between atoms: O_8  and  C_9 
REMARK    8  A    between atoms: C_10  and  C_18 
REMARK    9  A    between atoms: C_12  and  O_17 
REMARK   10  A    between atoms: C_13  and  O_16 
REMARK   11  A    between atoms: C_14  and  O_15 
REMARK   12  A    between atoms: C_18  and  O_19 
ROOT
HETATM    1  O   UNL     1     -19.661  -9.278  -2.034  1.00  0.00    -0.348 OA
ENDROOT
BRANCH   1   2
HETATM    2  C   UNL     1     -18.651 -10.041  -2.733  1.00  0.00     0.292 C 
HETATM    3  C   UNL     1     -18.564 -11.482  -2.191  1.00  0.00     0.204 C 
HETATM    4  C   UNL     1     -17.435 -12.235  -2.898  1.00  0.00     0.183 C 
HETATM    5  C   UNL     1     -16.098 -11.505  -2.731  1.00  0.00     0.180 C 
HETATM    6  C   UNL     1     -16.249 -10.034  -3.178  1.00  0.00     0.179 C 
HETATM    7  O   UNL     1     -17.383  -9.390  -2.543  1.00  0.00    -0.348 OA
BRANCH   3   8
HETATM    8  O   UNL     1     -18.312 -11.461  -0.770  1.00  0.00    -0.388 OA
HETATM    9  H   UNL     1     -17.410 -11.821  -0.636  1.00  0.00     0.210 HD
ENDBRANCH   3   8
BRANCH   4  10
HETATM   10  O   UNL     1     -17.369 -13.568  -2.390  1.00  0.00    -0.390 OA
HETATM   11  H   UNL     1     -16.425 -13.712  -2.176  1.00  0.00     0.210 HD
ENDBRANCH   4  10
BRANCH   5  12
HETATM   12  O   UNL     1     -15.665 -11.548  -1.360  1.00  0.00    -0.390 OA
HETATM   13  H   UNL     1     -16.274 -10.984  -0.844  1.00  0.00     0.210 HD
ENDBRANCH   5  12
BRANCH   6  14
HETATM   14  C   UNL     1     -16.278  -9.888  -4.711  1.00  0.00     0.198 C 
BRANCH  14  15
HETATM   15  O   UNL     1     -15.255 -10.673  -5.306  1.00  0.00    -0.398 OA
HETATM   16  H   UNL     1     -15.069 -10.309  -6.189  1.00  0.00     0.209 HD
ENDBRANCH  14  15
ENDBRANCH   6  14
ENDBRANCH   1   2
BRANCH   1  17
HETATM   17  C   UNL     1     -20.887  -9.004  -2.769  1.00  0.00     0.187 C 
HETATM   18  C   UNL     1     -20.766  -7.741  -3.649  1.00  0.00     0.180 C 
HETATM   19  O   UNL     1     -20.708  -6.536  -2.874  1.00  0.00    -0.349 OA
HETATM   20  C   UNL     1     -21.707  -6.355  -1.883  1.00  0.00     0.288 C 
HETATM   21  C   UNL     1     -21.927  -7.566  -0.956  1.00  0.00     0.204 C 
HETATM   22  C   UNL     1     -22.048  -8.861  -1.765  1.00  0.00     0.183 C 
BRANCH  18  23
HETATM   23  C   UNL     1     -21.816  -7.691  -4.775  1.00  0.00     0.198 C 
BRANCH  23  24
HETATM   24  O   UNL     1     -21.281  -8.110  -6.026  1.00  0.00    -0.398 OA
HETATM   25  H   UNL     1     -20.398  -8.496  -5.859  1.00  0.00     0.209 HD
ENDBRANCH  23  24
ENDBRANCH  18  23
BRANCH  20  26
HETATM   26  O   UNL     1     -22.930  -5.889  -2.441  1.00  0.00    -0.369 OA
HETATM   27  H   UNL     1     -22.738  -5.043  -2.895  1.00  0.00     0.212 HD
ENDBRANCH  20  26
BRANCH  21  28
HETATM   28  O   UNL     1     -23.096  -7.367  -0.145  1.00  0.00    -0.388 OA
HETATM   29  H   UNL     1     -23.054  -8.038   0.568  1.00  0.00     0.210 HD
ENDBRANCH  21  28
BRANCH  22  30
HETATM   30  O   UNL     1     -22.084 -10.024  -0.932  1.00  0.00    -0.390 OA
HETATM   31  H   UNL     1     -21.170 -10.186  -0.615  1.00  0.00     0.210 HD
ENDBRANCH  22  30
ENDBRANCH   1  17
TORSDOF 12
ENDMDL
MODEL 7
REMARK VINA RESULT:      -4.4      7.645      9.717
REMARK  12 active torsions:
REMARK  status: ('A' for Active; 'I' for Inactive)
REMARK    1  A    between atoms: C_1  and  C_2 
REMARK    2  A    between atoms: C_1  and  O_23 
REMARK    3  A    between atoms: C_3  and  O_22 
REMARK    4  A    between atoms: C_4  and  O_21 
REMARK    5  A    between atoms: C_5  and  O_20 
REMARK    6  A    between atoms: C_6  and  O_8 
REMARK    7  A    between atoms: O_8  and  C_9 
REMARK    8  A    between atoms: C_10  and  C_18 
REMARK    9  A    between atoms: C_12  and  O_17 
REMARK   10  A    between atoms: C_13  and  O_16 
REMARK   11  A    between atoms: C_14  and  O_15 
REMARK   12  A    between atoms: C_18  and  O_19 
ROOT
HETATM    1  O   UNL     1     -21.757  -4.762  -9.597  1.00  0.00    -0.348 OA
ENDROOT
BRANCH   1   2
HETATM    2  C   UNL     1     -21.507  -4.901  -8.180  1.00  0.00     0.292 C 
HETATM    3  C   UNL     1     -20.066  -4.483  -7.822  1.00  0.00     0.204 C 
HETATM    4  C   UNL     1     -19.813  -4.715  -6.331  1.00  0.00     0.183 C 
HETATM    5  C   UNL     1     -20.069  -6.178  -5.952  1.00  0.00     0.180 C 
HETATM    6  C   UNL     1     -21.478  -6.598  -6.423  1.00  0.00     0.179 C 
HETATM    7  O   UNL     1     -21.698  -6.280  -7.821  1.00  0.00    -0.348 OA
BRANCH   3   8
HETATM    8  O   UNL     1     -19.122  -5.252  -8.596  1.00  0.00    -0.388 OA
HETATM    9  H   UNL     1     -18.234  -4.879  -8.415  1.00  0.00     0.210 HD
ENDBRANCH   3   8
BRANCH   4  10
HETATM   10  O   UNL     1     -18.477  -4.320  -6.014  1.00  0.00    -0.390 OA
HETATM   11  H   UNL     1     -18.399  -3.403  -6.346  1.00  0.00     0.210 HD
ENDBRANCH   4  10
BRANCH   5  12
HETATM   12  O   UNL     1     -19.085  -7.038  -6.554  1.00  0.00    -0.390 OA
HETATM   13  H   UNL     1     -18.931  -6.713  -7.463  1.00  0.00     0.210 HD
ENDBRANCH   5  12
BRANCH   6  14
HETATM   14  C   UNL     1     -22.590  -6.040  -5.516  1.00  0.00     0.198 C 
BRANCH  14  15
HETATM   15  O   UNL     1     -22.231  -6.173  -4.148  1.00  0.00    -0.398 OA
HETATM   16  H   UNL     1     -22.657  -5.452  -3.652  1.00  0.00     0.209 HD
ENDBRANCH  14  15
ENDBRANCH   6  14
ENDBRANCH   1   2
BRANCH   1  17
HETATM   17  C   UNL     1     -22.704  -3.728  -9.987  1.00  0.00     0.187 C 
HETATM   18  C   UNL     1     -24.126  -4.292 -10.198  1.00  0.00     0.180 C 
HETATM   19  O   UNL     1     -24.220  -5.119 -11.365  1.00  0.00    -0.349 OA
HETATM   20  C   UNL     1     -23.714  -4.586 -12.579  1.00  0.00     0.288 C 
HETATM   21  C   UNL     1     -22.303  -3.975 -12.480  1.00  0.00     0.204 C 
HETATM   22  C   UNL     1     -22.192  -3.042 -11.270  1.00  0.00     0.183 C 
BRANCH  18  23
HETATM   23  C   UNL     1     -25.218  -3.209 -10.129  1.00  0.00     0.198 C 
BRANCH  23  24
HETATM   24  O   UNL     1     -25.139  -2.443  -8.931  1.00  0.00    -0.398 OA
HETATM   25  H   UNL     1     -25.293  -3.048  -8.179  1.00  0.00     0.209 HD
ENDBRANCH  23  24
ENDBRANCH  18  23
BRANCH  20  26
HETATM   26  O   UNL     1     -24.635  -3.689 -13.189  1.00  0.00    -0.369 OA
HETATM   27  H   UNL     1     -25.421  -3.640 -12.608  1.00  0.00     0.212 HD
ENDBRANCH  20  26
BRANCH  21  28
HETATM   28  O   UNL     1     -21.978  -3.272 -13.690  1.00  0.00    -0.388 OA
HETATM   29  H   UNL     1     -22.669  -3.511 -14.341  1.00  0.00     0.210 HD
ENDBRANCH  21  28
BRANCH  22  30
HETATM   30  O   UNL     1     -20.853  -2.590 -11.049  1.00  0.00    -0.390 OA
HETATM   31  H   UNL     1     -20.262  -3.149 -11.598  1.00  0.00     0.210 HD
ENDBRANCH  22  30
ENDBRANCH   1  17
TORSDOF 12
ENDMDL
MODEL 8
REMARK VINA RESULT:      -4.3      2.922      5.027
REMARK  12 active torsions:
REMARK  status: ('A' for Active; 'I' for Inactive)
REMARK    1  A    between atoms: C_1  and  C_2 
REMARK    2  A    between atoms: C_1  and  O_23 
REMARK    3  A    between atoms: C_3  and  O_22 
REMARK    4  A    between atoms: C_4  and  O_21 
REMARK    5  A    between atoms: C_5  and  O_20 
REMARK    6  A    between atoms: C_6  and  O_8 
REMARK    7  A    between atoms: O_8  and  C_9 
REMARK    8  A    between atoms: C_10  and  C_18 
REMARK    9  A    between atoms: C_12  and  O_17 
REMARK   10  A    between atoms: C_13  and  O_16 
REMARK   11  A    between atoms: C_14  and  O_15 
REMARK   12  A    between atoms: C_18  and  O_19 
ROOT
HETATM    1  O   UNL     1     -20.963  -9.990  -5.917  1.00  0.00    -0.348 OA
ENDROOT
BRANCH   1   2
HETATM    2  C   UNL     1     -20.760 -11.422  -5.918  1.00  0.00     0.292 C 
HETATM    3  C   UNL     1     -19.265 -11.775  -6.064  1.00  0.00     0.204 C 
HETATM    4  C   UNL     1     -19.095 -13.293  -6.140  1.00  0.00     0.183 C 
HETATM    5  C   UNL     1     -19.912 -13.881  -7.296  1.00  0.00     0.180 C 
HETATM    6  C   UNL     1     -21.381 -13.418  -7.182  1.00  0.00     0.179 C 
HETATM    7  O   UNL     1     -21.484 -11.979  -7.028  1.00  0.00    -0.348 OA
BRANCH   3   8
HETATM    8  O   UNL     1     -18.730 -11.170  -7.260  1.00  0.00    -0.388 OA
HETATM    9  H   UNL     1     -18.473 -10.254  -7.024  1.00  0.00     0.210 HD
ENDBRANCH   3   8
BRANCH   4  10
HETATM   10  O   UNL     1     -17.708 -13.604  -6.270  1.00  0.00    -0.390 OA
HETATM   11  H   UNL     1     -17.393 -13.056  -7.017  1.00  0.00     0.210 HD
ENDBRANCH   4  10
BRANCH   5  12
HETATM   12  O   UNL     1     -19.373 -13.462  -8.562  1.00  0.00    -0.390 OA
HETATM   13  H   UNL     1     -19.576 -14.162  -9.212  1.00  0.00     0.210 HD
ENDBRANCH   5  12
BRANCH   6  14
HETATM   14  C   UNL     1     -22.153 -14.178  -6.088  1.00  0.00     0.198 C 
BRANCH  14  15
HETATM   15  O   UNL     1     -23.474 -13.671  -5.966  1.00  0.00    -0.398 OA
HETATM   16  H   UNL     1     -23.857 -13.605  -6.859  1.00  0.00     0.209 HD
ENDBRANCH  14  15
ENDBRANCH   6  14
ENDBRANCH   1   2
BRANCH   1  17
HETATM   17  C   UNL     1     -20.425  -9.264  -4.777  1.00  0.00     0.187 C 
HETATM   18  C   UNL     1     -21.523  -8.878  -3.762  1.00  0.00     0.180 C 
HETATM   19  O   UNL     1     -22.403  -7.865  -4.264  1.00  0.00    -0.349 OA
HETATM   20  C   UNL     1     -21.805  -6.701  -4.811  1.00  0.00     0.288 C 
HETATM   21  C   UNL     1     -20.677  -6.967  -5.826  1.00  0.00     0.204 C 
HETATM   22  C   UNL     1     -19.690  -8.008  -5.289  1.00  0.00     0.183 C 
BRANCH  18  23
HETATM   23  C   UNL     1     -20.961  -8.559  -2.363  1.00  0.00     0.198 C 
BRANCH  23  24
HETATM   24  O   UNL     1     -21.887  -7.824  -1.569  1.00  0.00    -0.398 OA
HETATM   25  H   UNL     1     -21.375  -7.229  -0.987  1.00  0.00     0.209 HD
ENDBRANCH  23  24
ENDBRANCH  18  23
BRANCH  20  26
HETATM   26  O   UNL     1     -21.397  -5.787  -3.799  1.00  0.00    -0.369 OA
HETATM   27  H   UNL     1     -21.366  -4.898  -4.207  1.00  0.00     0.212 HD
ENDBRANCH  20  26
BRANCH  21  28
HETATM   28  O   UNL     1     -19.995  -5.744  -6.148  1.00  0.00    -0.388 OA
HETATM   29  H   UNL     1     -20.350  -5.064  -5.540  1.00  0.00     0.210 HD
ENDBRANCH  21  28
BRANCH  22  30
HETATM   30  O   UNL     1     -18.726  -8.405  -6.270  1.00  0.00    -0.390 OA
HETATM   31  H   UNL     1     -17.880  -8.567  -5.800  1.00  0.00     0.210 HD
ENDBRANCH  22  30
ENDBRANCH   1  17
TORSDOF 12
ENDMDL
MODEL 9
REMARK VINA RESULT:      -4.3      4.775      6.986
REMARK  12 active torsions:
REMARK  status: ('A' for Active; 'I' for Inactive)
REMARK    1  A    between atoms: C_1  and  C_2 
REMARK    2  A    between atoms: C_1  and  O_23 
REMARK    3  A    between atoms: C_3  and  O_22 
REMARK    4  A    between atoms: C_4  and  O_21 
REMARK    5  A    between atoms: C_5  and  O_20 
REMARK    6  A    between atoms: C_6  and  O_8 
REMARK    7  A    between atoms: O_8  and  C_9 
REMARK    8  A    between atoms: C_10  and  C_18 
REMARK    9  A    between atoms: C_12  and  O_17 
REMARK   10  A    between atoms: C_13  and  O_16 
REMARK   11  A    between atoms: C_14  and  O_15 
REMARK   12  A    between atoms: C_18  and  O_19 
ROOT
HETATM    1  O   UNL     1     -21.255  -6.738  -6.537  1.00  0.00    -0.348 OA
ENDROOT
BRANCH   1   2
HETATM    2  C   UNL     1     -20.894  -7.097  -5.184  1.00  0.00     0.292 C 
HETATM    3  C   UNL     1     -20.020  -8.368  -5.157  1.00  0.00     0.204 C 
HETATM    4  C   UNL     1     -19.722  -8.762  -3.710  1.00  0.00     0.183 C 
HETATM    5  C   UNL     1     -21.018  -8.971  -2.917  1.00  0.00     0.180 C 
HETATM    6  C   UNL     1     -21.918  -7.723  -3.057  1.00  0.00     0.179 C 
HETATM    7  O   UNL     1     -22.101  -7.341  -4.444  1.00  0.00    -0.348 OA
BRANCH   3   8
HETATM    8  O   UNL     1     -20.706  -9.452  -5.819  1.00  0.00    -0.388 OA
HETATM    9  H   UNL     1     -21.529  -9.077  -6.198  1.00  0.00     0.210 HD
ENDBRANCH   3   8
BRANCH   4  10
HETATM   10  O   UNL     1     -18.910  -9.937  -3.700  1.00  0.00    -0.390 OA
HETATM   11  H   UNL     1     -19.131 -10.405  -4.531  1.00  0.00     0.210 HD
ENDBRANCH   4  10
BRANCH   5  12
HETATM   12  O   UNL     1     -21.724 -10.128  -3.397  1.00  0.00    -0.390 OA
HETATM   13  H   UNL     1     -22.652  -9.862  -3.548  1.00  0.00     0.210 HD
ENDBRANCH   5  12
BRANCH   6  14
HETATM   14  C   UNL     1     -21.431  -6.549  -2.188  1.00  0.00     0.198 C 
BRANCH  14  15
HETATM   15  O   UNL     1     -22.523  -5.722  -1.811  1.00  0.00    -0.398 OA
HETATM   16  H   UNL     1     -22.883  -6.059  -0.972  1.00  0.00     0.209 HD
ENDBRANCH  14  15
ENDBRANCH   6  14
ENDBRANCH   1   2
BRANCH   1  17
HETATM   17  C   UNL     1     -21.560  -5.334  -6.773  1.00  0.00     0.187 C 
HETATM   18  C   UNL     1     -22.179  -5.100  -8.168  1.00  0.00     0.180 C 
HETATM   19  O   UNL     1     -21.233  -5.295  -9.227  1.00  0.00    -0.349 OA
HETATM   20  C   UNL     1     -19.991  -4.619  -9.118  1.00  0.00     0.288 C 
HETATM   21  C   UNL     1     -19.289  -4.768  -7.755  1.00  0.00     0.204 C 
HETATM   22  C   UNL     1     -20.267  -4.510  -6.604  1.00  0.00     0.183 C 
BRANCH  18  23
HETATM   23  C   UNL     1     -22.942  -3.766  -8.269  1.00  0.00     0.198 C 
BRANCH  23  24
HETATM   24  O   UNL     1     -24.345  -3.960  -8.409  1.00  0.00    -0.398 OA
HETATM   25  H   UNL     1     -24.769  -3.080  -8.420  1.00  0.00     0.209 HD
ENDBRANCH  23  24
ENDBRANCH  18  23
BRANCH  20  26
HETATM   26  O   UNL     1     -20.091  -3.256  -9.513  1.00  0.00    -0.369 OA
HETATM   27  H   UNL     1     -19.633  -2.722  -8.832  1.00  0.00     0.212 HD
ENDBRANCH  20  26
BRANCH  21  28
HETATM   28  O   UNL     1     -18.165  -3.877  -7.671  1.00  0.00    -0.388 OA
HETATM   29  H   UNL     1     -18.014  -3.714  -6.718  1.00  0.00     0.210 HD
ENDBRANCH  21  28
BRANCH  22  30
HETATM   30  O   UNL     1     -19.695  -4.804  -5.325  1.00  0.00    -0.390 OA
HETATM   31  H   UNL     1     -18.723  -4.854  -5.444  1.00  0.00     0.210 HD
ENDBRANCH  22  30
ENDBRANCH   1  17
TORSDOF 12
ENDMDL
