MODEL 1
REMARK VINA RESULT:      -3.2      0.000      0.000
REMARK  0 active torsions:
REMARK  status: ('A' for Active; 'I' for Inactive)
ROOT
HETATM    1  C   UNL     1     -28.766 -14.968 -17.917  1.00  0.00     0.042 C 
HETATM    2  C   UNL     1     -30.111 -14.604 -18.430  1.00  0.00     0.141 A 
HETATM    3  C   UNL     1     -30.406 -14.608 -19.904  1.00  0.00     0.199 A 
HETATM    4  O   UNL     1     -30.139 -13.391 -19.189  1.00  0.00    -0.382 OA
ENDROOT
TORSDOF 0
ENDMDL
MODEL 2
REMARK VINA RESULT:      -2.9      0.760      2.048
REMARK  0 active torsions:
REMARK  status: ('A' for Active; 'I' for Inactive)
ROOT
HETATM    1  C   UNL     1     -30.617 -15.135 -20.834  1.00  0.00     0.042 C 
HETATM    2  C   UNL     1     -29.704 -14.471 -19.869  1.00  0.00     0.141 A 
HETATM    3  C   UNL     1     -29.932 -14.580 -18.387  1.00  0.00     0.199 A 
HETATM    4  O   UNL     1     -30.311 -13.408 -19.126  1.00  0.00    -0.382 OA
ENDROOT
TORSDOF 0
ENDMDL
MODEL 3
REMARK VINA RESULT:      -2.8     14.617     14.898
REMARK  0 active torsions:
REMARK  status: ('A' for Active; 'I' for Inactive)
ROOT
HETATM    1  C   UNL     1     -23.441  -4.013  -8.892  1.00  0.00     0.042 C 
HETATM    2  C   UNL     1     -24.348  -4.232 -10.046  1.00  0.00     0.141 A 
HETATM    3  C   UNL     1     -24.316  -3.320 -11.241  1.00  0.00     0.199 A 
HETATM    4  O   UNL     1     -25.326  -3.201 -10.226  1.00  0.00    -0.382 OA
ENDROOT
TORSDOF 0
ENDMDL
MODEL 4
REMARK VINA RESULT:      -2.8     14.169     14.688
REMARK  0 active torsions:
REMARK  status: ('A' for Active; 'I' for Inactive)
ROOT
HETATM    1  C   UNL     1     -23.500  -4.771 -11.428  1.00  0.00     0.042 C 
HETATM    2  C   UNL     1     -23.839  -3.453 -10.832  1.00  0.00     0.141 A 
HETATM    3  C   UNL     1     -24.560  -3.359  -9.517  1.00  0.00     0.199 A 
HETATM    4  O   UNL     1     -25.243  -3.183 -10.768  1.00  0.00    -0.382 OA
ENDROOT
TORSDOF 0
ENDMDL
MODEL 5
REMARK VINA RESULT:      -2.6     14.322     14.642
REMARK  0 active torsions:
REMARK  status: ('A' for Active; 'I' for Inactive)
ROOT
HETATM    1  C   UNL     1     -22.122  -3.294 -11.434  1.00  0.00     0.042 C 
HETATM    2  C   UNL     1     -23.496  -3.795 -11.689  1.00  0.00     0.141 A 
HETATM    3  C   UNL     1     -24.463  -3.012 -12.533  1.00  0.00     0.199 A 
HETATM    4  O   UNL     1     -24.529  -2.998 -11.099  1.00  0.00    -0.382 OA
ENDROOT
TORSDOF 0
ENDMDL
MODEL 6
REMARK VINA RESULT:      -2.6     13.332     13.611
REMARK  0 active torsions:
REMARK  status: ('A' for Active; 'I' for Inactive)
ROOT
HETATM    1  C   UNL     1     -33.228  -3.089 -11.179  1.00  0.00     0.042 C 
HETATM    2  C   UNL     1     -34.184  -4.188 -10.888  1.00  0.00     0.141 A 
HETATM    3  C   UNL     1     -34.774  -5.015 -11.996  1.00  0.00     0.199 A 
HETATM    4  O   UNL     1     -35.511  -3.952 -11.371  1.00  0.00    -0.382 OA
ENDROOT
TORSDOF 0
ENDMDL
MODEL 7
REMARK VINA RESULT:      -2.5     23.042     23.213
REMARK  0 active torsions:
REMARK  status: ('A' for Active; 'I' for Inactive)
ROOT
HETATM    1  C   UNL     1     -23.862   7.572 -11.579  1.00  0.00     0.042 C 
HETATM    2  C   UNL     1     -25.234   7.007 -11.599  1.00  0.00     0.141 A 
HETATM    3  C   UNL     1     -26.126   7.097 -10.392  1.00  0.00     0.199 A 
HETATM    4  O   UNL     1     -25.420   5.890 -10.722  1.00  0.00    -0.382 OA
ENDROOT
TORSDOF 0
ENDMDL
MODEL 8
REMARK VINA RESULT:      -2.4     12.951     13.296
REMARK  0 active torsions:
REMARK  status: ('A' for Active; 'I' for Inactive)
ROOT
HETATM    1  C   UNL     1     -35.261  -4.149 -10.953  1.00  0.00     0.042 C 
HETATM    2  C   UNL     1     -33.799  -4.222 -10.705  1.00  0.00     0.141 A 
HETATM    3  C   UNL     1     -32.813  -4.045 -11.826  1.00  0.00     0.199 A 
HETATM    4  O   UNL     1     -33.157  -5.344 -11.320  1.00  0.00    -0.382 OA
ENDROOT
TORSDOF 0
ENDMDL
MODEL 9
REMARK VINA RESULT:      -2.4     20.503     21.054
REMARK  0 active torsions:
REMARK  status: ('A' for Active; 'I' for Inactive)
ROOT
HETATM    1  C   UNL     1     -21.902  -8.086   0.916  1.00  0.00     0.042 C 
HETATM    2  C   UNL     1     -22.442  -8.009  -0.464  1.00  0.00     0.141 A 
HETATM    3  C   UNL     1     -21.636  -7.404  -1.579  1.00  0.00     0.199 A 
HETATM    4  O   UNL     1     -22.686  -6.675  -0.924  1.00  0.00    -0.382 OA
ENDROOT
TORSDOF 0
ENDMDL
