MODEL 1
REMARK VINA RESULT:      -1.1      0.000      0.000
REMARK  5 active torsions:
REMARK  status: ('A' for Active; 'I' for Inactive)
REMARK    1  A    between atoms: N_2  and  C_5 
REMARK    2  A    between atoms: C_13  and  O_27 
REMARK    3  A    between atoms: C_14  and  N_15 
REMARK    4  A    between atoms: N_17  and  C_19 
REMARK    5  A    between atoms: C_24  and  O_25 
ROOT
HETATM    1 CL   UNL     2     -32.950  -3.303 -11.392  1.00  0.00     0.000 Cl
ENDROOT
TORSDOF 5
ENDMDL
MODEL 2
REMARK VINA RESULT:      -1.0      8.563      8.563
REMARK  5 active torsions:
REMARK  status: ('A' for Active; 'I' for Inactive)
REMARK    1  A    between atoms: N_2  and  C_5 
REMARK    2  A    between atoms: C_13  and  O_27 
REMARK    3  A    between atoms: C_14  and  N_15 
REMARK    4  A    between atoms: N_17  and  C_19 
REMARK    5  A    between atoms: C_24  and  O_25 
ROOT
HETATM    1 CL   UNL     2     -37.016   0.580  -4.933  1.00  0.00     0.000 Cl
ENDROOT
TORSDOF 5
ENDMDL
MODEL 3
REMARK VINA RESULT:      -1.0     11.260     11.260
REMARK  5 active torsions:
REMARK  status: ('A' for Active; 'I' for Inactive)
REMARK    1  A    between atoms: N_2  and  C_5 
REMARK    2  A    between atoms: C_13  and  O_27 
REMARK    3  A    between atoms: C_14  and  N_15 
REMARK    4  A    between atoms: N_17  and  C_19 
REMARK    5  A    between atoms: C_24  and  O_25 
ROOT
HETATM    1 CL   UNL     2     -29.825   7.428 -12.753  1.00  0.00     0.000 Cl
ENDROOT
TORSDOF 5
ENDMDL
MODEL 4
REMARK VINA RESULT:      -1.0      4.781      4.781
REMARK  5 active torsions:
REMARK  status: ('A' for Active; 'I' for Inactive)
REMARK    1  A    between atoms: N_2  and  C_5 
REMARK    2  A    between atoms: C_13  and  O_27 
REMARK    3  A    between atoms: C_14  and  N_15 
REMARK    4  A    between atoms: N_17  and  C_19 
REMARK    5  A    between atoms: C_24  and  O_25 
ROOT
HETATM    1 CL   UNL     2     -34.908  -7.338  -9.735  1.00  0.00     0.000 Cl
ENDROOT
TORSDOF 5
ENDMDL
MODEL 5
REMARK VINA RESULT:      -1.0     14.601     14.601
REMARK  5 active torsions:
REMARK  status: ('A' for Active; 'I' for Inactive)
REMARK    1  A    between atoms: N_2  and  C_5 
REMARK    2  A    between atoms: C_13  and  O_27 
REMARK    3  A    between atoms: C_14  and  N_15 
REMARK    4  A    between atoms: N_17  and  C_19 
REMARK    5  A    between atoms: C_24  and  O_25 
ROOT
HETATM    1 CL   UNL     2     -22.240  -6.151  -1.885  1.00  0.00     0.000 Cl
ENDROOT
TORSDOF 5
ENDMDL
MODEL 6
REMARK VINA RESULT:      -0.9     12.036     12.036
REMARK  5 active torsions:
REMARK  status: ('A' for Active; 'I' for Inactive)
REMARK    1  A    between atoms: N_2  and  C_5 
REMARK    2  A    between atoms: C_13  and  O_27 
REMARK    3  A    between atoms: C_14  and  N_15 
REMARK    4  A    between atoms: N_17  and  C_19 
REMARK    5  A    between atoms: C_24  and  O_25 
ROOT
HETATM    1 CL   UNL     2     -27.128   7.229 -11.166  1.00  0.00     0.000 Cl
ENDROOT
TORSDOF 5
ENDMDL
MODEL 7
REMARK VINA RESULT:      -0.9     16.130     16.130
REMARK  5 active torsions:
REMARK  status: ('A' for Active; 'I' for Inactive)
REMARK    1  A    between atoms: N_2  and  C_5 
REMARK    2  A    between atoms: C_13  and  O_27 
REMARK    3  A    between atoms: C_14  and  N_15 
REMARK    4  A    between atoms: N_17  and  C_19 
REMARK    5  A    between atoms: C_24  and  O_25 
ROOT
HETATM    1 CL   UNL     2     -23.254  -8.076   0.582  1.00  0.00     0.000 Cl
ENDROOT
TORSDOF 5
ENDMDL
MODEL 8
REMARK VINA RESULT:      -0.9     29.284     29.284
REMARK  5 active torsions:
REMARK  status: ('A' for Active; 'I' for Inactive)
REMARK    1  A    between atoms: N_2  and  C_5 
REMARK    2  A    between atoms: C_13  and  O_27 
REMARK    3  A    between atoms: C_14  and  N_15 
REMARK    4  A    between atoms: N_17  and  C_19 
REMARK    5  A    between atoms: C_24  and  O_25 
ROOT
HETATM    1 CL   UNL     2     -12.854   9.133   5.900  1.00  0.00     0.000 Cl
ENDROOT
TORSDOF 5
ENDMDL
MODEL 9
REMARK VINA RESULT:      -0.9     18.623     18.623
REMARK  5 active torsions:
REMARK  status: ('A' for Active; 'I' for Inactive)
REMARK    1  A    between atoms: N_2  and  C_5 
REMARK    2  A    between atoms: C_13  and  O_27 
REMARK    3  A    between atoms: C_14  and  N_15 
REMARK    4  A    between atoms: N_17  and  C_19 
REMARK    5  A    between atoms: C_24  and  O_25 
ROOT
HETATM    1 CL   UNL     2     -29.163   6.522   3.969  1.00  0.00     0.000 Cl
ENDROOT
TORSDOF 5
ENDMDL
