MODEL 1
REMARK VINA RESULT:      -5.7      0.000      0.000
REMARK  3 active torsions:
REMARK  status: ('A' for Active; 'I' for Inactive)
REMARK    1  A    between atoms: C_4  and  C_7 
REMARK    2  A    between atoms: C_7  and  C_8 
REMARK    3  A    between atoms: C_8  and  O_9 
ROOT
HETATM    1  C   UNL     1     -20.915  -4.312  -9.605  1.00  0.00     0.000 A 
HETATM    2  C   UNL     1     -22.224  -4.071  -9.188  1.00  0.00     0.001 A 
HETATM    3  C   UNL     1     -23.175  -3.605 -10.097  1.00  0.00     0.007 A 
HETATM    4  C   UNL     1     -22.828  -3.383 -11.436  1.00  0.00    -0.056 A 
HETATM    5  C   UNL     1     -21.507  -3.619 -11.842  1.00  0.00     0.007 A 
HETATM    6  C   UNL     1     -20.556  -4.082 -10.931  1.00  0.00     0.001 A 
ENDROOT
BRANCH   4   7
HETATM    7  C   UNL     1     -23.851  -2.890 -12.433  1.00  0.00     0.064 C 
BRANCH   7   8
HETATM    8  C   UNL     1     -23.278  -2.670 -13.831  1.00  0.00     0.168 C 
BRANCH   8   9
HETATM    9  O   UNL     1     -23.714  -3.674 -14.742  1.00  0.00    -0.401 OA
HETATM   10  H   UNL     1     -24.038  -4.418 -14.202  1.00  0.00     0.209 HD
ENDBRANCH   8   9
ENDBRANCH   7   8
ENDBRANCH   4   7
TORSDOF 3
ENDMDL
MODEL 2
REMARK VINA RESULT:      -5.7      0.054      1.610
REMARK  3 active torsions:
REMARK  status: ('A' for Active; 'I' for Inactive)
REMARK    1  A    between atoms: C_4  and  C_7 
REMARK    2  A    between atoms: C_7  and  C_8 
REMARK    3  A    between atoms: C_8  and  O_9 
ROOT
HETATM    1  C   UNL     1     -20.873  -4.338  -9.588  1.00  0.00     0.000 A 
HETATM    2  C   UNL     1     -20.523  -4.141 -10.925  1.00  0.00     0.001 A 
HETATM    3  C   UNL     1     -21.473  -3.680 -11.838  1.00  0.00     0.007 A 
HETATM    4  C   UNL     1     -22.781  -3.402 -11.421  1.00  0.00    -0.056 A 
HETATM    5  C   UNL     1     -23.124  -3.612 -10.078  1.00  0.00     0.007 A 
HETATM    6  C   UNL     1     -22.175  -4.077  -9.167  1.00  0.00     0.001 A 
ENDROOT
BRANCH   4   7
HETATM    7  C   UNL     1     -23.815  -2.890 -12.397  1.00  0.00     0.064 C 
BRANCH   7   8
HETATM    8  C   UNL     1     -23.260  -2.662 -13.802  1.00  0.00     0.168 C 
BRANCH   8   9
HETATM    9  O   UNL     1     -23.721  -3.651 -14.716  1.00  0.00    -0.401 OA
HETATM   10  H   UNL     1     -24.661  -3.458 -14.886  1.00  0.00     0.209 HD
ENDBRANCH   8   9
ENDBRANCH   7   8
ENDBRANCH   4   7
TORSDOF 3
ENDMDL
MODEL 3
REMARK VINA RESULT:      -5.2      1.543      2.356
REMARK  3 active torsions:
REMARK  status: ('A' for Active; 'I' for Inactive)
REMARK    1  A    between atoms: C_4  and  C_7 
REMARK    2  A    between atoms: C_7  and  C_8 
REMARK    3  A    between atoms: C_8  and  O_9 
ROOT
HETATM    1  C   UNL     1     -20.606  -4.400  -7.127  1.00  0.00     0.000 A 
HETATM    2  C   UNL     1     -21.997  -4.446  -7.230  1.00  0.00     0.001 A 
HETATM    3  C   UNL     1     -22.609  -4.388  -8.484  1.00  0.00     0.007 A 
HETATM    4  C   UNL     1     -21.835  -4.291  -9.647  1.00  0.00    -0.056 A 
HETATM    5  C   UNL     1     -20.439  -4.236  -9.531  1.00  0.00     0.007 A 
HETATM    6  C   UNL     1     -19.828  -4.291  -8.277  1.00  0.00     0.001 A 
ENDROOT
BRANCH   4   7
HETATM    7  C   UNL     1     -22.486  -4.240 -11.010  1.00  0.00     0.064 C 
BRANCH   7   8
HETATM    8  C   UNL     1     -21.982  -3.089 -11.879  1.00  0.00     0.168 C 
BRANCH   8   9
HETATM    9  O   UNL     1     -21.978  -3.435 -13.259  1.00  0.00    -0.401 OA
HETATM   10  H   UNL     1     -22.899  -3.365 -13.568  1.00  0.00     0.209 HD
ENDBRANCH   8   9
ENDBRANCH   7   8
ENDBRANCH   4   7
TORSDOF 3
ENDMDL
MODEL 4
REMARK VINA RESULT:      -5.1      2.801      4.499
REMARK  3 active torsions:
REMARK  status: ('A' for Active; 'I' for Inactive)
REMARK    1  A    between atoms: C_4  and  C_7 
REMARK    2  A    between atoms: C_7  and  C_8 
REMARK    3  A    between atoms: C_8  and  O_9 
ROOT
HETATM    1  C   UNL     1     -23.736  -3.053 -12.412  1.00  0.00     0.000 A 
HETATM    2  C   UNL     1     -22.368  -3.217 -12.632  1.00  0.00     0.001 A 
HETATM    3  C   UNL     1     -21.534  -3.622 -11.587  1.00  0.00     0.007 A 
HETATM    4  C   UNL     1     -22.062  -3.873 -10.315  1.00  0.00    -0.056 A 
HETATM    5  C   UNL     1     -23.437  -3.696 -10.103  1.00  0.00     0.007 A 
HETATM    6  C   UNL     1     -24.269  -3.289 -11.147  1.00  0.00     0.001 A 
ENDROOT
BRANCH   4   7
HETATM    7  C   UNL     1     -21.172  -4.324  -9.180  1.00  0.00     0.064 C 
BRANCH   7   8
HETATM    8  C   UNL     1     -21.879  -4.341  -7.826  1.00  0.00     0.168 C 
BRANCH   8   9
HETATM    9  O   UNL     1     -21.622  -3.154  -7.084  1.00  0.00    -0.401 OA
HETATM   10  H   UNL     1     -20.959  -2.648  -7.587  1.00  0.00     0.209 HD
ENDBRANCH   8   9
ENDBRANCH   7   8
ENDBRANCH   4   7
TORSDOF 3
ENDMDL
MODEL 5
REMARK VINA RESULT:      -5.0     20.429     21.547
REMARK  3 active torsions:
REMARK  status: ('A' for Active; 'I' for Inactive)
REMARK    1  A    between atoms: C_4  and  C_7 
REMARK    2  A    between atoms: C_7  and  C_8 
REMARK    3  A    between atoms: C_8  and  O_9 
ROOT
HETATM    1  C   UNL     1     -14.299   8.686   0.793  1.00  0.00     0.000 A 
HETATM    2  C   UNL     1     -13.356   9.622   1.219  1.00  0.00     0.001 A 
HETATM    3  C   UNL     1     -13.080   9.770   2.579  1.00  0.00     0.007 A 
HETATM    4  C   UNL     1     -13.740   8.978   3.527  1.00  0.00    -0.056 A 
HETATM    5  C   UNL     1     -14.693   8.047   3.089  1.00  0.00     0.007 A 
HETATM    6  C   UNL     1     -14.969   7.902   1.729  1.00  0.00     0.001 A 
ENDROOT
BRANCH   4   7
HETATM    7  C   UNL     1     -13.441   9.121   5.002  1.00  0.00     0.064 C 
BRANCH   7   8
HETATM    8  C   UNL     1     -14.673   9.460   5.839  1.00  0.00     0.168 C 
BRANCH   8   9
HETATM    9  O   UNL     1     -15.075   8.362   6.651  1.00  0.00    -0.401 OA
HETATM   10  H   UNL     1     -15.845   8.663   7.166  1.00  0.00     0.209 HD
ENDBRANCH   8   9
ENDBRANCH   7   8
ENDBRANCH   4   7
TORSDOF 3
ENDMDL
MODEL 6
REMARK VINA RESULT:      -4.9     11.293     13.032
REMARK  3 active torsions:
REMARK  status: ('A' for Active; 'I' for Inactive)
REMARK    1  A    between atoms: C_4  and  C_7 
REMARK    2  A    between atoms: C_7  and  C_8 
REMARK    3  A    between atoms: C_8  and  O_9 
ROOT
HETATM    1  C   UNL     1     -22.274 -11.975   0.409  1.00  0.00     0.000 A 
HETATM    2  C   UNL     1     -21.206 -11.107   0.641  1.00  0.00     0.001 A 
HETATM    3  C   UNL     1     -21.377  -9.730   0.486  1.00  0.00     0.007 A 
HETATM    4  C   UNL     1     -22.619  -9.206   0.105  1.00  0.00    -0.056 A 
HETATM    5  C   UNL     1     -23.682 -10.089  -0.134  1.00  0.00     0.007 A 
HETATM    6  C   UNL     1     -23.510 -11.465   0.018  1.00  0.00     0.001 A 
ENDROOT
BRANCH   4   7
HETATM    7  C   UNL     1     -22.818  -7.717  -0.054  1.00  0.00     0.064 C 
BRANCH   7   8
HETATM    8  C   UNL     1     -22.001  -7.114  -1.195  1.00  0.00     0.168 C 
BRANCH   8   9
HETATM    9  O   UNL     1     -22.640  -5.971  -1.752  1.00  0.00    -0.401 OA
HETATM   10  H   UNL     1     -22.253  -5.192  -1.311  1.00  0.00     0.209 HD
ENDBRANCH   8   9
ENDBRANCH   7   8
ENDBRANCH   4   7
TORSDOF 3
ENDMDL
MODEL 7
REMARK VINA RESULT:      -4.9      3.102      4.289
REMARK  3 active torsions:
REMARK  status: ('A' for Active; 'I' for Inactive)
REMARK    1  A    between atoms: C_4  and  C_7 
REMARK    2  A    between atoms: C_7  and  C_8 
REMARK    3  A    between atoms: C_8  and  O_9 
ROOT
HETATM    1  C   UNL     1     -20.405  -5.717  -6.255  1.00  0.00     0.000 A 
HETATM    2  C   UNL     1     -19.751  -5.311  -7.420  1.00  0.00     0.001 A 
HETATM    3  C   UNL     1     -20.453  -4.629  -8.415  1.00  0.00     0.007 A 
HETATM    4  C   UNL     1     -21.814  -4.339  -8.253  1.00  0.00    -0.056 A 
HETATM    5  C   UNL     1     -22.462  -4.760  -7.082  1.00  0.00     0.007 A 
HETATM    6  C   UNL     1     -21.760  -5.444  -6.089  1.00  0.00     0.001 A 
ENDROOT
BRANCH   4   7
HETATM    7  C   UNL     1     -22.581  -3.590  -9.317  1.00  0.00     0.064 C 
BRANCH   7   8
HETATM    8  C   UNL     1     -24.043  -4.019  -9.425  1.00  0.00     0.168 C 
BRANCH   8   9
HETATM    9  O   UNL     1     -24.929  -2.928  -9.203  1.00  0.00    -0.401 OA
HETATM   10  H   UNL     1     -25.673  -3.275  -8.677  1.00  0.00     0.209 HD
ENDBRANCH   8   9
ENDBRANCH   7   8
ENDBRANCH   4   7
TORSDOF 3
ENDMDL
MODEL 8
REMARK VINA RESULT:      -4.8      8.973     10.752
REMARK  3 active torsions:
REMARK  status: ('A' for Active; 'I' for Inactive)
REMARK    1  A    between atoms: C_4  and  C_7 
REMARK    2  A    between atoms: C_7  and  C_8 
REMARK    3  A    between atoms: C_8  and  O_9 
ROOT
HETATM    1  C   UNL     1     -22.611  -9.447  -0.073  1.00  0.00     0.000 A 
HETATM    2  C   UNL     1     -21.976  -9.693  -1.291  1.00  0.00     0.001 A 
HETATM    3  C   UNL     1     -21.603  -8.629  -2.114  1.00  0.00     0.007 A 
HETATM    4  C   UNL     1     -21.854  -7.308  -1.724  1.00  0.00    -0.056 A 
HETATM    5  C   UNL     1     -22.500  -7.072  -0.502  1.00  0.00     0.007 A 
HETATM    6  C   UNL     1     -22.876  -8.137   0.319  1.00  0.00     0.001 A 
ENDROOT
BRANCH   4   7
HETATM    7  C   UNL     1     -21.443  -6.147  -2.600  1.00  0.00     0.064 C 
BRANCH   7   8
HETATM    8  C   UNL     1     -21.440  -6.485  -4.090  1.00  0.00     0.168 C 
BRANCH   8   9
HETATM    9  O   UNL     1     -22.695  -6.198  -4.696  1.00  0.00    -0.401 OA
HETATM   10  H   UNL     1     -23.248  -6.993  -4.583  1.00  0.00     0.209 HD
ENDBRANCH   8   9
ENDBRANCH   7   8
ENDBRANCH   4   7
TORSDOF 3
ENDMDL
MODEL 9
REMARK VINA RESULT:      -4.7     21.811     23.726
REMARK  3 active torsions:
REMARK  status: ('A' for Active; 'I' for Inactive)
REMARK    1  A    between atoms: C_4  and  C_7 
REMARK    2  A    between atoms: C_7  and  C_8 
REMARK    3  A    between atoms: C_8  and  O_9 
ROOT
HETATM    1  C   UNL     1      -9.421 -14.587   7.101  1.00  0.00     0.000 A 
HETATM    2  C   UNL     1      -9.564 -13.432   6.331  1.00  0.00     0.001 A 
HETATM    3  C   UNL     1      -9.131 -13.417   5.004  1.00  0.00     0.007 A 
HETATM    4  C   UNL     1      -8.559 -14.560   4.431  1.00  0.00    -0.056 A 
HETATM    5  C   UNL     1      -8.412 -15.712   5.216  1.00  0.00     0.007 A 
HETATM    6  C   UNL     1      -8.842 -15.725   6.544  1.00  0.00     0.001 A 
ENDROOT
BRANCH   4   7
HETATM    7  C   UNL     1      -8.099 -14.560   2.991  1.00  0.00     0.064 C 
BRANCH   7   8
HETATM    8  C   UNL     1      -9.115 -13.944   2.031  1.00  0.00     0.168 C 
BRANCH   8   9
HETATM    9  O   UNL     1      -8.585 -13.819   0.715  1.00  0.00    -0.401 OA
HETATM   10  H   UNL     1      -7.756 -13.314   0.795  1.00  0.00     0.209 HD
ENDBRANCH   8   9
ENDBRANCH   7   8
ENDBRANCH   4   7
TORSDOF 3
ENDMDL
