MODEL 1
REMARK VINA RESULT:      -7.3      0.000      0.000
REMARK  4 active torsions:
REMARK  status: ('A' for Active; 'I' for Inactive)
REMARK    1  A    between atoms: C_4  and  C_27 
REMARK    2  A    between atoms: C_5  and  C_7 
REMARK    3  A    between atoms: C_18  and  O_23 
REMARK    4  A    between atoms: C_27  and  O_29 
ROOT
HETATM    1  C   UNL     1     -21.019 -11.106  -1.611  1.00  0.00     0.001 C 
HETATM    2  C   UNL     1     -20.016 -11.983  -1.296  1.00  0.00     0.013 C 
HETATM    3  C   UNL     1     -18.801 -11.628  -0.563  1.00  0.00     0.038 C 
HETATM    4  C   UNL     1     -17.847 -12.554  -0.365  1.00  0.00     0.063 C 
HETATM    5  C   UNL     1     -18.105 -13.997  -0.733  1.00  0.00     0.209 C 
HETATM    6  O   UNL     1     -17.375 -14.893  -0.335  1.00  0.00    -0.285 OA
HETATM    7  C   UNL     1     -19.182 -14.239  -1.751  1.00  0.00     0.097 C 
HETATM    8  C   UNL     1     -19.814 -13.142  -2.178  1.00  0.00     0.108 C 
HETATM    9  O   UNL     1     -19.890 -12.891  -3.537  1.00  0.00    -0.306 OA
HETATM   10  C   UNL     1     -20.048 -11.569  -3.853  1.00  0.00     0.107 C 
HETATM   11  C   UNL     1     -19.198 -10.906  -4.732  1.00  0.00     0.080 C 
HETATM   12  C   UNL     1     -19.533  -9.623  -5.156  1.00  0.00     0.103 C 
HETATM   13  C   UNL     1     -20.759  -9.079  -4.765  1.00  0.00     0.046 C 
HETATM   14  C   UNL     1     -21.462  -9.658  -3.706  1.00  0.00     0.037 C 
HETATM   15  C   UNL     1     -20.990 -10.838  -3.126  1.00  0.00     0.013 C 
HETATM   16 BR   UNL     1     -21.433  -7.490  -5.544  1.00  0.00    -0.048 Br
HETATM   17 BR   UNL     1     -17.485 -11.632  -5.121  1.00  0.00    -0.045 Br
HETATM   18 BR   UNL     1     -19.200 -15.869  -2.658  1.00  0.00    -0.044 Br
HETATM   19 BR   UNL     1     -16.102 -12.070   0.100  1.00  0.00    -0.047 Br
ENDROOT
BRANCH   1  20
HETATM   20  C   UNL     1     -21.679 -10.136  -0.659  1.00  0.00    -0.007 C 
HETATM   21  C   UNL     1     -23.025 -10.302  -0.245  1.00  0.00     0.048 C 
HETATM   22  C   UNL     1     -23.751  -9.217   0.293  1.00  0.00     0.019 C 
HETATM   23  C   UNL     1     -23.106  -8.034   0.623  1.00  0.00     0.001 C 
HETATM   24  C   UNL     1     -21.736  -7.945   0.448  1.00  0.00     0.001 C 
HETATM   25  C   UNL     1     -21.039  -8.975  -0.194  1.00  0.00     0.013 C 
BRANCH  21  26
HETATM   26  C   UNL     1     -23.717 -11.626  -0.271  1.00  0.00     0.177 C 
HETATM   27  O   UNL     1     -24.456 -12.022  -1.156  1.00  0.00    -0.646 OA
BRANCH  26  28
HETATM   28  O   UNL     1     -23.381 -12.398   0.786  1.00  0.00    -0.773 OA
HETATM   29  H   UNL     1     -23.336 -13.358   0.613  1.00  0.00     0.167 HD
ENDBRANCH  26  28
ENDBRANCH  21  26
ENDBRANCH   1  20
BRANCH  12  30
HETATM   30  O   UNL     1     -18.665  -8.861  -5.889  1.00  0.00    -0.358 OA
HETATM   31  H   UNL     1     -18.560  -8.004  -5.436  1.00  0.00     0.217 HD
ENDBRANCH  12  30
TORSDOF 4
ENDMDL
MODEL 2
REMARK VINA RESULT:      -6.6      2.295      5.206
REMARK  4 active torsions:
REMARK  status: ('A' for Active; 'I' for Inactive)
REMARK    1  A    between atoms: C_4  and  C_27 
REMARK    2  A    between atoms: C_5  and  C_7 
REMARK    3  A    between atoms: C_18  and  O_23 
REMARK    4  A    between atoms: C_27  and  O_29 
ROOT
HETATM    1  C   UNL     1     -20.362 -11.129  -1.657  1.00  0.00     0.001 C 
HETATM    2  C   UNL     1     -19.809 -10.934  -2.894  1.00  0.00     0.013 C 
HETATM    3  C   UNL     1     -20.402 -11.391  -4.151  1.00  0.00     0.038 C 
HETATM    4  C   UNL     1     -19.742 -11.205  -5.306  1.00  0.00     0.063 C 
HETATM    5  C   UNL     1     -18.484 -10.367  -5.333  1.00  0.00     0.209 C 
HETATM    6  O   UNL     1     -18.011  -9.968  -6.386  1.00  0.00    -0.285 OA
HETATM    7  C   UNL     1     -17.760 -10.217  -4.026  1.00  0.00     0.097 C 
HETATM    8  C   UNL     1     -18.346 -10.812  -2.982  1.00  0.00     0.108 C 
HETATM    9  O   UNL     1     -17.616 -11.698  -2.210  1.00  0.00    -0.306 OA
HETATM   10  C   UNL     1     -18.377 -12.624  -1.550  1.00  0.00     0.107 C 
HETATM   11  C   UNL     1     -18.146 -13.991  -1.659  1.00  0.00     0.080 C 
HETATM   12  C   UNL     1     -18.831 -14.859  -0.812  1.00  0.00     0.103 C 
HETATM   13  C   UNL     1     -19.651 -14.328   0.185  1.00  0.00     0.046 C 
HETATM   14  C   UNL     1     -20.044 -12.989   0.110  1.00  0.00     0.037 C 
HETATM   15  C   UNL     1     -19.523 -12.171  -0.894  1.00  0.00     0.013 C 
HETATM   16 BR   UNL     1     -20.359 -15.408   1.569  1.00  0.00    -0.048 Br
HETATM   17 BR   UNL     1     -17.132 -14.668  -3.116  1.00  0.00    -0.045 Br
HETATM   18 BR   UNL     1     -15.970  -9.695  -4.053  1.00  0.00    -0.044 Br
HETATM   19 BR   UNL     1     -20.176 -12.177  -6.843  1.00  0.00    -0.047 Br
ENDROOT
BRANCH   1  20
HETATM   20  C   UNL     1     -21.795 -10.849  -1.272  1.00  0.00    -0.007 C 
HETATM   21  C   UNL     1     -22.138  -9.772  -0.416  1.00  0.00     0.048 C 
HETATM   22  C   UNL     1     -23.380  -9.754   0.256  1.00  0.00     0.019 C 
HETATM   23  C   UNL     1     -24.368 -10.672  -0.068  1.00  0.00     0.001 C 
HETATM   24  C   UNL     1     -24.131 -11.584  -1.082  1.00  0.00     0.001 C 
HETATM   25  C   UNL     1     -22.861 -11.677  -1.664  1.00  0.00     0.013 C 
BRANCH  21  26
HETATM   26  C   UNL     1     -21.263  -8.573  -0.243  1.00  0.00     0.177 C 
HETATM   27  O   UNL     1     -20.873  -7.845  -1.140  1.00  0.00    -0.646 OA
BRANCH  26  28
HETATM   28  O   UNL     1     -20.988  -8.326   1.057  1.00  0.00    -0.773 OA
HETATM   29  H   UNL     1     -20.066  -8.071   1.253  1.00  0.00     0.167 HD
ENDBRANCH  26  28
ENDBRANCH  21  26
ENDBRANCH   1  20
BRANCH  12  30
HETATM   30  O   UNL     1     -18.768 -16.217  -0.975  1.00  0.00    -0.358 OA
HETATM   31  H   UNL     1     -17.856 -16.447  -1.232  1.00  0.00     0.217 HD
ENDBRANCH  12  30
TORSDOF 4
ENDMDL
MODEL 3
REMARK VINA RESULT:      -6.5      2.139      5.220
REMARK  4 active torsions:
REMARK  status: ('A' for Active; 'I' for Inactive)
REMARK    1  A    between atoms: C_4  and  C_27 
REMARK    2  A    between atoms: C_5  and  C_7 
REMARK    3  A    between atoms: C_18  and  O_23 
REMARK    4  A    between atoms: C_27  and  O_29 
ROOT
HETATM    1  C   UNL     1     -20.411 -11.815  -1.178  1.00  0.00     0.001 C 
HETATM    2  C   UNL     1     -20.552 -11.615  -2.525  1.00  0.00     0.013 C 
HETATM    3  C   UNL     1     -20.670 -12.685  -3.517  1.00  0.00     0.038 C 
HETATM    4  C   UNL     1     -20.738 -12.378  -4.823  1.00  0.00     0.063 C 
HETATM    5  C   UNL     1     -20.879 -10.936  -5.256  1.00  0.00     0.209 C 
HETATM    6  O   UNL     1     -21.200 -10.647  -6.399  1.00  0.00    -0.285 OA
HETATM    7  C   UNL     1     -20.427  -9.901  -4.268  1.00  0.00     0.097 C 
HETATM    8  C   UNL     1     -19.992 -10.384  -3.100  1.00  0.00     0.108 C 
HETATM    9  O   UNL     1     -18.740 -10.014  -2.639  1.00  0.00    -0.306 OA
HETATM   10  C   UNL     1     -18.172 -10.915  -1.780  1.00  0.00     0.107 C 
HETATM   11  C   UNL     1     -16.903 -11.444  -1.989  1.00  0.00     0.080 C 
HETATM   12  C   UNL     1     -16.314 -12.201  -0.978  1.00  0.00     0.103 C 
HETATM   13  C   UNL     1     -16.970 -12.322   0.248  1.00  0.00     0.046 C 
HETATM   14  C   UNL     1     -18.325 -11.992   0.338  1.00  0.00     0.037 C 
HETATM   15  C   UNL     1     -18.977 -11.438  -0.766  1.00  0.00     0.013 C 
HETATM   16 BR   UNL     1     -16.109 -13.053   1.767  1.00  0.00    -0.048 Br
HETATM   17 BR   UNL     1     -16.116 -11.367  -3.717  1.00  0.00    -0.045 Br
HETATM   18 BR   UNL     1     -20.047  -8.183  -4.888  1.00  0.00    -0.044 Br
HETATM   19 BR   UNL     1     -20.388 -13.655  -6.142  1.00  0.00    -0.047 Br
ENDROOT
BRANCH   1  20
HETATM   20  C   UNL     1     -21.251 -12.737  -0.326  1.00  0.00    -0.007 C 
HETATM   21  C   UNL     1     -22.465 -12.303   0.265  1.00  0.00     0.048 C 
HETATM   22  C   UNL     1     -23.023 -13.000   1.358  1.00  0.00     0.019 C 
HETATM   23  C   UNL     1     -22.515 -14.234   1.739  1.00  0.00     0.001 C 
HETATM   24  C   UNL     1     -21.476 -14.786   1.010  1.00  0.00     0.001 C 
HETATM   25  C   UNL     1     -20.848 -14.043   0.003  1.00  0.00     0.013 C 
BRANCH  21  26
HETATM   26  C   UNL     1     -23.256 -11.157  -0.277  1.00  0.00     0.177 C 
HETATM   27  O   UNL     1     -23.063  -9.980  -0.024  1.00  0.00    -0.646 OA
BRANCH  26  28
HETATM   28  O   UNL     1     -24.200 -11.560  -1.156  1.00  0.00    -0.773 OA
HETATM   29  H   UNL     1     -24.071 -11.269  -2.079  1.00  0.00     0.167 HD
ENDBRANCH  26  28
ENDBRANCH  21  26
ENDBRANCH   1  20
BRANCH  12  30
HETATM   30  O   UNL     1     -15.142 -12.878  -1.181  1.00  0.00    -0.358 OA
HETATM   31  H   UNL     1     -15.321 -13.608  -1.803  1.00  0.00     0.217 HD
ENDBRANCH  12  30
TORSDOF 4
ENDMDL
MODEL 4
REMARK VINA RESULT:      -6.5      2.819      4.137
REMARK  4 active torsions:
REMARK  status: ('A' for Active; 'I' for Inactive)
REMARK    1  A    between atoms: C_4  and  C_27 
REMARK    2  A    between atoms: C_5  and  C_7 
REMARK    3  A    between atoms: C_18  and  O_23 
REMARK    4  A    between atoms: C_27  and  O_29 
ROOT
HETATM    1  C   UNL     1     -23.012 -11.776  -0.789  1.00  0.00     0.001 C 
HETATM    2  C   UNL     1     -23.004 -12.946  -0.077  1.00  0.00     0.013 C 
HETATM    3  C   UNL     1     -21.881 -13.417   0.733  1.00  0.00     0.038 C 
HETATM    4  C   UNL     1     -21.952 -14.615   1.339  1.00  0.00     0.063 C 
HETATM    5  C   UNL     1     -23.251 -15.388   1.337  1.00  0.00     0.209 C 
HETATM    6  O   UNL     1     -23.423 -16.339   2.084  1.00  0.00    -0.285 OA
HETATM    7  C   UNL     1     -24.227 -15.041   0.250  1.00  0.00     0.097 C 
HETATM    8  C   UNL     1     -23.841 -14.052  -0.563  1.00  0.00     0.108 C 
HETATM    9  O   UNL     1     -23.833 -14.265  -1.930  1.00  0.00    -0.306 OA
HETATM   10  C   UNL     1     -22.962 -13.462  -2.615  1.00  0.00     0.107 C 
HETATM   11  C   UNL     1     -21.998 -13.976  -3.478  1.00  0.00     0.080 C 
HETATM   12  C   UNL     1     -21.280 -13.097  -4.285  1.00  0.00     0.103 C 
HETATM   13  C   UNL     1     -21.615 -11.742  -4.278  1.00  0.00     0.046 C 
HETATM   14  C   UNL     1     -22.403 -11.234  -3.242  1.00  0.00     0.037 C 
HETATM   15  C   UNL     1     -22.939 -12.105  -2.290  1.00  0.00     0.013 C 
HETATM   16 BR   UNL     1     -20.918 -10.540  -5.563  1.00  0.00    -0.048 Br
HETATM   17 BR   UNL     1     -21.488 -15.801  -3.349  1.00  0.00    -0.045 Br
HETATM   18 BR   UNL     1     -25.567 -16.269  -0.170  1.00  0.00    -0.044 Br
HETATM   19 BR   UNL     1     -20.418 -15.488   1.954  1.00  0.00    -0.047 Br
ENDROOT
BRANCH   1  20
HETATM   20  C   UNL     1     -22.606 -10.418  -0.266  1.00  0.00    -0.007 C 
HETATM   21  C   UNL     1     -21.265 -10.132   0.095  1.00  0.00     0.048 C 
HETATM   22  C   UNL     1     -20.965  -9.042   0.941  1.00  0.00     0.019 C 
HETATM   23  C   UNL     1     -21.942  -8.111   1.262  1.00  0.00     0.001 C 
HETATM   24  C   UNL     1     -23.205  -8.247   0.714  1.00  0.00     0.001 C 
HETATM   25  C   UNL     1     -23.533  -9.389  -0.027  1.00  0.00     0.013 C 
BRANCH  21  26
HETATM   26  C   UNL     1     -20.104 -10.895  -0.455  1.00  0.00     0.177 C 
HETATM   27  O   UNL     1     -19.720 -10.864  -1.612  1.00  0.00    -0.646 OA
BRANCH  26  28
HETATM   28  O   UNL     1     -19.458 -11.599   0.501  1.00  0.00    -0.773 OA
HETATM   29  H   UNL     1     -18.539 -11.853   0.292  1.00  0.00     0.167 HD
ENDBRANCH  26  28
ENDBRANCH  21  26
ENDBRANCH   1  20
BRANCH  12  30
HETATM   30  O   UNL     1     -20.216 -13.520  -5.034  1.00  0.00    -0.358 OA
HETATM   31  H   UNL     1     -19.442 -13.589  -4.444  1.00  0.00     0.217 HD
ENDBRANCH  12  30
TORSDOF 4
ENDMDL
MODEL 5
REMARK VINA RESULT:      -6.4      2.303      5.568
REMARK  4 active torsions:
REMARK  status: ('A' for Active; 'I' for Inactive)
REMARK    1  A    between atoms: C_4  and  C_27 
REMARK    2  A    between atoms: C_5  and  C_7 
REMARK    3  A    between atoms: C_18  and  O_23 
REMARK    4  A    between atoms: C_27  and  O_29 
ROOT
HETATM    1  C   UNL     1     -18.527 -10.908  -1.111  1.00  0.00     0.001 C 
HETATM    2  C   UNL     1     -19.882 -10.913  -0.923  1.00  0.00     0.013 C 
HETATM    3  C   UNL     1     -20.763 -12.034  -1.252  1.00  0.00     0.038 C 
HETATM    4  C   UNL     1     -22.091 -11.908  -1.089  1.00  0.00     0.063 C 
HETATM    5  C   UNL     1     -22.657 -10.688  -0.398  1.00  0.00     0.209 C 
HETATM    6  O   UNL     1     -23.815 -10.662  -0.007  1.00  0.00    -0.285 OA
HETATM    7  C   UNL     1     -21.785  -9.467  -0.390  1.00  0.00     0.097 C 
HETATM    8  C   UNL     1     -20.587  -9.623  -0.962  1.00  0.00     0.108 C 
HETATM    9  O   UNL     1     -20.194  -8.747  -1.960  1.00  0.00    -0.306 OA
HETATM   10  C   UNL     1     -19.266  -9.263  -2.823  1.00  0.00     0.107 C 
HETATM   11  C   UNL     1     -19.454  -9.269  -4.201  1.00  0.00     0.080 C 
HETATM   12  C   UNL     1     -18.390  -9.629  -5.025  1.00  0.00     0.103 C 
HETATM   13  C   UNL     1     -17.142  -9.878  -4.450  1.00  0.00     0.046 C 
HETATM   14  C   UNL     1     -17.051 -10.100  -3.074  1.00  0.00     0.037 C 
HETATM   15  C   UNL     1     -18.187  -9.959  -2.274  1.00  0.00     0.013 C 
HETATM   16 BR   UNL     1     -15.581 -10.058  -5.506  1.00  0.00    -0.048 Br
HETATM   17 BR   UNL     1     -21.200  -9.058  -4.921  1.00  0.00    -0.045 Br
HETATM   18 BR   UNL     1     -22.576  -7.808  -0.073  1.00  0.00    -0.044 Br
HETATM   19 BR   UNL     1     -23.290 -13.067  -1.934  1.00  0.00    -0.047 Br
ENDROOT
BRANCH   1  20
HETATM   20  C   UNL     1     -17.569 -11.998  -0.689  1.00  0.00    -0.007 C 
HETATM   21  C   UNL     1     -17.433 -13.197  -1.434  1.00  0.00     0.048 C 
HETATM   22  C   UNL     1     -16.871 -14.350  -0.844  1.00  0.00     0.019 C 
HETATM   23  C   UNL     1     -16.252 -14.276   0.395  1.00  0.00     0.001 C 
HETATM   24  C   UNL     1     -16.164 -13.049   1.029  1.00  0.00     0.001 C 
HETATM   25  C   UNL     1     -16.823 -11.933   0.500  1.00  0.00     0.013 C 
BRANCH  21  26
HETATM   26  C   UNL     1     -17.787 -13.287  -2.882  1.00  0.00     0.177 C 
HETATM   27  O   UNL     1     -18.919 -13.280  -3.337  1.00  0.00    -0.646 OA
BRANCH  26  28
HETATM   28  O   UNL     1     -16.692 -13.313  -3.674  1.00  0.00    -0.773 OA
HETATM   29  H   UNL     1     -16.167 -12.490  -3.698  1.00  0.00     0.167 HD
ENDBRANCH  26  28
ENDBRANCH  21  26
ENDBRANCH   1  20
BRANCH  12  30
HETATM   30  O   UNL     1     -18.555  -9.807  -6.372  1.00  0.00    -0.358 OA
HETATM   31  H   UNL     1     -17.782 -10.298  -6.707  1.00  0.00     0.217 HD
ENDBRANCH  12  30
TORSDOF 4
ENDMDL
MODEL 6
REMARK VINA RESULT:      -6.4      2.232      4.644
REMARK  4 active torsions:
REMARK  status: ('A' for Active; 'I' for Inactive)
REMARK    1  A    between atoms: C_4  and  C_27 
REMARK    2  A    between atoms: C_5  and  C_7 
REMARK    3  A    between atoms: C_18  and  O_23 
REMARK    4  A    between atoms: C_27  and  O_29 
ROOT
HETATM    1  C   UNL     1     -20.278 -11.049  -0.084  1.00  0.00     0.001 C 
HETATM    2  C   UNL     1     -19.534 -10.996  -1.232  1.00  0.00     0.013 C 
HETATM    3  C   UNL     1     -20.068 -10.666  -2.554  1.00  0.00     0.038 C 
HETATM    4  C   UNL     1     -19.262 -10.707  -3.627  1.00  0.00     0.063 C 
HETATM    5  C   UNL     1     -17.774 -10.912  -3.450  1.00  0.00     0.209 C 
HETATM    6  O   UNL     1     -16.992 -10.698  -4.364  1.00  0.00    -0.285 OA
HETATM    7  C   UNL     1     -17.343 -11.560  -2.167  1.00  0.00     0.097 C 
HETATM    8  C   UNL     1     -18.333 -11.840  -1.313  1.00  0.00     0.108 C 
HETATM    9  O   UNL     1     -18.463 -13.129  -0.827  1.00  0.00    -0.306 OA
HETATM   10  C   UNL     1     -19.732 -13.451  -0.429  1.00  0.00     0.107 C 
HETATM   11  C   UNL     1     -20.402 -14.571  -0.911  1.00  0.00     0.080 C 
HETATM   12  C   UNL     1     -21.607 -14.942  -0.319  1.00  0.00     0.103 C 
HETATM   13  C   UNL     1     -22.056 -14.240   0.802  1.00  0.00     0.046 C 
HETATM   14  C   UNL     1     -21.498 -12.995   1.103  1.00  0.00     0.037 C 
HETATM   15  C   UNL     1     -20.423 -12.519   0.349  1.00  0.00     0.013 C 
HETATM   16 BR   UNL     1     -23.500 -14.868   1.853  1.00  0.00    -0.048 Br
HETATM   17 BR   UNL     1     -19.822 -15.403  -2.518  1.00  0.00    -0.045 Br
HETATM   18 BR   UNL     1     -15.651 -12.340  -2.087  1.00  0.00    -0.044 Br
HETATM   19 BR   UNL     1     -19.954 -10.793  -5.362  1.00  0.00    -0.047 Br
ENDROOT
BRANCH   1  20
HETATM   20  C   UNL     1     -21.252  -9.997   0.391  1.00  0.00    -0.007 C 
HETATM   21  C   UNL     1     -22.549  -9.876  -0.170  1.00  0.00     0.048 C 
HETATM   22  C   UNL     1     -23.286  -8.680  -0.029  1.00  0.00     0.019 C 
HETATM   23  C   UNL     1     -22.851  -7.683   0.833  1.00  0.00     0.001 C 
HETATM   24  C   UNL     1     -21.702  -7.893   1.576  1.00  0.00     0.001 C 
HETATM   25  C   UNL     1     -20.912  -9.026   1.349  1.00  0.00     0.013 C 
BRANCH  21  26
HETATM   26  C   UNL     1     -23.236 -11.012  -0.855  1.00  0.00     0.177 C 
HETATM   27  O   UNL     1     -22.962 -11.443  -1.963  1.00  0.00    -0.646 OA
BRANCH  26  28
HETATM   28  O   UNL     1     -24.183 -11.580  -0.075  1.00  0.00    -0.773 OA
HETATM   29  H   UNL     1     -23.889 -12.340   0.462  1.00  0.00     0.167 HD
ENDBRANCH  26  28
ENDBRANCH  21  26
ENDBRANCH   1  20
BRANCH  12  30
HETATM   30  O   UNL     1     -22.389 -15.933  -0.847  1.00  0.00    -0.358 OA
HETATM   31  H   UNL     1     -23.309 -15.611  -0.868  1.00  0.00     0.217 HD
ENDBRANCH  12  30
TORSDOF 4
ENDMDL
MODEL 7
REMARK VINA RESULT:      -6.3      3.007      5.861
REMARK  4 active torsions:
REMARK  status: ('A' for Active; 'I' for Inactive)
REMARK    1  A    between atoms: C_4  and  C_27 
REMARK    2  A    between atoms: C_5  and  C_7 
REMARK    3  A    between atoms: C_18  and  O_23 
REMARK    4  A    between atoms: C_27  and  O_29 
ROOT
HETATM    1  C   UNL     1     -19.942 -10.649  -3.769  1.00  0.00     0.001 C 
HETATM    2  C   UNL     1     -20.623 -10.996  -2.633  1.00  0.00     0.013 C 
HETATM    3  C   UNL     1     -21.999 -11.492  -2.609  1.00  0.00     0.038 C 
HETATM    4  C   UNL     1     -22.597 -11.741  -1.431  1.00  0.00     0.063 C 
HETATM    5  C   UNL     1     -21.797 -11.687  -0.149  1.00  0.00     0.209 C 
HETATM    6  O   UNL     1     -22.236 -12.153   0.892  1.00  0.00    -0.285 OA
HETATM    7  C   UNL     1     -20.535 -10.875  -0.190  1.00  0.00     0.097 C 
HETATM    8  C   UNL     1     -20.250 -10.331  -1.377  1.00  0.00     0.108 C 
HETATM    9  O   UNL     1     -20.016  -8.969  -1.458  1.00  0.00    -0.306 OA
HETATM   10  C   UNL     1     -20.265  -8.431  -2.692  1.00  0.00     0.107 C 
HETATM   11  C   UNL     1     -21.113  -7.345  -2.873  1.00  0.00     0.080 C 
HETATM   12  C   UNL     1     -21.166  -6.732  -4.122  1.00  0.00     0.103 C 
HETATM   13  C   UNL     1     -20.296  -7.162  -5.126  1.00  0.00     0.046 C 
HETATM   14  C   UNL     1     -19.645  -8.391  -4.991  1.00  0.00     0.037 C 
HETATM   15  C   UNL     1     -19.782  -9.119  -3.807  1.00  0.00     0.013 C 
HETATM   16 BR   UNL     1     -20.076  -6.188  -6.734  1.00  0.00    -0.048 Br
HETATM   17 BR   UNL     1     -22.371  -6.889  -1.523  1.00  0.00    -0.045 Br
HETATM   18 BR   UNL     1     -19.792 -10.301   1.422  1.00  0.00    -0.044 Br
HETATM   19 BR   UNL     1     -24.456 -11.885  -1.294  1.00  0.00    -0.047 Br
ENDROOT
BRANCH   1  20
HETATM   20  C   UNL     1     -19.841 -11.476  -5.030  1.00  0.00    -0.007 C 
HETATM   21  C   UNL     1     -18.588 -11.882  -5.553  1.00  0.00     0.048 C 
HETATM   22  C   UNL     1     -18.467 -12.284  -6.901  1.00  0.00     0.019 C 
HETATM   23  C   UNL     1     -19.598 -12.492  -7.678  1.00  0.00     0.001 C 
HETATM   24  C   UNL     1     -20.846 -12.331  -7.101  1.00  0.00     0.001 C 
HETATM   25  C   UNL     1     -20.963 -11.820  -5.803  1.00  0.00     0.013 C 
BRANCH  21  26
HETATM   26  C   UNL     1     -17.361 -11.992  -4.707  1.00  0.00     0.177 C 
HETATM   27  O   UNL     1     -17.106 -12.908  -3.944  1.00  0.00    -0.646 OA
BRANCH  26  28
HETATM   28  O   UNL     1     -16.499 -10.973  -4.925  1.00  0.00    -0.773 OA
HETATM   29  H   UNL     1     -16.728 -10.375  -5.662  1.00  0.00     0.167 HD
ENDBRANCH  26  28
ENDBRANCH  21  26
ENDBRANCH   1  20
BRANCH  12  30
HETATM   30  O   UNL     1     -22.092  -5.765  -4.407  1.00  0.00    -0.358 OA
HETATM   31  H   UNL     1     -22.385  -5.892  -5.329  1.00  0.00     0.217 HD
ENDBRANCH  12  30
TORSDOF 4
ENDMDL
MODEL 8
REMARK VINA RESULT:      -6.3      2.277      4.194
REMARK  4 active torsions:
REMARK  status: ('A' for Active; 'I' for Inactive)
REMARK    1  A    between atoms: C_4  and  C_27 
REMARK    2  A    between atoms: C_5  and  C_7 
REMARK    3  A    between atoms: C_18  and  O_23 
REMARK    4  A    between atoms: C_27  and  O_29 
ROOT
HETATM    1  C   UNL     1     -20.096 -11.111  -0.543  1.00  0.00     0.001 C 
HETATM    2  C   UNL     1     -18.895 -11.095  -1.199  1.00  0.00     0.013 C 
HETATM    3  C   UNL     1     -18.679 -10.510  -2.523  1.00  0.00     0.038 C 
HETATM    4  C   UNL     1     -17.473 -10.608  -3.106  1.00  0.00     0.063 C 
HETATM    5  C   UNL     1     -16.297 -11.154  -2.328  1.00  0.00     0.209 C 
HETATM    6  O   UNL     1     -15.152 -11.019  -2.732  1.00  0.00    -0.285 OA
HETATM    7  C   UNL     1     -16.629 -12.021  -1.148  1.00  0.00     0.097 C 
HETATM    8  C   UNL     1     -17.935 -12.169  -0.904  1.00  0.00     0.108 C 
HETATM    9  O   UNL     1     -18.464 -13.443  -0.799  1.00  0.00    -0.306 OA
HETATM   10  C   UNL     1     -19.800 -13.520  -1.085  1.00  0.00     0.107 C 
HETATM   11  C   UNL     1     -20.310 -14.403  -2.030  1.00  0.00     0.080 C 
HETATM   12  C   UNL     1     -21.690 -14.563  -2.128  1.00  0.00     0.103 C 
HETATM   13  C   UNL     1     -22.515 -13.909  -1.211  1.00  0.00     0.046 C 
HETATM   14  C   UNL     1     -21.998 -12.859  -0.448  1.00  0.00     0.037 C 
HETATM   15  C   UNL     1     -20.638 -12.551  -0.528  1.00  0.00     0.013 C 
HETATM   16 BR   UNL     1     -24.358 -14.316  -1.068  1.00  0.00    -0.048 Br
HETATM   17 BR   UNL     1     -19.158 -15.159  -3.339  1.00  0.00    -0.045 Br
HETATM   18 BR   UNL     1     -15.312 -13.160  -0.479  1.00  0.00    -0.044 Br
HETATM   19 BR   UNL     1     -17.256 -10.345  -4.944  1.00  0.00    -0.047 Br
ENDROOT
BRANCH   1  20
HETATM   20  C   UNL     1     -21.017  -9.929  -0.351  1.00  0.00    -0.007 C 
HETATM   21  C   UNL     1     -21.651  -9.295  -1.450  1.00  0.00     0.048 C 
HETATM   22  C   UNL     1     -22.163  -7.985  -1.328  1.00  0.00     0.019 C 
HETATM   23  C   UNL     1     -22.247  -7.376  -0.084  1.00  0.00     0.001 C 
HETATM   24  C   UNL     1     -21.853  -8.084   1.038  1.00  0.00     0.001 C 
HETATM   25  C   UNL     1     -21.237  -9.334   0.902  1.00  0.00     0.013 C 
BRANCH  21  26
HETATM   26  C   UNL     1     -21.889  -9.991  -2.751  1.00  0.00     0.177 C 
HETATM   27  O   UNL     1     -22.621 -10.952  -2.917  1.00  0.00    -0.646 OA
BRANCH  26  28
HETATM   28  O   UNL     1     -21.243  -9.391  -3.775  1.00  0.00    -0.773 OA
HETATM   29  H   UNL     1     -21.405  -9.773  -4.660  1.00  0.00     0.167 HD
ENDBRANCH  26  28
ENDBRANCH  21  26
ENDBRANCH   1  20
BRANCH  12  30
HETATM   30  O   UNL     1     -22.256 -15.292  -3.139  1.00  0.00    -0.358 OA
HETATM   31  H   UNL     1     -23.104 -15.648  -2.814  1.00  0.00     0.217 HD
ENDBRANCH  12  30
TORSDOF 4
ENDMDL
MODEL 9
REMARK VINA RESULT:      -6.3      2.450      4.596
REMARK  4 active torsions:
REMARK  status: ('A' for Active; 'I' for Inactive)
REMARK    1  A    between atoms: C_4  and  C_27 
REMARK    2  A    between atoms: C_5  and  C_7 
REMARK    3  A    between atoms: C_18  and  O_23 
REMARK    4  A    between atoms: C_27  and  O_29 
ROOT
HETATM    1  C   UNL     1     -21.203 -10.467  -3.021  1.00  0.00     0.001 C 
HETATM    2  C   UNL     1     -21.944 -11.504  -2.521  1.00  0.00     0.013 C 
HETATM    3  C   UNL     1     -22.403 -11.605  -1.135  1.00  0.00     0.038 C 
HETATM    4  C   UNL     1     -23.070 -12.700  -0.732  1.00  0.00     0.063 C 
HETATM    5  C   UNL     1     -23.505 -13.736  -1.743  1.00  0.00     0.209 C 
HETATM    6  O   UNL     1     -24.323 -14.597  -1.455  1.00  0.00    -0.285 OA
HETATM    7  C   UNL     1     -22.747 -13.758  -3.038  1.00  0.00     0.097 C 
HETATM    8  C   UNL     1     -21.800 -12.822  -3.155  1.00  0.00     0.108 C 
HETATM    9  O   UNL     1     -20.508 -13.202  -3.477  1.00  0.00    -0.306 OA
HETATM   10  C   UNL     1     -19.547 -12.322  -3.061  1.00  0.00     0.107 C 
HETATM   11  C   UNL     1     -18.465 -12.715  -2.281  1.00  0.00     0.080 C 
HETATM   12  C   UNL     1     -17.429 -11.810  -2.061  1.00  0.00     0.103 C 
HETATM   13  C   UNL     1     -17.459 -10.574  -2.709  1.00  0.00     0.046 C 
HETATM   14  C   UNL     1     -18.654 -10.124  -3.277  1.00  0.00     0.037 C 
HETATM   15  C   UNL     1     -19.771 -10.963  -3.290  1.00  0.00     0.013 C 
HETATM   16 BR   UNL     1     -15.956  -9.423  -2.723  1.00  0.00    -0.048 Br
HETATM   17 BR   UNL     1     -18.538 -14.349  -1.314  1.00  0.00    -0.045 Br
HETATM   18 BR   UNL     1     -22.823 -15.297  -4.089  1.00  0.00    -0.044 Br
HETATM   19 BR   UNL     1     -23.241 -13.123   1.081  1.00  0.00    -0.047 Br
ENDROOT
BRANCH   1  20
HETATM   20  C   UNL     1     -21.499  -8.997  -2.838  1.00  0.00    -0.007 C 
HETATM   21  C   UNL     1     -21.147  -8.041  -3.824  1.00  0.00     0.048 C 
HETATM   22  C   UNL     1     -21.047  -6.671  -3.495  1.00  0.00     0.019 C 
HETATM   23  C   UNL     1     -21.493  -6.209  -2.265  1.00  0.00     0.001 C 
HETATM   24  C   UNL     1     -22.067  -7.104  -1.380  1.00  0.00     0.001 C 
HETATM   25  C   UNL     1     -22.058  -8.476  -1.659  1.00  0.00     0.013 C 
BRANCH  21  26
HETATM   26  C   UNL     1     -20.950  -8.403  -5.260  1.00  0.00     0.177 C 
HETATM   27  O   UNL     1     -21.701  -9.096  -5.926  1.00  0.00    -0.646 OA
BRANCH  26  28
HETATM   28  O   UNL     1     -19.854  -7.815  -5.789  1.00  0.00    -0.773 OA
HETATM   29  H   UNL     1     -19.942  -6.865  -5.998  1.00  0.00     0.167 HD
ENDBRANCH  26  28
ENDBRANCH  21  26
ENDBRANCH   1  20
BRANCH  12  30
HETATM   30  O   UNL     1     -16.419 -12.079  -1.177  1.00  0.00    -0.358 OA
HETATM   31  H   UNL     1     -15.579 -12.082  -1.673  1.00  0.00     0.217 HD
ENDBRANCH  12  30
TORSDOF 4
ENDMDL
