MODEL 1
REMARK VINA RESULT:      -7.0      0.000      0.000
REMARK  17 active torsions:
REMARK  status: ('A' for Active; 'I' for Inactive)
REMARK    1  A    between atoms: C_2  and  C_3 
REMARK    2  A    between atoms: C_3  and  C_4 
REMARK    3  A    between atoms: C_4  and  C_5 
REMARK    4  A    between atoms: C_5  and  C_6 
REMARK    5  A    between atoms: C_6  and  C_7 
REMARK    6  A    between atoms: C_7  and  C_8 
REMARK    7  A    between atoms: C_7  and  O_22 
REMARK    8  A    between atoms: C_8  and  C_9 
REMARK    9  A    between atoms: C_10  and  C_11 
REMARK   10  A    between atoms: C_11  and  C_12 
REMARK   11  A    between atoms: C_12  and  C_13 
REMARK   12  A    between atoms: C_13  and  C_14 
REMARK   13  A    between atoms: C_14  and  C_15 
REMARK   14  A    between atoms: C_15  and  C_16 
REMARK   15  A    between atoms: C_16  and  C_17 
REMARK   16  A    between atoms: C_17  and  C_18 
REMARK   17  A    between atoms: C_18  and  O_20 
ROOT
HETATM    1  C   UNL     1     -21.307  -6.256  -4.240  1.00  0.00    -0.028 C 
HETATM    2  C   UNL     1     -21.878  -6.312  -5.454  1.00  0.00    -0.031 C 
ENDROOT
BRANCH   2   3
HETATM    3  C   UNL     1     -21.487  -5.412  -6.591  1.00  0.00     0.027 C 
BRANCH   3   4
HETATM    4  C   UNL     1     -19.973  -5.263  -6.719  1.00  0.00     0.004 C 
BRANCH   4   5
HETATM    5  C   UNL     1     -19.616  -4.435  -7.956  1.00  0.00     0.000 C 
BRANCH   5   6
HETATM    6  C   UNL     1     -20.746  -4.483  -8.978  1.00  0.00     0.000 C 
BRANCH   6   7
HETATM    7  C   UNL     1     -20.221  -4.443 -10.412  1.00  0.00     0.000 C 
BRANCH   7   8
HETATM    8  C   UNL     1     -21.367  -4.141 -11.375  1.00  0.00     0.010 C 
BRANCH   8   9
HETATM    9  C   UNL     1     -22.687  -3.906 -10.649  1.00  0.00     0.111 C 
BRANCH   9  10
HETATM   10  C   UNL     1     -23.638  -3.115 -11.520  1.00  0.00     0.258 C 
HETATM   11  O   UNL     1     -23.322  -2.470 -12.508  1.00  0.00    -0.265 OA
BRANCH  10  12
HETATM   12  O   UNL     1     -24.907  -3.228 -11.035  1.00  0.00    -0.326 OA
HETATM   13  C   UNL     1     -24.967  -3.253  -9.609  1.00  0.00     0.213 C 
ENDBRANCH  10  12
ENDBRANCH   9  10
ENDBRANCH   8   9
ENDBRANCH   7   8
ENDBRANCH   6   7
ENDBRANCH   5   6
ENDBRANCH   4   5
ENDBRANCH   3   4
ENDBRANCH   2   3
BRANCH   1  14
HETATM   14  C   UNL     1     -21.546  -7.263  -3.145  1.00  0.00     0.058 C 
BRANCH  14  15
HETATM   15  C   UNL     1     -21.724  -6.681  -1.732  1.00  0.00     0.121 C 
BRANCH  15  16
HETATM   16  C   UNL     1     -22.445  -7.590  -0.729  1.00  0.00     0.032 C 
BRANCH  16  17
HETATM   17  C   UNL     1     -21.541  -8.515   0.085  1.00  0.00     0.002 C 
BRANCH  17  18
HETATM   18  C   UNL     1     -21.983  -9.982   0.090  1.00  0.00     0.000 C 
BRANCH  18  19
HETATM   19  C   UNL     1     -23.494 -10.072  -0.139  1.00  0.00    -0.000 C 
BRANCH  19  20
HETATM   20  C   UNL     1     -23.929 -11.463  -0.588  1.00  0.00    -0.005 C 
HETATM   21  C   UNL     1     -23.535 -12.509   0.443  1.00  0.00     0.005 C 
ENDBRANCH  19  20
ENDBRANCH  18  19
ENDBRANCH  17  18
ENDBRANCH  16  17
ENDBRANCH  15  16
BRANCH  15  22
HETATM   22  O   UNL     1     -22.415  -5.429  -1.802  1.00  0.00    -0.395 OA
HETATM   23  H   UNL     1     -21.870  -4.827  -2.339  1.00  0.00     0.210 HD
ENDBRANCH  15  22
ENDBRANCH  14  15
ENDBRANCH   1  14
TORSDOF 17
ENDMDL
MODEL 2
REMARK VINA RESULT:      -7.0      1.555      2.318
REMARK  17 active torsions:
REMARK  status: ('A' for Active; 'I' for Inactive)
REMARK    1  A    between atoms: C_2  and  C_3 
REMARK    2  A    between atoms: C_3  and  C_4 
REMARK    3  A    between atoms: C_4  and  C_5 
REMARK    4  A    between atoms: C_5  and  C_6 
REMARK    5  A    between atoms: C_6  and  C_7 
REMARK    6  A    between atoms: C_7  and  C_8 
REMARK    7  A    between atoms: C_7  and  O_22 
REMARK    8  A    between atoms: C_8  and  C_9 
REMARK    9  A    between atoms: C_10  and  C_11 
REMARK   10  A    between atoms: C_11  and  C_12 
REMARK   11  A    between atoms: C_12  and  C_13 
REMARK   12  A    between atoms: C_13  and  C_14 
REMARK   13  A    between atoms: C_14  and  C_15 
REMARK   14  A    between atoms: C_15  and  C_16 
REMARK   15  A    between atoms: C_16  and  C_17 
REMARK   16  A    between atoms: C_17  and  C_18 
REMARK   17  A    between atoms: C_18  and  O_20 
ROOT
HETATM    1  C   UNL     1     -21.399  -5.706  -5.109  1.00  0.00    -0.028 C 
HETATM    2  C   UNL     1     -20.323  -5.608  -5.905  1.00  0.00    -0.031 C 
ENDROOT
BRANCH   2   3
HETATM    3  C   UNL     1     -20.030  -4.401  -6.750  1.00  0.00     0.027 C 
BRANCH   3   4
HETATM    4  C   UNL     1     -21.289  -3.815  -7.382  1.00  0.00     0.004 C 
BRANCH   4   5
HETATM    5  C   UNL     1     -21.635  -4.552  -8.678  1.00  0.00     0.000 C 
BRANCH   5   6
HETATM    6  C   UNL     1     -20.415  -4.638  -9.588  1.00  0.00     0.000 C 
BRANCH   6   7
HETATM    7  C   UNL     1     -20.555  -3.742 -10.818  1.00  0.00     0.000 C 
BRANCH   7   8
HETATM    8  C   UNL     1     -21.914  -3.977 -11.475  1.00  0.00     0.010 C 
BRANCH   8   9
HETATM    9  C   UNL     1     -22.237  -2.924 -12.530  1.00  0.00     0.111 C 
BRANCH   9  10
HETATM   10  C   UNL     1     -23.728  -2.860 -12.776  1.00  0.00     0.258 C 
HETATM   11  O   UNL     1     -24.588  -2.853 -11.909  1.00  0.00    -0.265 OA
BRANCH  10  12
HETATM   12  O   UNL     1     -23.971  -2.810 -14.116  1.00  0.00    -0.326 OA
HETATM   13  C   UNL     1     -23.787  -1.510 -14.676  1.00  0.00     0.213 C 
ENDBRANCH  10  12
ENDBRANCH   9  10
ENDBRANCH   8   9
ENDBRANCH   7   8
ENDBRANCH   6   7
ENDBRANCH   5   6
ENDBRANCH   4   5
ENDBRANCH   3   4
ENDBRANCH   2   3
BRANCH   1  14
HETATM   14  C   UNL     1     -21.619  -6.817  -4.115  1.00  0.00     0.058 C 
BRANCH  14  15
HETATM   15  C   UNL     1     -21.417  -6.438  -2.637  1.00  0.00     0.121 C 
BRANCH  15  16
HETATM   16  C   UNL     1     -20.959  -7.578  -1.720  1.00  0.00     0.032 C 
BRANCH  16  17
HETATM   17  C   UNL     1     -21.824  -8.837  -1.756  1.00  0.00     0.002 C 
BRANCH  17  18
HETATM   18  C   UNL     1     -22.448  -9.212  -0.408  1.00  0.00     0.000 C 
BRANCH  18  19
HETATM   19  C   UNL     1     -21.991  -8.226   0.669  1.00  0.00    -0.000 C 
BRANCH  19  20
HETATM   20  C   UNL     1     -20.887  -8.803   1.550  1.00  0.00    -0.005 C 
HETATM   21  C   UNL     1     -20.673 -10.279   1.248  1.00  0.00     0.005 C 
ENDBRANCH  19  20
ENDBRANCH  18  19
ENDBRANCH  17  18
ENDBRANCH  16  17
ENDBRANCH  15  16
BRANCH  15  22
HETATM   22  O   UNL     1     -22.620  -5.872  -2.108  1.00  0.00    -0.395 OA
HETATM   23  H   UNL     1     -22.753  -6.251  -1.221  1.00  0.00     0.210 HD
ENDBRANCH  15  22
ENDBRANCH  14  15
ENDBRANCH   1  14
TORSDOF 17
ENDMDL
MODEL 3
REMARK VINA RESULT:      -6.7      1.189      1.697
REMARK  17 active torsions:
REMARK  status: ('A' for Active; 'I' for Inactive)
REMARK    1  A    between atoms: C_2  and  C_3 
REMARK    2  A    between atoms: C_3  and  C_4 
REMARK    3  A    between atoms: C_4  and  C_5 
REMARK    4  A    between atoms: C_5  and  C_6 
REMARK    5  A    between atoms: C_6  and  C_7 
REMARK    6  A    between atoms: C_7  and  C_8 
REMARK    7  A    between atoms: C_7  and  O_22 
REMARK    8  A    between atoms: C_8  and  C_9 
REMARK    9  A    between atoms: C_10  and  C_11 
REMARK   10  A    between atoms: C_11  and  C_12 
REMARK   11  A    between atoms: C_12  and  C_13 
REMARK   12  A    between atoms: C_13  and  C_14 
REMARK   13  A    between atoms: C_14  and  C_15 
REMARK   14  A    between atoms: C_15  and  C_16 
REMARK   15  A    between atoms: C_16  and  C_17 
REMARK   16  A    between atoms: C_17  and  C_18 
REMARK   17  A    between atoms: C_18  and  O_20 
ROOT
HETATM    1  C   UNL     1     -21.603  -7.200  -4.419  1.00  0.00    -0.028 C 
HETATM    2  C   UNL     1     -20.439  -7.082  -5.077  1.00  0.00    -0.031 C 
ENDROOT
BRANCH   2   3
HETATM    3  C   UNL     1     -20.283  -6.286  -6.341  1.00  0.00     0.027 C 
BRANCH   3   4
HETATM    4  C   UNL     1     -20.634  -4.813  -6.147  1.00  0.00     0.004 C 
BRANCH   4   5
HETATM    5  C   UNL     1     -21.652  -4.359  -7.195  1.00  0.00     0.000 C 
BRANCH   5   6
HETATM    6  C   UNL     1     -21.214  -4.791  -8.590  1.00  0.00     0.000 C 
BRANCH   6   7
HETATM    7  C   UNL     1     -21.561  -3.743  -9.647  1.00  0.00     0.000 C 
BRANCH   7   8
HETATM    8  C   UNL     1     -22.538  -4.335 -10.660  1.00  0.00     0.010 C 
BRANCH   8   9
HETATM    9  C   UNL     1     -22.630  -3.501 -11.933  1.00  0.00     0.111 C 
BRANCH   9  10
HETATM   10  C   UNL     1     -24.075  -3.294 -12.329  1.00  0.00     0.258 C 
HETATM   11  O   UNL     1     -24.997  -3.083 -11.556  1.00  0.00    -0.265 OA
BRANCH  10  12
HETATM   12  O   UNL     1     -24.196  -3.380 -13.684  1.00  0.00    -0.326 OA
HETATM   13  C   UNL     1     -23.141  -2.725 -14.388  1.00  0.00     0.213 C 
ENDBRANCH  10  12
ENDBRANCH   9  10
ENDBRANCH   8   9
ENDBRANCH   7   8
ENDBRANCH   6   7
ENDBRANCH   5   6
ENDBRANCH   4   5
ENDBRANCH   3   4
ENDBRANCH   2   3
BRANCH   1  14
HETATM   14  C   UNL     1     -21.747  -7.832  -3.058  1.00  0.00     0.058 C 
BRANCH  14  15
HETATM   15  C   UNL     1     -21.698  -6.861  -1.865  1.00  0.00     0.121 C 
BRANCH  15  16
HETATM   16  C   UNL     1     -22.570  -7.248  -0.664  1.00  0.00     0.032 C 
BRANCH  16  17
HETATM   17  C   UNL     1     -22.209  -8.572   0.009  1.00  0.00     0.002 C 
BRANCH  17  18
HETATM   18  C   UNL     1     -23.400  -9.510   0.229  1.00  0.00     0.000 C 
BRANCH  18  19
HETATM   19  C   UNL     1     -23.408 -10.602  -0.843  1.00  0.00    -0.000 C 
BRANCH  19  20
HETATM   20  C   UNL     1     -23.791 -11.966  -0.276  1.00  0.00    -0.005 C 
HETATM   21  C   UNL     1     -22.675 -12.519   0.596  1.00  0.00     0.005 C 
ENDBRANCH  19  20
ENDBRANCH  18  19
ENDBRANCH  17  18
ENDBRANCH  16  17
ENDBRANCH  15  16
BRANCH  15  22
HETATM   22  O   UNL     1     -22.056  -5.543  -2.291  1.00  0.00    -0.395 OA
HETATM   23  H   UNL     1     -22.295  -5.598  -3.233  1.00  0.00     0.210 HD
ENDBRANCH  15  22
ENDBRANCH  14  15
ENDBRANCH   1  14
TORSDOF 17
ENDMDL
MODEL 4
REMARK VINA RESULT:      -6.5      2.025     10.916
REMARK  17 active torsions:
REMARK  status: ('A' for Active; 'I' for Inactive)
REMARK    1  A    between atoms: C_2  and  C_3 
REMARK    2  A    between atoms: C_3  and  C_4 
REMARK    3  A    between atoms: C_4  and  C_5 
REMARK    4  A    between atoms: C_5  and  C_6 
REMARK    5  A    between atoms: C_6  and  C_7 
REMARK    6  A    between atoms: C_7  and  C_8 
REMARK    7  A    between atoms: C_7  and  O_22 
REMARK    8  A    between atoms: C_8  and  C_9 
REMARK    9  A    between atoms: C_10  and  C_11 
REMARK   10  A    between atoms: C_11  and  C_12 
REMARK   11  A    between atoms: C_12  and  C_13 
REMARK   12  A    between atoms: C_13  and  C_14 
REMARK   13  A    between atoms: C_14  and  C_15 
REMARK   14  A    between atoms: C_15  and  C_16 
REMARK   15  A    between atoms: C_16  and  C_17 
REMARK   16  A    between atoms: C_17  and  C_18 
REMARK   17  A    between atoms: C_18  and  O_20 
ROOT
HETATM    1  C   UNL     1     -20.500  -4.963  -7.954  1.00  0.00    -0.028 C 
HETATM    2  C   UNL     1     -19.875  -4.770  -6.782  1.00  0.00    -0.031 C 
ENDROOT
BRANCH   2   3
HETATM    3  C   UNL     1     -20.486  -5.117  -5.455  1.00  0.00     0.027 C 
BRANCH   3   4
HETATM    4  C   UNL     1     -21.811  -5.859  -5.602  1.00  0.00     0.004 C 
BRANCH   4   5
HETATM    5  C   UNL     1     -21.969  -6.904  -4.495  1.00  0.00     0.000 C 
BRANCH   5   6
HETATM    6  C   UNL     1     -21.337  -6.412  -3.198  1.00  0.00     0.000 C 
BRANCH   6   7
HETATM    7  C   UNL     1     -21.508  -7.418  -2.061  1.00  0.00     0.000 C 
BRANCH   7   8
HETATM    8  C   UNL     1     -22.317  -6.787  -0.930  1.00  0.00     0.010 C 
BRANCH   8   9
HETATM    9  C   UNL     1     -22.927  -7.831  -0.001  1.00  0.00     0.111 C 
BRANCH   9  10
HETATM   10  C   UNL     1     -21.853  -8.740   0.553  1.00  0.00     0.258 C 
HETATM   11  O   UNL     1     -20.988  -8.409   1.350  1.00  0.00    -0.265 OA
BRANCH  10  12
HETATM   12  O   UNL     1     -21.994  -9.990   0.030  1.00  0.00    -0.326 OA
HETATM   13  C   UNL     1     -23.353 -10.348  -0.220  1.00  0.00     0.213 C 
ENDBRANCH  10  12
ENDBRANCH   9  10
ENDBRANCH   8   9
ENDBRANCH   7   8
ENDBRANCH   6   7
ENDBRANCH   5   6
ENDBRANCH   4   5
ENDBRANCH   3   4
ENDBRANCH   2   3
BRANCH   1  14
HETATM   14  C   UNL     1     -19.844  -4.800  -9.301  1.00  0.00     0.058 C 
BRANCH  14  15
HETATM   15  C   UNL     1     -20.568  -3.865 -10.286  1.00  0.00     0.121 C 
BRANCH  15  16
HETATM   16  C   UNL     1     -22.088  -4.047 -10.373  1.00  0.00     0.032 C 
BRANCH  16  17
HETATM   17  C   UNL     1     -22.854  -2.879 -10.993  1.00  0.00     0.002 C 
BRANCH  17  18
HETATM   18  C   UNL     1     -24.277  -3.228 -11.443  1.00  0.00     0.000 C 
BRANCH  18  19
HETATM   19  C   UNL     1     -24.302  -3.462 -12.955  1.00  0.00    -0.000 C 
BRANCH  19  20
HETATM   20  C   UNL     1     -23.722  -2.284 -13.732  1.00  0.00    -0.005 C 
HETATM   21  C   UNL     1     -22.722  -2.766 -14.772  1.00  0.00     0.005 C 
ENDBRANCH  19  20
ENDBRANCH  18  19
ENDBRANCH  17  18
ENDBRANCH  16  17
ENDBRANCH  15  16
BRANCH  15  22
HETATM   22  O   UNL     1     -20.009  -4.006 -11.595  1.00  0.00    -0.395 OA
HETATM   23  H   UNL     1     -20.371  -4.823 -11.979  1.00  0.00     0.210 HD
ENDBRANCH  15  22
ENDBRANCH  14  15
ENDBRANCH   1  14
TORSDOF 17
ENDMDL
MODEL 5
REMARK VINA RESULT:      -6.4      2.075      9.651
REMARK  17 active torsions:
REMARK  status: ('A' for Active; 'I' for Inactive)
REMARK    1  A    between atoms: C_2  and  C_3 
REMARK    2  A    between atoms: C_3  and  C_4 
REMARK    3  A    between atoms: C_4  and  C_5 
REMARK    4  A    between atoms: C_5  and  C_6 
REMARK    5  A    between atoms: C_6  and  C_7 
REMARK    6  A    between atoms: C_7  and  C_8 
REMARK    7  A    between atoms: C_7  and  O_22 
REMARK    8  A    between atoms: C_8  and  C_9 
REMARK    9  A    between atoms: C_10  and  C_11 
REMARK   10  A    between atoms: C_11  and  C_12 
REMARK   11  A    between atoms: C_12  and  C_13 
REMARK   12  A    between atoms: C_13  and  C_14 
REMARK   13  A    between atoms: C_14  and  C_15 
REMARK   14  A    between atoms: C_15  and  C_16 
REMARK   15  A    between atoms: C_16  and  C_17 
REMARK   16  A    between atoms: C_17  and  C_18 
REMARK   17  A    between atoms: C_18  and  O_20 
ROOT
HETATM    1  C   UNL     1     -20.255  -4.845  -8.975  1.00  0.00    -0.028 C 
HETATM    2  C   UNL     1     -19.443  -4.377  -8.014  1.00  0.00    -0.031 C 
ENDROOT
BRANCH   2   3
HETATM    3  C   UNL     1     -19.542  -4.796  -6.575  1.00  0.00     0.027 C 
BRANCH   3   4
HETATM    4  C   UNL     1     -20.942  -4.588  -6.004  1.00  0.00     0.004 C 
BRANCH   4   5
HETATM    5  C   UNL     1     -21.492  -5.899  -5.437  1.00  0.00     0.000 C 
BRANCH   5   6
HETATM    6  C   UNL     1     -20.375  -6.923  -5.271  1.00  0.00     0.000 C 
BRANCH   6   7
HETATM    7  C   UNL     1     -20.919  -8.341  -5.114  1.00  0.00     0.000 C 
BRANCH   7   8
HETATM    8  C   UNL     1     -21.688  -8.458  -3.799  1.00  0.00     0.010 C 
BRANCH   8   9
HETATM    9  C   UNL     1     -20.928  -7.846  -2.627  1.00  0.00     0.111 C 
BRANCH   9  10
HETATM   10  C   UNL     1     -21.834  -6.942  -1.822  1.00  0.00     0.258 C 
HETATM   11  O   UNL     1     -22.452  -5.985  -2.262  1.00  0.00    -0.265 OA
BRANCH  10  12
HETATM   12  O   UNL     1     -21.858  -7.356  -0.523  1.00  0.00    -0.326 OA
HETATM   13  C   UNL     1     -21.203  -8.607  -0.316  1.00  0.00     0.213 C 
ENDBRANCH  10  12
ENDBRANCH   9  10
ENDBRANCH   8   9
ENDBRANCH   7   8
ENDBRANCH   6   7
ENDBRANCH   5   6
ENDBRANCH   4   5
ENDBRANCH   3   4
ENDBRANCH   2   3
BRANCH   1  14
HETATM   14  C   UNL     1     -20.061  -4.588 -10.447  1.00  0.00     0.058 C 
BRANCH  14  15
HETATM   15  C   UNL     1     -20.937  -3.476 -11.051  1.00  0.00     0.121 C 
BRANCH  15  16
HETATM   16  C   UNL     1     -21.877  -3.916 -12.180  1.00  0.00     0.032 C 
BRANCH  16  17
HETATM   17  C   UNL     1     -22.867  -2.856 -12.659  1.00  0.00     0.002 C 
BRANCH  17  18
HETATM   18  C   UNL     1     -24.301  -3.062 -12.158  1.00  0.00     0.000 C 
BRANCH  18  19
HETATM   19  C   UNL     1     -24.305  -4.037 -10.979  1.00  0.00    -0.000 C 
BRANCH  19  20
HETATM   20  C   UNL     1     -24.463  -3.323  -9.640  1.00  0.00    -0.005 C 
HETATM   21  C   UNL     1     -23.628  -4.003  -8.565  1.00  0.00     0.005 C 
ENDBRANCH  19  20
ENDBRANCH  18  19
ENDBRANCH  17  18
ENDBRANCH  16  17
ENDBRANCH  15  16
BRANCH  15  22
HETATM   22  O   UNL     1     -20.112  -2.407 -11.524  1.00  0.00    -0.395 OA
HETATM   23  H   UNL     1     -20.273  -2.319 -12.480  1.00  0.00     0.210 HD
ENDBRANCH  15  22
ENDBRANCH  14  15
ENDBRANCH   1  14
TORSDOF 17
ENDMDL
MODEL 6
REMARK VINA RESULT:      -6.4      2.429     10.213
REMARK  17 active torsions:
REMARK  status: ('A' for Active; 'I' for Inactive)
REMARK    1  A    between atoms: C_2  and  C_3 
REMARK    2  A    between atoms: C_3  and  C_4 
REMARK    3  A    between atoms: C_4  and  C_5 
REMARK    4  A    between atoms: C_5  and  C_6 
REMARK    5  A    between atoms: C_6  and  C_7 
REMARK    6  A    between atoms: C_7  and  C_8 
REMARK    7  A    between atoms: C_7  and  O_22 
REMARK    8  A    between atoms: C_8  and  C_9 
REMARK    9  A    between atoms: C_10  and  C_11 
REMARK   10  A    between atoms: C_11  and  C_12 
REMARK   11  A    between atoms: C_12  and  C_13 
REMARK   12  A    between atoms: C_13  and  C_14 
REMARK   13  A    between atoms: C_14  and  C_15 
REMARK   14  A    between atoms: C_15  and  C_16 
REMARK   15  A    between atoms: C_16  and  C_17 
REMARK   16  A    between atoms: C_17  and  C_18 
REMARK   17  A    between atoms: C_18  and  O_20 
ROOT
HETATM    1  C   UNL     1     -20.659  -5.523  -5.231  1.00  0.00    -0.028 C 
HETATM    2  C   UNL     1     -20.994  -6.821  -5.307  1.00  0.00    -0.031 C 
ENDROOT
BRANCH   2   3
HETATM    3  C   UNL     1     -21.599  -7.584  -4.164  1.00  0.00     0.027 C 
BRANCH   3   4
HETATM    4  C   UNL     1     -21.713  -6.741  -2.898  1.00  0.00     0.004 C 
BRANCH   4   5
HETATM    5  C   UNL     1     -21.615  -7.623  -1.651  1.00  0.00     0.000 C 
BRANCH   5   6
HETATM    6  C   UNL     1     -22.456  -7.046  -0.518  1.00  0.00     0.000 C 
BRANCH   6   7
HETATM    7  C   UNL     1     -23.048  -8.141   0.368  1.00  0.00     0.000 C 
BRANCH   7   8
HETATM    8  C   UNL     1     -22.675  -9.514  -0.188  1.00  0.00     0.010 C 
BRANCH   8   9
HETATM    9  C   UNL     1     -23.829 -10.507  -0.102  1.00  0.00     0.111 C 
BRANCH   9  10
HETATM   10  C   UNL     1     -23.725 -11.536  -1.204  1.00  0.00     0.258 C 
HETATM   11  O   UNL     1     -24.126 -12.689  -1.137  1.00  0.00    -0.265 OA
BRANCH  10  12
HETATM   12  O   UNL     1     -23.115 -10.985  -2.291  1.00  0.00    -0.326 OA
HETATM   13  C   UNL     1     -22.576 -11.956  -3.189  1.00  0.00     0.213 C 
ENDBRANCH  10  12
ENDBRANCH   9  10
ENDBRANCH   8   9
ENDBRANCH   7   8
ENDBRANCH   6   7
ENDBRANCH   5   6
ENDBRANCH   4   5
ENDBRANCH   3   4
ENDBRANCH   2   3
BRANCH   1  14
HETATM   14  C   UNL     1     -20.229  -4.688  -6.410  1.00  0.00     0.058 C 
BRANCH  14  15
HETATM   15  C   UNL     1     -21.045  -4.886  -7.699  1.00  0.00     0.121 C 
BRANCH  15  16
HETATM   16  C   UNL     1     -20.241  -4.833  -9.004  1.00  0.00     0.032 C 
BRANCH  16  17
HETATM   17  C   UNL     1     -20.581  -3.672  -9.938  1.00  0.00     0.002 C 
BRANCH  17  18
HETATM   18  C   UNL     1     -21.041  -4.101 -11.335  1.00  0.00     0.000 C 
BRANCH  18  19
HETATM   19  C   UNL     1     -22.519  -4.495 -11.298  1.00  0.00    -0.000 C 
BRANCH  19  20
HETATM   20  C   UNL     1     -23.440  -3.279 -11.270  1.00  0.00    -0.005 C 
HETATM   21  C   UNL     1     -24.506  -3.435 -10.196  1.00  0.00     0.005 C 
ENDBRANCH  19  20
ENDBRANCH  18  19
ENDBRANCH  17  18
ENDBRANCH  16  17
ENDBRANCH  15  16
BRANCH  15  22
HETATM   22  O   UNL     1     -22.098  -3.918  -7.764  1.00  0.00    -0.395 OA
HETATM   23  H   UNL     1     -22.930  -4.382  -7.566  1.00  0.00     0.210 HD
ENDBRANCH  15  22
ENDBRANCH  14  15
ENDBRANCH   1  14
TORSDOF 17
ENDMDL
MODEL 7
REMARK VINA RESULT:      -6.4      1.386      2.307
REMARK  17 active torsions:
REMARK  status: ('A' for Active; 'I' for Inactive)
REMARK    1  A    between atoms: C_2  and  C_3 
REMARK    2  A    between atoms: C_3  and  C_4 
REMARK    3  A    between atoms: C_4  and  C_5 
REMARK    4  A    between atoms: C_5  and  C_6 
REMARK    5  A    between atoms: C_6  and  C_7 
REMARK    6  A    between atoms: C_7  and  C_8 
REMARK    7  A    between atoms: C_7  and  O_22 
REMARK    8  A    between atoms: C_8  and  C_9 
REMARK    9  A    between atoms: C_10  and  C_11 
REMARK   10  A    between atoms: C_11  and  C_12 
REMARK   11  A    between atoms: C_12  and  C_13 
REMARK   12  A    between atoms: C_13  and  C_14 
REMARK   13  A    between atoms: C_14  and  C_15 
REMARK   14  A    between atoms: C_15  and  C_16 
REMARK   15  A    between atoms: C_16  and  C_17 
REMARK   16  A    between atoms: C_17  and  C_18 
REMARK   17  A    between atoms: C_18  and  O_20 
ROOT
HETATM    1  C   UNL     1     -21.893  -6.316  -3.342  1.00  0.00    -0.028 C 
HETATM    2  C   UNL     1     -21.407  -7.349  -4.049  1.00  0.00    -0.031 C 
ENDROOT
BRANCH   2   3
HETATM    3  C   UNL     1     -20.949  -7.229  -5.475  1.00  0.00     0.027 C 
BRANCH   3   4
HETATM    4  C   UNL     1     -20.280  -5.887  -5.759  1.00  0.00     0.004 C 
BRANCH   4   5
HETATM    5  C   UNL     1     -20.549  -5.445  -7.199  1.00  0.00     0.000 C 
BRANCH   5   6
HETATM    6  C   UNL     1     -21.366  -4.158  -7.220  1.00  0.00     0.000 C 
BRANCH   6   7
HETATM    7  C   UNL     1     -22.801  -4.401  -7.685  1.00  0.00     0.000 C 
BRANCH   7   8
HETATM    8  C   UNL     1     -23.062  -3.634  -8.980  1.00  0.00     0.010 C 
BRANCH   8   9
HETATM    9  C   UNL     1     -22.513  -4.359 -10.204  1.00  0.00     0.111 C 
BRANCH   9  10
HETATM   10  C   UNL     1     -22.035  -3.365 -11.238  1.00  0.00     0.258 C 
HETATM   11  O   UNL     1     -22.756  -2.672 -11.939  1.00  0.00    -0.265 OA
BRANCH  10  12
HETATM   12  O   UNL     1     -20.673  -3.358 -11.273  1.00  0.00    -0.326 OA
HETATM   13  C   UNL     1     -20.088  -4.557 -10.764  1.00  0.00     0.213 C 
ENDBRANCH  10  12
ENDBRANCH   9  10
ENDBRANCH   8   9
ENDBRANCH   7   8
ENDBRANCH   6   7
ENDBRANCH   5   6
ENDBRANCH   4   5
ENDBRANCH   3   4
ENDBRANCH   2   3
BRANCH   1  14
HETATM   14  C   UNL     1     -22.182  -6.363  -1.864  1.00  0.00     0.058 C 
BRANCH  14  15
HETATM   15  C   UNL     1     -21.892  -7.706  -1.171  1.00  0.00     0.121 C 
BRANCH  15  16
HETATM   16  C   UNL     1     -22.593  -7.918   0.177  1.00  0.00     0.032 C 
BRANCH  16  17
HETATM   17  C   UNL     1     -23.588  -9.076   0.224  1.00  0.00     0.002 C 
BRANCH  17  18
HETATM   18  C   UNL     1     -23.151 -10.314  -0.565  1.00  0.00     0.000 C 
BRANCH  18  19
HETATM   19  C   UNL     1     -23.977 -11.527  -0.131  1.00  0.00    -0.000 C 
BRANCH  19  20
HETATM   20  C   UNL     1     -23.135 -12.795  -0.033  1.00  0.00    -0.005 C 
HETATM   21  C   UNL     1     -23.126 -13.326   1.393  1.00  0.00     0.005 C 
ENDBRANCH  19  20
ENDBRANCH  18  19
ENDBRANCH  17  18
ENDBRANCH  16  17
ENDBRANCH  15  16
BRANCH  15  22
HETATM   22  O   UNL     1     -20.482  -7.869  -0.990  1.00  0.00    -0.395 OA
HETATM   23  H   UNL     1     -20.219  -8.673  -1.471  1.00  0.00     0.210 HD
ENDBRANCH  15  22
ENDBRANCH  14  15
ENDBRANCH   1  14
TORSDOF 17
ENDMDL
MODEL 8
REMARK VINA RESULT:      -6.3      3.135      9.131
REMARK  17 active torsions:
REMARK  status: ('A' for Active; 'I' for Inactive)
REMARK    1  A    between atoms: C_2  and  C_3 
REMARK    2  A    between atoms: C_3  and  C_4 
REMARK    3  A    between atoms: C_4  and  C_5 
REMARK    4  A    between atoms: C_5  and  C_6 
REMARK    5  A    between atoms: C_6  and  C_7 
REMARK    6  A    between atoms: C_7  and  C_8 
REMARK    7  A    between atoms: C_7  and  O_22 
REMARK    8  A    between atoms: C_8  and  C_9 
REMARK    9  A    between atoms: C_10  and  C_11 
REMARK   10  A    between atoms: C_11  and  C_12 
REMARK   11  A    between atoms: C_12  and  C_13 
REMARK   12  A    between atoms: C_13  and  C_14 
REMARK   13  A    between atoms: C_14  and  C_15 
REMARK   14  A    between atoms: C_15  and  C_16 
REMARK   15  A    between atoms: C_16  and  C_17 
REMARK   16  A    between atoms: C_17  and  C_18 
REMARK   17  A    between atoms: C_18  and  O_20 
ROOT
HETATM    1  C   UNL     1     -21.557  -6.845  -3.359  1.00  0.00    -0.028 C 
HETATM    2  C   UNL     1     -22.352  -6.328  -2.408  1.00  0.00    -0.031 C 
ENDROOT
BRANCH   2   3
HETATM    3  C   UNL     1     -22.093  -6.491  -0.938  1.00  0.00     0.027 C 
BRANCH   3   4
HETATM    4  C   UNL     1     -22.590  -7.832  -0.406  1.00  0.00     0.004 C 
BRANCH   4   5
HETATM    5  C   UNL     1     -21.639  -8.374   0.663  1.00  0.00     0.000 C 
BRANCH   5   6
HETATM    6  C   UNL     1     -21.036  -9.703   0.220  1.00  0.00     0.000 C 
BRANCH   6   7
HETATM    7  C   UNL     1     -21.364 -10.021  -1.238  1.00  0.00     0.000 C 
BRANCH   7   8
HETATM    8  C   UNL     1     -20.084 -10.007  -2.071  1.00  0.00     0.010 C 
BRANCH   8   9
HETATM    9  C   UNL     1     -20.294 -10.582  -3.467  1.00  0.00     0.111 C 
BRANCH   9  10
HETATM   10  C   UNL     1     -19.641  -9.700  -4.508  1.00  0.00     0.258 C 
HETATM   11  O   UNL     1     -18.690  -8.959  -4.312  1.00  0.00    -0.265 OA
BRANCH  10  12
HETATM   12  O   UNL     1     -20.276  -9.854  -5.704  1.00  0.00    -0.326 OA
HETATM   13  C   UNL     1     -21.152 -10.981  -5.737  1.00  0.00     0.213 C 
ENDBRANCH  10  12
ENDBRANCH   9  10
ENDBRANCH   8   9
ENDBRANCH   7   8
ENDBRANCH   6   7
ENDBRANCH   5   6
ENDBRANCH   4   5
ENDBRANCH   3   4
ENDBRANCH   2   3
BRANCH   1  14
HETATM   14  C   UNL     1     -21.686  -6.541  -4.829  1.00  0.00     0.058 C 
BRANCH  14  15
HETATM   15  C   UNL     1     -20.425  -5.976  -5.505  1.00  0.00     0.121 C 
BRANCH  15  16
HETATM   16  C   UNL     1     -20.615  -4.650  -6.253  1.00  0.00     0.032 C 
BRANCH  16  17
HETATM   17  C   UNL     1     -21.828  -4.587  -7.180  1.00  0.00     0.002 C 
BRANCH  17  18
HETATM   18  C   UNL     1     -21.552  -3.924  -8.533  1.00  0.00     0.000 C 
BRANCH  18  19
HETATM   19  C   UNL     1     -20.373  -4.615  -9.220  1.00  0.00    -0.000 C 
BRANCH  19  20
HETATM   20  C   UNL     1     -20.350  -4.359 -10.724  1.00  0.00    -0.005 C 
HETATM   21  C   UNL     1     -21.765  -4.300 -11.281  1.00  0.00     0.005 C 
ENDBRANCH  19  20
ENDBRANCH  18  19
ENDBRANCH  17  18
ENDBRANCH  16  17
ENDBRANCH  15  16
BRANCH  15  22
HETATM   22  O   UNL     1     -19.879  -6.942  -6.408  1.00  0.00    -0.395 OA
HETATM   23  H   UNL     1     -20.385  -7.766  -6.292  1.00  0.00     0.210 HD
ENDBRANCH  15  22
ENDBRANCH  14  15
ENDBRANCH   1  14
TORSDOF 17
ENDMDL
MODEL 9
REMARK VINA RESULT:      -6.3      2.895     10.718
REMARK  17 active torsions:
REMARK  status: ('A' for Active; 'I' for Inactive)
REMARK    1  A    between atoms: C_2  and  C_3 
REMARK    2  A    between atoms: C_3  and  C_4 
REMARK    3  A    between atoms: C_4  and  C_5 
REMARK    4  A    between atoms: C_5  and  C_6 
REMARK    5  A    between atoms: C_6  and  C_7 
REMARK    6  A    between atoms: C_7  and  C_8 
REMARK    7  A    between atoms: C_7  and  O_22 
REMARK    8  A    between atoms: C_8  and  C_9 
REMARK    9  A    between atoms: C_10  and  C_11 
REMARK   10  A    between atoms: C_11  and  C_12 
REMARK   11  A    between atoms: C_12  and  C_13 
REMARK   12  A    between atoms: C_13  and  C_14 
REMARK   13  A    between atoms: C_14  and  C_15 
REMARK   14  A    between atoms: C_15  and  C_16 
REMARK   15  A    between atoms: C_16  and  C_17 
REMARK   16  A    between atoms: C_17  and  C_18 
REMARK   17  A    between atoms: C_18  and  O_20 
ROOT
HETATM    1  C   UNL     1     -21.986  -6.787  -4.369  1.00  0.00    -0.028 C 
HETATM    2  C   UNL     1     -21.621  -6.047  -3.310  1.00  0.00    -0.031 C 
ENDROOT
BRANCH   2   3
HETATM    3  C   UNL     1     -21.756  -6.517  -1.890  1.00  0.00     0.027 C 
BRANCH   3   4
HETATM    4  C   UNL     1     -20.861  -7.715  -1.587  1.00  0.00     0.004 C 
BRANCH   4   5
HETATM    5  C   UNL     1     -21.255  -8.359  -0.256  1.00  0.00     0.000 C 
BRANCH   5   6
HETATM    6  C   UNL     1     -22.677  -7.968   0.129  1.00  0.00     0.000 C 
BRANCH   6   7
HETATM    7  C   UNL     1     -23.541  -9.190   0.439  1.00  0.00     0.000 C 
BRANCH   7   8
HETATM    8  C   UNL     1     -23.299 -10.273  -0.610  1.00  0.00     0.010 C 
BRANCH   8   9
HETATM    9  C   UNL     1     -23.447 -11.679  -0.037  1.00  0.00     0.111 C 
BRANCH   9  10
HETATM   10  C   UNL     1     -22.097 -12.238   0.352  1.00  0.00     0.258 C 
HETATM   11  O   UNL     1     -21.069 -12.122  -0.299  1.00  0.00    -0.265 OA
BRANCH  10  12
HETATM   12  O   UNL     1     -22.197 -12.894   1.542  1.00  0.00    -0.326 OA
HETATM   13  C   UNL     1     -23.363 -13.712   1.640  1.00  0.00     0.213 C 
ENDBRANCH  10  12
ENDBRANCH   9  10
ENDBRANCH   8   9
ENDBRANCH   7   8
ENDBRANCH   6   7
ENDBRANCH   5   6
ENDBRANCH   4   5
ENDBRANCH   3   4
ENDBRANCH   2   3
BRANCH   1  14
HETATM   14  C   UNL     1     -21.691  -6.421  -5.801  1.00  0.00     0.058 C 
BRANCH  14  15
HETATM   15  C   UNL     1     -20.277  -5.876  -6.071  1.00  0.00     0.121 C 
BRANCH  15  16
HETATM   16  C   UNL     1     -20.216  -4.449  -6.629  1.00  0.00     0.032 C 
BRANCH  16  17
HETATM   17  C   UNL     1     -21.421  -4.018  -7.464  1.00  0.00     0.002 C 
BRANCH  17  18
HETATM   18  C   UNL     1     -21.474  -4.641  -8.862  1.00  0.00     0.000 C 
BRANCH  18  19
HETATM   19  C   UNL     1     -20.286  -4.153  -9.695  1.00  0.00    -0.000 C 
BRANCH  19  20
HETATM   20  C   UNL     1     -20.696  -3.760 -11.111  1.00  0.00    -0.005 C 
HETATM   21  C   UNL     1     -22.207  -3.610 -11.212  1.00  0.00     0.005 C 
ENDBRANCH  19  20
ENDBRANCH  18  19
ENDBRANCH  17  18
ENDBRANCH  16  17
ENDBRANCH  15  16
BRANCH  15  22
HETATM   22  O   UNL     1     -19.577  -6.752  -6.961  1.00  0.00    -0.395 OA
HETATM   23  H   UNL     1     -18.931  -6.212  -7.450  1.00  0.00     0.210 HD
ENDBRANCH  15  22
ENDBRANCH  14  15
ENDBRANCH   1  14
TORSDOF 17
ENDMDL
