MODEL 1
REMARK VINA RESULT:      -6.7      0.000      0.000
REMARK  17 active torsions:
REMARK  status: ('A' for Active; 'I' for Inactive)
REMARK    1  A    between atoms: C_2  and  C_3 
REMARK    2  A    between atoms: C_3  and  C_4 
REMARK    3  A    between atoms: C_4  and  C_5 
REMARK    4  A    between atoms: C_5  and  C_6 
REMARK    5  A    between atoms: C_6  and  C_7 
REMARK    6  A    between atoms: C_7  and  C_8 
REMARK    7  A    between atoms: C_8  and  C_9 
REMARK    8  A    between atoms: C_10  and  C_11 
REMARK    9  A    between atoms: C_11  and  C_12 
REMARK   10  A    between atoms: C_12  and  C_13 
REMARK   11  A    between atoms: C_13  and  C_14 
REMARK   12  A    between atoms: C_14  and  C_15 
REMARK   13  A    between atoms: C_15  and  C_16 
REMARK   14  A    between atoms: C_16  and  C_17 
REMARK   15  A    between atoms: C_17  and  C_18 
REMARK   16  A    between atoms: C_18  and  O_20 
REMARK   17  A    between atoms: O_20  and  C_21 
ROOT
HETATM    1  C   UNL     1     -20.327  -4.611  -6.178  1.00  0.00     0.027 C 
ENDROOT
BRANCH   1   2
HETATM    2  C   UNL     1     -20.751  -5.449  -5.016  1.00  0.00    -0.031 C 
HETATM    3  C   UNL     1     -20.970  -6.765  -5.124  1.00  0.00    -0.031 C 
BRANCH   3   4
HETATM    4  C   UNL     1     -21.386  -7.604  -3.962  1.00  0.00     0.027 C 
BRANCH   4   5
HETATM    5  C   UNL     1     -21.591  -6.739  -2.725  1.00  0.00     0.004 C 
BRANCH   5   6
HETATM    6  C   UNL     1     -21.477  -7.591  -1.469  1.00  0.00     0.000 C 
BRANCH   6   7
HETATM    7  C   UNL     1     -22.492  -7.136  -0.433  1.00  0.00     0.000 C 
BRANCH   7   8
HETATM    8  C   UNL     1     -22.958  -8.319   0.402  1.00  0.00     0.000 C 
BRANCH   8   9
HETATM    9  C   UNL     1     -22.631  -9.626  -0.306  1.00  0.00    -0.000 C 
BRANCH   9  10
HETATM   10  C   UNL     1     -23.847 -10.541  -0.332  1.00  0.00    -0.005 C 
HETATM   11  C   UNL     1     -23.499 -11.902   0.241  1.00  0.00     0.005 C 
ENDBRANCH   9  10
ENDBRANCH   8   9
ENDBRANCH   7   8
ENDBRANCH   6   7
ENDBRANCH   5   6
ENDBRANCH   4   5
ENDBRANCH   3   4
ENDBRANCH   1   2
BRANCH   1  12
HETATM   12  C   UNL     1     -21.538  -4.160  -6.984  1.00  0.00     0.004 C 
BRANCH  12  13
HETATM   13  C   UNL     1     -21.126  -3.845  -8.416  1.00  0.00     0.000 C 
BRANCH  13  14
HETATM   14  C   UNL     1     -20.038  -4.802  -8.883  1.00  0.00     0.000 C 
BRANCH  14  15
HETATM   15  C   UNL     1     -19.908  -4.769 -10.402  1.00  0.00     0.000 C 
BRANCH  15  16
HETATM   16  C   UNL     1     -20.652  -3.569 -10.973  1.00  0.00     0.010 C 
BRANCH  16  17
HETATM   17  C   UNL     1     -21.606  -3.956 -12.104  1.00  0.00     0.111 C 
BRANCH  17  18
HETATM   18  C   UNL     1     -22.747  -2.973 -12.177  1.00  0.00     0.258 C 
HETATM   19  O   UNL     1     -23.037  -2.316 -13.180  1.00  0.00    -0.265 OA
BRANCH  18  20
HETATM   20  O   UNL     1     -23.329  -2.814 -10.956  1.00  0.00    -0.322 OA
BRANCH  20  21
HETATM   21  C   UNL     1     -24.259  -3.855 -10.617  1.00  0.00     0.174 C 
HETATM   22  C   UNL     1     -25.159  -3.329  -9.510  1.00  0.00     0.034 C 
ENDBRANCH  20  21
ENDBRANCH  18  20
ENDBRANCH  17  18
ENDBRANCH  16  17
ENDBRANCH  15  16
ENDBRANCH  14  15
ENDBRANCH  13  14
ENDBRANCH  12  13
ENDBRANCH   1  12
TORSDOF 17
ENDMDL
MODEL 2
REMARK VINA RESULT:      -6.7      1.255      2.220
REMARK  17 active torsions:
REMARK  status: ('A' for Active; 'I' for Inactive)
REMARK    1  A    between atoms: C_2  and  C_3 
REMARK    2  A    between atoms: C_3  and  C_4 
REMARK    3  A    between atoms: C_4  and  C_5 
REMARK    4  A    between atoms: C_5  and  C_6 
REMARK    5  A    between atoms: C_6  and  C_7 
REMARK    6  A    between atoms: C_7  and  C_8 
REMARK    7  A    between atoms: C_8  and  C_9 
REMARK    8  A    between atoms: C_10  and  C_11 
REMARK    9  A    between atoms: C_11  and  C_12 
REMARK   10  A    between atoms: C_12  and  C_13 
REMARK   11  A    between atoms: C_13  and  C_14 
REMARK   12  A    between atoms: C_14  and  C_15 
REMARK   13  A    between atoms: C_15  and  C_16 
REMARK   14  A    between atoms: C_16  and  C_17 
REMARK   15  A    between atoms: C_17  and  C_18 
REMARK   16  A    between atoms: C_18  and  O_20 
REMARK   17  A    between atoms: O_20  and  C_21 
ROOT
HETATM    1  C   UNL     1     -20.695  -6.176  -6.270  1.00  0.00     0.027 C 
ENDROOT
BRANCH   1   2
HETATM    2  C   UNL     1     -20.897  -6.855  -4.954  1.00  0.00    -0.031 C 
HETATM    3  C   UNL     1     -21.437  -6.229  -3.902  1.00  0.00    -0.031 C 
BRANCH   3   4
HETATM    4  C   UNL     1     -21.645  -6.909  -2.589  1.00  0.00     0.027 C 
BRANCH   4   5
HETATM    5  C   UNL     1     -20.468  -7.819  -2.266  1.00  0.00     0.004 C 
BRANCH   5   6
HETATM    6  C   UNL     1     -20.808  -8.710  -1.080  1.00  0.00     0.000 C 
BRANCH   6   7
HETATM    7  C   UNL     1     -22.316  -8.847  -0.943  1.00  0.00     0.000 C 
BRANCH   7   8
HETATM    8  C   UNL     1     -22.736 -10.291  -1.175  1.00  0.00     0.000 C 
BRANCH   8   9
HETATM    9  C   UNL     1     -23.853 -10.676  -0.216  1.00  0.00    -0.000 C 
BRANCH   9  10
HETATM   10  C   UNL     1     -23.601 -12.055   0.376  1.00  0.00    -0.005 C 
HETATM   11  C   UNL     1     -22.123 -12.252   0.655  1.00  0.00     0.005 C 
ENDBRANCH   9  10
ENDBRANCH   8   9
ENDBRANCH   7   8
ENDBRANCH   6   7
ENDBRANCH   5   6
ENDBRANCH   4   5
ENDBRANCH   3   4
ENDBRANCH   1   2
BRANCH   1  12
HETATM   12  C   UNL     1     -20.277  -4.726  -6.068  1.00  0.00     0.004 C 
BRANCH  12  13
HETATM   13  C   UNL     1     -19.991  -4.070  -7.413  1.00  0.00     0.000 C 
BRANCH  13  14
HETATM   14  C   UNL     1     -20.351  -5.011  -8.554  1.00  0.00     0.000 C 
BRANCH  14  15
HETATM   15  C   UNL     1     -21.269  -4.316  -9.555  1.00  0.00     0.000 C 
BRANCH  15  16
HETATM   16  C   UNL     1     -22.672  -4.175  -8.980  1.00  0.00     0.010 C 
BRANCH  16  17
HETATM   17  C   UNL     1     -23.756  -4.599  -9.972  1.00  0.00     0.111 C 
BRANCH  17  18
HETATM   18  C   UNL     1     -24.618  -3.416 -10.333  1.00  0.00     0.258 C 
HETATM   19  O   UNL     1     -25.744  -3.210  -9.874  1.00  0.00    -0.265 OA
BRANCH  18  20
HETATM   20  O   UNL     1     -24.042  -2.680 -11.324  1.00  0.00    -0.322 OA
BRANCH  20  21
HETATM   21  C   UNL     1     -24.171  -3.265 -12.630  1.00  0.00     0.174 C 
HETATM   22  C   UNL     1     -22.869  -3.020 -13.376  1.00  0.00     0.034 C 
ENDBRANCH  20  21
ENDBRANCH  18  20
ENDBRANCH  17  18
ENDBRANCH  16  17
ENDBRANCH  15  16
ENDBRANCH  14  15
ENDBRANCH  13  14
ENDBRANCH  12  13
ENDBRANCH   1  12
TORSDOF 17
ENDMDL
MODEL 3
REMARK VINA RESULT:      -6.7      1.536      2.358
REMARK  17 active torsions:
REMARK  status: ('A' for Active; 'I' for Inactive)
REMARK    1  A    between atoms: C_2  and  C_3 
REMARK    2  A    between atoms: C_3  and  C_4 
REMARK    3  A    between atoms: C_4  and  C_5 
REMARK    4  A    between atoms: C_5  and  C_6 
REMARK    5  A    between atoms: C_6  and  C_7 
REMARK    6  A    between atoms: C_7  and  C_8 
REMARK    7  A    between atoms: C_8  and  C_9 
REMARK    8  A    between atoms: C_10  and  C_11 
REMARK    9  A    between atoms: C_11  and  C_12 
REMARK   10  A    between atoms: C_12  and  C_13 
REMARK   11  A    between atoms: C_13  and  C_14 
REMARK   12  A    between atoms: C_14  and  C_15 
REMARK   13  A    between atoms: C_15  and  C_16 
REMARK   14  A    between atoms: C_16  and  C_17 
REMARK   15  A    between atoms: C_17  and  C_18 
REMARK   16  A    between atoms: C_18  and  O_20 
REMARK   17  A    between atoms: O_20  and  C_21 
ROOT
HETATM    1  C   UNL     1     -20.311  -4.402  -6.479  1.00  0.00     0.027 C 
ENDROOT
BRANCH   1   2
HETATM    2  C   UNL     1     -20.999  -5.671  -6.091  1.00  0.00    -0.031 C 
HETATM    3  C   UNL     1     -20.527  -6.477  -5.132  1.00  0.00    -0.031 C 
BRANCH   3   4
HETATM    4  C   UNL     1     -21.218  -7.741  -4.740  1.00  0.00     0.027 C 
BRANCH   4   5
HETATM    5  C   UNL     1     -21.360  -7.825  -3.226  1.00  0.00     0.004 C 
BRANCH   5   6
HETATM    6  C   UNL     1     -22.178  -6.648  -2.714  1.00  0.00     0.000 C 
BRANCH   6   7
HETATM    7  C   UNL     1     -22.206  -6.652  -1.194  1.00  0.00     0.000 C 
BRANCH   7   8
HETATM    8  C   UNL     1     -21.472  -7.870  -0.656  1.00  0.00     0.000 C 
BRANCH   8   9
HETATM    9  C   UNL     1     -22.165  -8.395   0.593  1.00  0.00    -0.000 C 
BRANCH   9  10
HETATM   10  C   UNL     1     -23.554  -8.920   0.255  1.00  0.00    -0.005 C 
HETATM   11  C   UNL     1     -23.465 -10.311  -0.342  1.00  0.00     0.005 C 
ENDBRANCH   9  10
ENDBRANCH   8   9
ENDBRANCH   7   8
ENDBRANCH   6   7
ENDBRANCH   5   6
ENDBRANCH   4   5
ENDBRANCH   3   4
ENDBRANCH   1   2
BRANCH   1  12
HETATM   12  C   UNL     1     -21.248  -3.505  -7.273  1.00  0.00     0.004 C 
BRANCH  12  13
HETATM   13  C   UNL     1     -21.855  -4.279  -8.436  1.00  0.00     0.000 C 
BRANCH  13  14
HETATM   14  C   UNL     1     -20.990  -4.141  -9.681  1.00  0.00     0.000 C 
BRANCH  14  15
HETATM   15  C   UNL     1     -21.794  -4.471 -10.935  1.00  0.00     0.000 C 
BRANCH  15  16
HETATM   16  C   UNL     1     -22.111  -3.200 -11.711  1.00  0.00     0.010 C 
BRANCH  16  17
HETATM   17  C   UNL     1     -23.608  -2.885 -11.731  1.00  0.00     0.111 C 
BRANCH  17  18
HETATM   18  C   UNL     1     -24.158  -3.072 -13.122  1.00  0.00     0.258 C 
HETATM   19  O   UNL     1     -24.292  -4.165 -13.677  1.00  0.00    -0.265 OA
BRANCH  18  20
HETATM   20  O   UNL     1     -24.364  -1.869 -13.728  1.00  0.00    -0.322 OA
BRANCH  20  21
HETATM   21  C   UNL     1     -23.480  -1.617 -14.832  1.00  0.00     0.174 C 
HETATM   22  C   UNL     1     -23.885  -0.290 -15.455  1.00  0.00     0.034 C 
ENDBRANCH  20  21
ENDBRANCH  18  20
ENDBRANCH  17  18
ENDBRANCH  16  17
ENDBRANCH  15  16
ENDBRANCH  14  15
ENDBRANCH  13  14
ENDBRANCH  12  13
ENDBRANCH   1  12
TORSDOF 17
ENDMDL
MODEL 4
REMARK VINA RESULT:      -6.6      4.214     10.296
REMARK  17 active torsions:
REMARK  status: ('A' for Active; 'I' for Inactive)
REMARK    1  A    between atoms: C_2  and  C_3 
REMARK    2  A    between atoms: C_3  and  C_4 
REMARK    3  A    between atoms: C_4  and  C_5 
REMARK    4  A    between atoms: C_5  and  C_6 
REMARK    5  A    between atoms: C_6  and  C_7 
REMARK    6  A    between atoms: C_7  and  C_8 
REMARK    7  A    between atoms: C_8  and  C_9 
REMARK    8  A    between atoms: C_10  and  C_11 
REMARK    9  A    between atoms: C_11  and  C_12 
REMARK   10  A    between atoms: C_12  and  C_13 
REMARK   11  A    between atoms: C_13  and  C_14 
REMARK   12  A    between atoms: C_14  and  C_15 
REMARK   13  A    between atoms: C_15  and  C_16 
REMARK   14  A    between atoms: C_16  and  C_17 
REMARK   15  A    between atoms: C_17  and  C_18 
REMARK   16  A    between atoms: C_18  and  O_20 
REMARK   17  A    between atoms: O_20  and  C_21 
ROOT
HETATM    1  C   UNL     1     -20.529  -5.267  -5.026  1.00  0.00     0.027 C 
ENDROOT
BRANCH   1   2
HETATM    2  C   UNL     1     -20.395  -4.522  -6.314  1.00  0.00    -0.031 C 
HETATM    3  C   UNL     1     -21.294  -4.629  -7.300  1.00  0.00    -0.031 C 
BRANCH   3   4
HETATM    4  C   UNL     1     -21.163  -3.880  -8.585  1.00  0.00     0.027 C 
BRANCH   4   5
HETATM    5  C   UNL     1     -20.259  -4.632  -9.552  1.00  0.00     0.004 C 
BRANCH   5   6
HETATM    6  C   UNL     1     -20.783  -4.489 -10.973  1.00  0.00     0.000 C 
BRANCH   6   7
HETATM    7  C   UNL     1     -20.861  -3.020 -11.359  1.00  0.00     0.000 C 
BRANCH   7   8
HETATM    8  C   UNL     1     -22.198  -2.719 -12.019  1.00  0.00     0.000 C 
BRANCH   8   9
HETATM    9  C   UNL     1     -23.175  -3.859 -11.774  1.00  0.00    -0.000 C 
BRANCH   9  10
HETATM   10  C   UNL     1     -24.315  -3.406 -10.873  1.00  0.00    -0.005 C 
HETATM   11  C   UNL     1     -24.555  -4.419  -9.769  1.00  0.00     0.005 C 
ENDBRANCH   9  10
ENDBRANCH   8   9
ENDBRANCH   7   8
ENDBRANCH   6   7
ENDBRANCH   5   6
ENDBRANCH   4   5
ENDBRANCH   3   4
ENDBRANCH   1   2
BRANCH   1  12
HETATM   12  C   UNL     1     -21.645  -6.298  -5.115  1.00  0.00     0.004 C 
BRANCH  12  13
HETATM   13  C   UNL     1     -21.746  -7.077  -3.810  1.00  0.00     0.000 C 
BRANCH  13  14
HETATM   14  C   UNL     1     -21.456  -6.170  -2.622  1.00  0.00     0.000 C 
BRANCH  14  15
HETATM   15  C   UNL     1     -22.336  -6.543  -1.433  1.00  0.00     0.000 C 
BRANCH  15  16
HETATM   16  C   UNL     1     -21.726  -7.708  -0.666  1.00  0.00     0.010 C 
BRANCH  16  17
HETATM   17  C   UNL     1     -22.758  -8.460   0.176  1.00  0.00     0.111 C 
BRANCH  17  18
HETATM   18  C   UNL     1     -22.617  -9.946  -0.038  1.00  0.00     0.258 C 
HETATM   19  O   UNL     1     -21.710 -10.634   0.435  1.00  0.00    -0.265 OA
BRANCH  18  20
HETATM   20  O   UNL     1     -23.548 -10.399  -0.924  1.00  0.00    -0.322 OA
BRANCH  20  21
HETATM   21  C   UNL     1     -23.053 -11.405  -1.821  1.00  0.00     0.174 C 
HETATM   22  C   UNL     1     -22.439 -10.696  -3.018  1.00  0.00     0.034 C 
ENDBRANCH  20  21
ENDBRANCH  18  20
ENDBRANCH  17  18
ENDBRANCH  16  17
ENDBRANCH  15  16
ENDBRANCH  14  15
ENDBRANCH  13  14
ENDBRANCH  12  13
ENDBRANCH   1  12
TORSDOF 17
ENDMDL
MODEL 5
REMARK VINA RESULT:      -6.4      4.461     11.317
REMARK  17 active torsions:
REMARK  status: ('A' for Active; 'I' for Inactive)
REMARK    1  A    between atoms: C_2  and  C_3 
REMARK    2  A    between atoms: C_3  and  C_4 
REMARK    3  A    between atoms: C_4  and  C_5 
REMARK    4  A    between atoms: C_5  and  C_6 
REMARK    5  A    between atoms: C_6  and  C_7 
REMARK    6  A    between atoms: C_7  and  C_8 
REMARK    7  A    between atoms: C_8  and  C_9 
REMARK    8  A    between atoms: C_10  and  C_11 
REMARK    9  A    between atoms: C_11  and  C_12 
REMARK   10  A    between atoms: C_12  and  C_13 
REMARK   11  A    between atoms: C_13  and  C_14 
REMARK   12  A    between atoms: C_14  and  C_15 
REMARK   13  A    between atoms: C_15  and  C_16 
REMARK   14  A    between atoms: C_16  and  C_17 
REMARK   15  A    between atoms: C_17  and  C_18 
REMARK   16  A    between atoms: C_18  and  O_20 
REMARK   17  A    between atoms: O_20  and  C_21 
ROOT
HETATM    1  C   UNL     1     -20.542  -5.194  -5.331  1.00  0.00     0.027 C 
ENDROOT
BRANCH   1   2
HETATM    2  C   UNL     1     -20.623  -4.445  -6.622  1.00  0.00    -0.031 C 
HETATM    3  C   UNL     1     -21.508  -4.757  -7.576  1.00  0.00    -0.031 C 
BRANCH   3   4
HETATM    4  C   UNL     1     -21.594  -4.006  -8.863  1.00  0.00     0.027 C 
BRANCH   4   5
HETATM    5  C   UNL     1     -20.276  -4.093  -9.621  1.00  0.00     0.004 C 
BRANCH   5   6
HETATM    6  C   UNL     1     -20.535  -4.081 -11.120  1.00  0.00     0.000 C 
BRANCH   6   7
HETATM    7  C   UNL     1     -21.627  -3.077 -11.456  1.00  0.00     0.000 C 
BRANCH   7   8
HETATM    8  C   UNL     1     -22.477  -3.589 -12.608  1.00  0.00     0.000 C 
BRANCH   8   9
HETATM    9  C   UNL     1     -23.370  -2.478 -13.140  1.00  0.00    -0.000 C 
BRANCH   9  10
HETATM   10  C   UNL     1     -23.190  -2.316 -14.642  1.00  0.00    -0.005 C 
HETATM   11  C   UNL     1     -23.777  -0.997 -15.109  1.00  0.00     0.005 C 
ENDBRANCH   9  10
ENDBRANCH   8   9
ENDBRANCH   7   8
ENDBRANCH   6   7
ENDBRANCH   5   6
ENDBRANCH   4   5
ENDBRANCH   3   4
ENDBRANCH   1   2
BRANCH   1  12
HETATM   12  C   UNL     1     -21.248  -6.537  -5.444  1.00  0.00     0.004 C 
BRANCH  12  13
HETATM   13  C   UNL     1     -22.080  -6.799  -4.195  1.00  0.00     0.000 C 
BRANCH  13  14
HETATM   14  C   UNL     1     -21.495  -6.061  -2.999  1.00  0.00     0.000 C 
BRANCH  14  15
HETATM   15  C   UNL     1     -22.106  -6.575  -1.698  1.00  0.00     0.000 C 
BRANCH  15  16
HETATM   16  C   UNL     1     -21.376  -7.825  -1.226  1.00  0.00     0.010 C 
BRANCH  16  17
HETATM   17  C   UNL     1     -21.535  -8.063   0.276  1.00  0.00     0.111 C 
BRANCH  17  18
HETATM   18  C   UNL     1     -21.271  -9.512   0.601  1.00  0.00     0.258 C 
HETATM   19  O   UNL     1     -20.598  -9.899   1.558  1.00  0.00    -0.265 OA
BRANCH  18  20
HETATM   20  O   UNL     1     -21.765 -10.325  -0.375  1.00  0.00    -0.322 OA
BRANCH  20  21
HETATM   21  C   UNL     1     -22.489 -11.460   0.128  1.00  0.00     0.174 C 
HETATM   22  C   UNL     1     -23.961 -11.247  -0.188  1.00  0.00     0.034 C 
ENDBRANCH  20  21
ENDBRANCH  18  20
ENDBRANCH  17  18
ENDBRANCH  16  17
ENDBRANCH  15  16
ENDBRANCH  14  15
ENDBRANCH  13  14
ENDBRANCH  12  13
ENDBRANCH   1  12
TORSDOF 17
ENDMDL
MODEL 6
REMARK VINA RESULT:      -6.3     12.867     14.926
REMARK  17 active torsions:
REMARK  status: ('A' for Active; 'I' for Inactive)
REMARK    1  A    between atoms: C_2  and  C_3 
REMARK    2  A    between atoms: C_3  and  C_4 
REMARK    3  A    between atoms: C_4  and  C_5 
REMARK    4  A    between atoms: C_5  and  C_6 
REMARK    5  A    between atoms: C_6  and  C_7 
REMARK    6  A    between atoms: C_7  and  C_8 
REMARK    7  A    between atoms: C_8  and  C_9 
REMARK    8  A    between atoms: C_10  and  C_11 
REMARK    9  A    between atoms: C_11  and  C_12 
REMARK   10  A    between atoms: C_12  and  C_13 
REMARK   11  A    between atoms: C_13  and  C_14 
REMARK   12  A    between atoms: C_14  and  C_15 
REMARK   13  A    between atoms: C_15  and  C_16 
REMARK   14  A    between atoms: C_16  and  C_17 
REMARK   15  A    between atoms: C_17  and  C_18 
REMARK   16  A    between atoms: C_18  and  O_20 
REMARK   17  A    between atoms: O_20  and  C_21 
ROOT
HETATM    1  C   UNL     1     -34.690   0.822 -13.838  1.00  0.00     0.027 C 
ENDROOT
BRANCH   1   2
HETATM    2  C   UNL     1     -35.134  -0.416 -13.128  1.00  0.00    -0.031 C 
HETATM    3  C   UNL     1     -34.791  -0.675 -11.861  1.00  0.00    -0.031 C 
BRANCH   3   4
HETATM    4  C   UNL     1     -35.240  -1.909 -11.149  1.00  0.00     0.027 C 
BRANCH   4   5
HETATM    5  C   UNL     1     -34.071  -2.566 -10.429  1.00  0.00     0.004 C 
BRANCH   5   6
HETATM    6  C   UNL     1     -33.022  -3.012 -11.437  1.00  0.00     0.000 C 
BRANCH   6   7
HETATM    7  C   UNL     1     -33.031  -4.526 -11.568  1.00  0.00     0.000 C 
BRANCH   7   8
HETATM    8  C   UNL     1     -33.902  -5.144 -10.485  1.00  0.00     0.000 C 
BRANCH   8   9
HETATM    9  C   UNL     1     -34.553  -6.421 -10.995  1.00  0.00    -0.000 C 
BRANCH   9  10
HETATM   10  C   UNL     1     -34.890  -7.351  -9.838  1.00  0.00    -0.005 C 
HETATM   11  C   UNL     1     -33.992  -8.573  -9.860  1.00  0.00     0.005 C 
ENDBRANCH   9  10
ENDBRANCH   8   9
ENDBRANCH   7   8
ENDBRANCH   6   7
ENDBRANCH   5   6
ENDBRANCH   4   5
ENDBRANCH   3   4
ENDBRANCH   1   2
BRANCH   1  12
HETATM   12  C   UNL     1     -35.488   1.022 -15.119  1.00  0.00     0.004 C 
BRANCH  12  13
HETATM   13  C   UNL     1     -36.267  -0.244 -15.453  1.00  0.00     0.000 C 
BRANCH  13  14
HETATM   14  C   UNL     1     -35.749  -0.866 -16.742  1.00  0.00     0.000 C 
BRANCH  14  15
HETATM   15  C   UNL     1     -35.402  -2.337 -16.529  1.00  0.00     0.000 C 
BRANCH  15  16
HETATM   16  C   UNL     1     -33.895  -2.543 -16.607  1.00  0.00     0.010 C 
BRANCH  16  17
HETATM   17  C   UNL     1     -33.506  -4.022 -16.604  1.00  0.00     0.111 C 
BRANCH  17  18
HETATM   18  C   UNL     1     -32.071  -4.180 -17.040  1.00  0.00     0.258 C 
HETATM   19  O   UNL     1     -31.396  -3.284 -17.552  1.00  0.00    -0.265 OA
BRANCH  18  20
HETATM   20  O   UNL     1     -31.666  -5.475 -16.913  1.00  0.00    -0.322 OA
BRANCH  20  21
HETATM   21  C   UNL     1     -30.459  -5.778 -17.630  1.00  0.00     0.174 C 
HETATM   22  C   UNL     1     -30.291  -7.289 -17.635  1.00  0.00     0.034 C 
ENDBRANCH  20  21
ENDBRANCH  18  20
ENDBRANCH  17  18
ENDBRANCH  16  17
ENDBRANCH  15  16
ENDBRANCH  14  15
ENDBRANCH  13  14
ENDBRANCH  12  13
ENDBRANCH   1  12
TORSDOF 17
ENDMDL
MODEL 7
REMARK VINA RESULT:      -5.9      1.645      3.253
REMARK  17 active torsions:
REMARK  status: ('A' for Active; 'I' for Inactive)
REMARK    1  A    between atoms: C_2  and  C_3 
REMARK    2  A    between atoms: C_3  and  C_4 
REMARK    3  A    between atoms: C_4  and  C_5 
REMARK    4  A    between atoms: C_5  and  C_6 
REMARK    5  A    between atoms: C_6  and  C_7 
REMARK    6  A    between atoms: C_7  and  C_8 
REMARK    7  A    between atoms: C_8  and  C_9 
REMARK    8  A    between atoms: C_10  and  C_11 
REMARK    9  A    between atoms: C_11  and  C_12 
REMARK   10  A    between atoms: C_12  and  C_13 
REMARK   11  A    between atoms: C_13  and  C_14 
REMARK   12  A    between atoms: C_14  and  C_15 
REMARK   13  A    between atoms: C_15  and  C_16 
REMARK   14  A    between atoms: C_16  and  C_17 
REMARK   15  A    between atoms: C_17  and  C_18 
REMARK   16  A    between atoms: C_18  and  O_20 
REMARK   17  A    between atoms: O_20  and  C_21 
ROOT
HETATM    1  C   UNL     1     -20.108  -7.767  -5.288  1.00  0.00     0.027 C 
ENDROOT
BRANCH   1   2
HETATM    2  C   UNL     1     -21.113  -8.528  -4.484  1.00  0.00    -0.031 C 
HETATM    3  C   UNL     1     -21.332  -9.836  -4.665  1.00  0.00    -0.031 C 
BRANCH   3   4
HETATM    4  C   UNL     1     -22.331 -10.597  -3.858  1.00  0.00     0.027 C 
BRANCH   4   5
HETATM    5  C   UNL     1     -21.667 -11.222  -2.638  1.00  0.00     0.004 C 
BRANCH   5   6
HETATM    6  C   UNL     1     -22.233 -10.609  -1.366  1.00  0.00     0.000 C 
BRANCH   6   7
HETATM    7  C   UNL     1     -21.115 -10.333  -0.374  1.00  0.00     0.000 C 
BRANCH   7   8
HETATM    8  C   UNL     1     -21.506  -9.197   0.558  1.00  0.00     0.000 C 
BRANCH   8   9
HETATM    9  C   UNL     1     -22.739  -8.480   0.027  1.00  0.00    -0.000 C 
BRANCH   9  10
HETATM   10  C   UNL     1     -22.436  -7.011  -0.232  1.00  0.00    -0.005 C 
HETATM   11  C   UNL     1     -22.087  -6.789  -1.691  1.00  0.00     0.005 C 
ENDBRANCH   9  10
ENDBRANCH   8   9
ENDBRANCH   7   8
ENDBRANCH   6   7
ENDBRANCH   5   6
ENDBRANCH   4   5
ENDBRANCH   3   4
ENDBRANCH   1   2
BRANCH   1  12
HETATM   12  C   UNL     1     -20.415  -6.277  -5.259  1.00  0.00     0.004 C 
BRANCH  12  13
HETATM   13  C   UNL     1     -21.680  -5.987  -6.057  1.00  0.00     0.000 C 
BRANCH  13  14
HETATM   14  C   UNL     1     -21.336  -5.656  -7.503  1.00  0.00     0.000 C 
BRANCH  14  15
HETATM   15  C   UNL     1     -21.040  -4.167  -7.659  1.00  0.00     0.000 C 
BRANCH  15  16
HETATM   16  C   UNL     1     -22.206  -3.464  -8.341  1.00  0.00     0.010 C 
BRANCH  16  17
HETATM   17  C   UNL     1     -23.182  -4.446  -8.992  1.00  0.00     0.111 C 
BRANCH  17  18
HETATM   18  C   UNL     1     -24.129  -3.707  -9.903  1.00  0.00     0.258 C 
HETATM   19  O   UNL     1     -24.969  -2.890  -9.518  1.00  0.00    -0.265 OA
BRANCH  18  20
HETATM   20  O   UNL     1     -24.022  -4.157 -11.184  1.00  0.00    -0.322 OA
BRANCH  20  21
HETATM   21  C   UNL     1     -24.373  -3.178 -12.174  1.00  0.00     0.174 C 
HETATM   22  C   UNL     1     -23.083  -2.584 -12.717  1.00  0.00     0.034 C 
ENDBRANCH  20  21
ENDBRANCH  18  20
ENDBRANCH  17  18
ENDBRANCH  16  17
ENDBRANCH  15  16
ENDBRANCH  14  15
ENDBRANCH  13  14
ENDBRANCH  12  13
ENDBRANCH   1  12
TORSDOF 17
ENDMDL
MODEL 8
REMARK VINA RESULT:      -5.9     11.767     15.123
REMARK  17 active torsions:
REMARK  status: ('A' for Active; 'I' for Inactive)
REMARK    1  A    between atoms: C_2  and  C_3 
REMARK    2  A    between atoms: C_3  and  C_4 
REMARK    3  A    between atoms: C_4  and  C_5 
REMARK    4  A    between atoms: C_5  and  C_6 
REMARK    5  A    between atoms: C_6  and  C_7 
REMARK    6  A    between atoms: C_7  and  C_8 
REMARK    7  A    between atoms: C_8  and  C_9 
REMARK    8  A    between atoms: C_10  and  C_11 
REMARK    9  A    between atoms: C_11  and  C_12 
REMARK   10  A    between atoms: C_12  and  C_13 
REMARK   11  A    between atoms: C_13  and  C_14 
REMARK   12  A    between atoms: C_14  and  C_15 
REMARK   13  A    between atoms: C_15  and  C_16 
REMARK   14  A    between atoms: C_16  and  C_17 
REMARK   15  A    between atoms: C_17  and  C_18 
REMARK   16  A    between atoms: C_18  and  O_20 
REMARK   17  A    between atoms: O_20  and  C_21 
ROOT
HETATM    1  C   UNL     1     -35.767  -1.224 -16.837  1.00  0.00     0.027 C 
ENDROOT
BRANCH   1   2
HETATM    2  C   UNL     1     -35.749  -0.170 -15.777  1.00  0.00    -0.031 C 
HETATM    3  C   UNL     1     -34.970  -0.260 -14.692  1.00  0.00    -0.031 C 
BRANCH   3   4
HETATM    4  C   UNL     1     -34.947   0.796 -13.636  1.00  0.00     0.027 C 
BRANCH   4   5
HETATM    5  C   UNL     1     -35.280   0.198 -12.276  1.00  0.00     0.004 C 
BRANCH   5   6
HETATM    6  C   UNL     1     -35.337  -1.319 -12.373  1.00  0.00     0.000 C 
BRANCH   6   7
HETATM    7  C   UNL     1     -35.011  -1.944 -11.026  1.00  0.00     0.000 C 
BRANCH   7   8
HETATM    8  C   UNL     1     -33.522  -2.236 -10.927  1.00  0.00     0.000 C 
BRANCH   8   9
HETATM    9  C   UNL     1     -33.261  -3.722 -11.127  1.00  0.00    -0.000 C 
BRANCH   9  10
HETATM   10  C   UNL     1     -34.558  -4.512 -11.029  1.00  0.00    -0.005 C 
HETATM   11  C   UNL     1     -34.309  -5.864 -10.387  1.00  0.00     0.005 C 
ENDBRANCH   9  10
ENDBRANCH   8   9
ENDBRANCH   7   8
ENDBRANCH   6   7
ENDBRANCH   5   6
ENDBRANCH   4   5
ENDBRANCH   3   4
ENDBRANCH   1   2
BRANCH   1  12
HETATM   12  C   UNL     1     -35.085  -2.492 -16.344  1.00  0.00     0.004 C 
BRANCH  12  13
HETATM   13  C   UNL     1     -33.945  -2.872 -17.281  1.00  0.00     0.000 C 
BRANCH  13  14
HETATM   14  C   UNL     1     -33.191  -4.080 -16.743  1.00  0.00     0.000 C 
BRANCH  14  15
HETATM   15  C   UNL     1     -31.721  -4.020 -17.146  1.00  0.00     0.000 C 
BRANCH  15  16
HETATM   16  C   UNL     1     -30.953  -5.181 -16.526  1.00  0.00     0.010 C 
BRANCH  16  17
HETATM   17  C   UNL     1     -31.051  -6.459 -17.361  1.00  0.00     0.111 C 
BRANCH  17  18
HETATM   18  C   UNL     1     -29.740  -7.203 -17.323  1.00  0.00     0.258 C 
HETATM   19  O   UNL     1     -29.602  -8.386 -17.640  1.00  0.00    -0.265 OA
BRANCH  18  20
HETATM   20  O   UNL     1     -28.761  -6.433 -16.771  1.00  0.00    -0.322 OA
BRANCH  20  21
HETATM   21  C   UNL     1     -28.030  -7.088 -15.722  1.00  0.00     0.174 C 
HETATM   22  C   UNL     1     -26.568  -6.692 -15.860  1.00  0.00     0.034 C 
ENDBRANCH  20  21
ENDBRANCH  18  20
ENDBRANCH  17  18
ENDBRANCH  16  17
ENDBRANCH  15  16
ENDBRANCH  14  15
ENDBRANCH  13  14
ENDBRANCH  12  13
ENDBRANCH   1  12
TORSDOF 17
ENDMDL
MODEL 9
REMARK VINA RESULT:      -5.9     16.369     17.986
REMARK  17 active torsions:
REMARK  status: ('A' for Active; 'I' for Inactive)
REMARK    1  A    between atoms: C_2  and  C_3 
REMARK    2  A    between atoms: C_3  and  C_4 
REMARK    3  A    between atoms: C_4  and  C_5 
REMARK    4  A    between atoms: C_5  and  C_6 
REMARK    5  A    between atoms: C_6  and  C_7 
REMARK    6  A    between atoms: C_7  and  C_8 
REMARK    7  A    between atoms: C_8  and  C_9 
REMARK    8  A    between atoms: C_10  and  C_11 
REMARK    9  A    between atoms: C_11  and  C_12 
REMARK   10  A    between atoms: C_12  and  C_13 
REMARK   11  A    between atoms: C_13  and  C_14 
REMARK   12  A    between atoms: C_14  and  C_15 
REMARK   13  A    between atoms: C_15  and  C_16 
REMARK   14  A    between atoms: C_16  and  C_17 
REMARK   15  A    between atoms: C_17  and  C_18 
REMARK   16  A    between atoms: C_18  and  O_20 
REMARK   17  A    between atoms: O_20  and  C_21 
ROOT
HETATM    1  C   UNL     1     -19.069   9.204   3.613  1.00  0.00     0.027 C 
ENDROOT
BRANCH   1   2
HETATM    2  C   UNL     1     -18.386   8.968   4.922  1.00  0.00    -0.031 C 
HETATM    3  C   UNL     1     -17.564   9.869   5.472  1.00  0.00    -0.031 C 
BRANCH   3   4
HETATM    4  C   UNL     1     -16.887   9.636   6.783  1.00  0.00     0.027 C 
BRANCH   4   5
HETATM    5  C   UNL     1     -15.409   9.992   6.692  1.00  0.00     0.004 C 
BRANCH   5   6
HETATM    6  C   UNL     1     -14.581   8.731   6.495  1.00  0.00     0.000 C 
BRANCH   6   7
HETATM    7  C   UNL     1     -13.333   9.043   5.686  1.00  0.00     0.000 C 
BRANCH   7   8
HETATM    8  C   UNL     1     -13.682   9.182   4.212  1.00  0.00     0.000 C 
BRANCH   8   9
HETATM    9  C   UNL     1     -14.569   8.027   3.769  1.00  0.00    -0.000 C 
BRANCH   9  10
HETATM   10  C   UNL     1     -15.328   8.389   2.500  1.00  0.00    -0.005 C 
HETATM   11  C   UNL     1     -14.416   8.297   1.292  1.00  0.00     0.005 C 
ENDBRANCH   9  10
ENDBRANCH   8   9
ENDBRANCH   7   8
ENDBRANCH   6   7
ENDBRANCH   5   6
ENDBRANCH   4   5
ENDBRANCH   3   4
ENDBRANCH   1   2
BRANCH   1  12
HETATM   12  C   UNL     1     -20.368   8.415   3.536  1.00  0.00     0.004 C 
BRANCH  12  13
HETATM   13  C   UNL     1     -21.153   8.819   2.294  1.00  0.00     0.000 C 
BRANCH  13  14
HETATM   14  C   UNL     1     -22.468   9.480   2.684  1.00  0.00     0.000 C 
BRANCH  14  15
HETATM   15  C   UNL     1     -23.578   9.085   1.715  1.00  0.00     0.000 C 
BRANCH  15  16
HETATM   16  C   UNL     1     -23.003   8.301   0.542  1.00  0.00     0.010 C 
BRANCH  16  17
HETATM   17  C   UNL     1     -24.089   7.771  -0.396  1.00  0.00     0.111 C 
BRANCH  17  18
HETATM   18  C   UNL     1     -23.505   6.751  -1.340  1.00  0.00     0.258 C 
HETATM   19  O   UNL     1     -23.887   5.582  -1.425  1.00  0.00    -0.265 OA
BRANCH  18  20
HETATM   20  O   UNL     1     -22.419   7.257  -1.989  1.00  0.00    -0.322 OA
BRANCH  20  21
HETATM   21  C   UNL     1     -22.725   8.355  -2.863  1.00  0.00     0.174 C 
HETATM   22  C   UNL     1     -21.768   8.287  -4.043  1.00  0.00     0.034 C 
ENDBRANCH  20  21
ENDBRANCH  18  20
ENDBRANCH  17  18
ENDBRANCH  16  17
ENDBRANCH  15  16
ENDBRANCH  14  15
ENDBRANCH  13  14
ENDBRANCH  12  13
ENDBRANCH   1  12
TORSDOF 17
ENDMDL
