MODEL 1
REMARK VINA RESULT:      -7.0      0.000      0.000
REMARK  20 active torsions:
REMARK  status: ('A' for Active; 'I' for Inactive)
REMARK       I    between atoms: C_2  and  N_4 
REMARK    1  A    between atoms: N_4  and  C_5 
REMARK    2  A    between atoms: C_5  and  C_6 
REMARK    3  A    between atoms: C_5  and  C_11 
REMARK    4  A    between atoms: C_6  and  C_7 
REMARK    5  A    between atoms: C_7  and  C_8 
REMARK    6  A    between atoms: C_8  and  C_9 
REMARK    7  A    between atoms: C_9  and  N_10 
REMARK       I    between atoms: C_11  and  N_13 
REMARK    8  A    between atoms: N_13  and  C_14 
REMARK    9  A    between atoms: C_14  and  C_15 
REMARK       I    between atoms: C_15  and  N_17 
REMARK   10  A    between atoms: N_17  and  C_18 
REMARK   11  A    between atoms: C_18  and  C_19 
REMARK   12  A    between atoms: C_18  and  C_26 
REMARK   13  A    between atoms: C_19  and  C_20 
REMARK       I    between atoms: C_26  and  N_28 
REMARK   14  A    between atoms: N_28  and  C_29 
REMARK   15  A    between atoms: C_29  and  C_30 
REMARK   16  A    between atoms: C_29  and  C_35 
REMARK   17  A    between atoms: C_30  and  C_31 
REMARK   18  A    between atoms: C_31  and  C_32 
REMARK   19  A    between atoms: C_32  and  C_33 
REMARK   20  A    between atoms: C_33  and  N_34 
REMARK       I    between atoms: C_35  and  N_37 
ROOT
HETATM    1  C   UNL     1     -21.232 -10.233  -4.671  1.00  0.00     0.182 C 
ENDROOT
BRANCH   1   2
HETATM    2  N   UNL     1     -20.546  -9.054  -5.222  1.00  0.00    -0.346 N 
HETATM    3  C   UNL     1     -21.140  -7.816  -5.306  1.00  0.00     0.236 C 
HETATM    4  O   UNL     1     -22.276  -7.594  -4.890  1.00  0.00    -0.272 OA
HETATM    5  H   UNL     1     -19.539  -9.134  -5.370  1.00  0.00     0.163 HD
BRANCH   3   6
HETATM    6  C   UNL     1     -20.282  -6.707  -5.914  1.00  0.00     0.225 C 
BRANCH   6   7
HETATM    7  N   UNL     1     -20.795  -6.329  -7.210  1.00  0.00    -0.351 N 
HETATM    8  C   UNL     1     -21.153  -5.029  -7.475  1.00  0.00     0.240 C 
HETATM    9  O   UNL     1     -21.107  -4.170  -6.599  1.00  0.00    -0.271 OA
HETATM   10  H   UNL     1     -20.819  -7.007  -7.960  1.00  0.00     0.163 HD
BRANCH   8  11
HETATM   11  C   UNL     1     -21.683  -4.751  -8.904  1.00  0.00     0.176 C 
BRANCH  11  12
HETATM   12  N   UNL     1     -22.874  -3.883  -8.898  1.00  0.00    -0.348 N 
HETATM   13  C   UNL     1     -24.009  -4.205  -9.610  1.00  0.00     0.214 C 
HETATM   14  C   UNL     1     -25.107  -3.182  -9.503  1.00  0.00     0.117 C 
HETATM   15  O   UNL     1     -24.143  -5.251 -10.232  1.00  0.00    -0.274 OA
HETATM   16  H   UNL     1     -22.865  -3.050  -8.324  1.00  0.00     0.163 HD
ENDBRANCH  11  12
BRANCH  11  17
HETATM   17  C   UNL     1     -20.594  -4.100  -9.775  1.00  0.00     0.035 C 
BRANCH  17  18
HETATM   18  C   UNL     1     -20.904  -3.988 -11.276  1.00  0.00     0.004 C 
BRANCH  18  19
HETATM   19  C   UNL     1     -21.509  -2.653 -11.725  1.00  0.00     0.030 C 
BRANCH  19  20
HETATM   20  C   UNL     1     -22.635  -2.841 -12.739  1.00  0.00     0.267 C 
BRANCH  20  21
HETATM   21  N   UNL     1     -23.069  -4.230 -12.779  1.00  0.00     0.078 N 
HETATM   22  H   UNL     1     -22.260  -4.847 -12.821  1.00  0.00     0.312 HD
HETATM   23  H   UNL     1     -23.603  -4.394 -13.632  1.00  0.00     0.312 HD
ENDBRANCH  20  21
ENDBRANCH  19  20
ENDBRANCH  18  19
ENDBRANCH  17  18
ENDBRANCH  11  17
ENDBRANCH   8  11
ENDBRANCH   6   7
ENDBRANCH   3   6
ENDBRANCH   1   2
BRANCH   1  24
HETATM   24  C   UNL     1     -20.687 -11.559  -5.253  1.00  0.00     0.093 C 
BRANCH  24  25
HETATM   25  C   UNL     1     -19.215 -11.539  -5.501  1.00  0.00     0.028 A 
HETATM   26  C   UNL     1     -18.463 -11.513  -6.657  1.00  0.00     0.114 A 
HETATM   27  N   UNL     1     -17.126 -11.496  -6.373  1.00  0.00    -0.360 N 
HETATM   28  C   UNL     1     -17.049 -11.538  -5.064  1.00  0.00     0.180 A 
ATOM     29  HN  UNL     1     -16.353 -11.459  -7.037  1.00  0.00     0.166 HD
HETATM   30  N   UNL     1     -18.286 -11.564  -4.490  1.00  0.00    -0.354 N 
HETATM   31  H   UNL     1     -18.478 -11.601  -3.498  1.00  0.00     0.166 HD
ENDBRANCH  24  25
ENDBRANCH   1  24
BRANCH   1  32
HETATM   32  C   UNL     1     -21.142 -10.243  -3.120  1.00  0.00     0.241 C 
HETATM   33  O   UNL     1     -20.118  -9.915  -2.526  1.00  0.00    -0.271 OA
HETATM   34  N   UNL     1     -22.291 -10.652  -2.464  1.00  0.00    -0.346 N 
HETATM   35  H   UNL     1     -23.183 -10.592  -2.936  1.00  0.00     0.163 HD
BRANCH  34  36
HETATM   36  C   UNL     1     -22.316 -10.920  -1.014  1.00  0.00     0.176 C 
BRANCH  36  37
HETATM   37  C   UNL     1     -23.081  -9.805  -0.282  1.00  0.00     0.035 C 
BRANCH  37  38
HETATM   38  C   UNL     1     -22.216  -8.662   0.276  1.00  0.00     0.004 C 
BRANCH  38  39
HETATM   39  C   UNL     1     -22.554  -7.267  -0.258  1.00  0.00     0.030 C 
BRANCH  39  40
HETATM   40  C   UNL     1     -21.771  -6.931  -1.525  1.00  0.00     0.267 C 
BRANCH  40  41
HETATM   41  N   UNL     1     -22.469  -5.925  -2.312  1.00  0.00     0.078 N 
HETATM   42  H   UNL     1     -22.533  -6.225  -3.283  1.00  0.00     0.312 HD
HETATM   43  H   UNL     1     -21.929  -5.061  -2.306  1.00  0.00     0.312 HD
ENDBRANCH  40  41
ENDBRANCH  39  40
ENDBRANCH  38  39
ENDBRANCH  37  38
ENDBRANCH  36  37
BRANCH  36  44
HETATM   44  C   UNL     1     -22.939 -12.308  -0.716  1.00  0.00     0.238 C 
HETATM   45  O   UNL     1     -24.042 -12.670  -1.119  1.00  0.00    -0.271 OA
HETATM   46  N   UNL     1     -22.174 -13.199  -0.010  1.00  0.00    -0.368 N 
HETATM   47  H   UNL     1     -21.584 -12.841   0.727  1.00  0.00     0.159 HD
HETATM   48  H   UNL     1     -22.673 -14.052   0.218  1.00  0.00     0.159 HD
ENDBRANCH  36  44
ENDBRANCH  34  36
ENDBRANCH   1  32
TORSDOF 20
ENDMDL
MODEL 2
REMARK VINA RESULT:      -6.9      1.699      3.050
REMARK  20 active torsions:
REMARK  status: ('A' for Active; 'I' for Inactive)
REMARK       I    between atoms: C_2  and  N_4 
REMARK    1  A    between atoms: N_4  and  C_5 
REMARK    2  A    between atoms: C_5  and  C_6 
REMARK    3  A    between atoms: C_5  and  C_11 
REMARK    4  A    between atoms: C_6  and  C_7 
REMARK    5  A    between atoms: C_7  and  C_8 
REMARK    6  A    between atoms: C_8  and  C_9 
REMARK    7  A    between atoms: C_9  and  N_10 
REMARK       I    between atoms: C_11  and  N_13 
REMARK    8  A    between atoms: N_13  and  C_14 
REMARK    9  A    between atoms: C_14  and  C_15 
REMARK       I    between atoms: C_15  and  N_17 
REMARK   10  A    between atoms: N_17  and  C_18 
REMARK   11  A    between atoms: C_18  and  C_19 
REMARK   12  A    between atoms: C_18  and  C_26 
REMARK   13  A    between atoms: C_19  and  C_20 
REMARK       I    between atoms: C_26  and  N_28 
REMARK   14  A    between atoms: N_28  and  C_29 
REMARK   15  A    between atoms: C_29  and  C_30 
REMARK   16  A    between atoms: C_29  and  C_35 
REMARK   17  A    between atoms: C_30  and  C_31 
REMARK   18  A    between atoms: C_31  and  C_32 
REMARK   19  A    between atoms: C_32  and  C_33 
REMARK   20  A    between atoms: C_33  and  N_34 
REMARK       I    between atoms: C_35  and  N_37 
ROOT
HETATM    1  C   UNL     1     -19.530  -9.283  -3.682  1.00  0.00     0.182 C 
ENDROOT
BRANCH   1   2
HETATM    2  N   UNL     1     -19.815  -7.901  -4.100  1.00  0.00    -0.346 N 
HETATM    3  C   UNL     1     -20.571  -7.597  -5.208  1.00  0.00     0.236 C 
HETATM    4  O   UNL     1     -21.101  -8.459  -5.909  1.00  0.00    -0.272 OA
HETATM    5  H   UNL     1     -19.590  -7.162  -3.432  1.00  0.00     0.163 HD
BRANCH   3   6
HETATM    6  C   UNL     1     -20.756  -6.109  -5.498  1.00  0.00     0.225 C 
BRANCH   6   7
HETATM    7  N   UNL     1     -21.288  -5.919  -6.827  1.00  0.00    -0.351 N 
HETATM    8  C   UNL     1     -21.400  -4.660  -7.369  1.00  0.00     0.240 C 
HETATM    9  O   UNL     1     -21.112  -3.663  -6.714  1.00  0.00    -0.271 OA
HETATM   10  H   UNL     1     -21.509  -6.721  -7.402  1.00  0.00     0.163 HD
BRANCH   8  11
HETATM   11  C   UNL     1     -21.980  -4.591  -8.804  1.00  0.00     0.176 C 
BRANCH  11  12
HETATM   12  N   UNL     1     -23.148  -3.696  -8.891  1.00  0.00    -0.348 N 
HETATM   13  C   UNL     1     -24.293  -4.063  -9.564  1.00  0.00     0.214 C 
HETATM   14  C   UNL     1     -25.364  -3.006  -9.568  1.00  0.00     0.117 C 
HETATM   15  O   UNL     1     -24.455  -5.165 -10.072  1.00  0.00    -0.274 OA
HETATM   16  H   UNL     1     -23.116  -2.807  -8.409  1.00  0.00     0.163 HD
ENDBRANCH  11  12
BRANCH  11  17
HETATM   17  C   UNL     1     -20.911  -4.116  -9.804  1.00  0.00     0.035 C 
BRANCH  17  18
HETATM   18  C   UNL     1     -21.290  -4.197 -11.291  1.00  0.00     0.004 C 
BRANCH  18  19
HETATM   19  C   UNL     1     -21.733  -2.877 -11.930  1.00  0.00     0.030 C 
BRANCH  19  20
HETATM   20  C   UNL     1     -22.910  -3.063 -12.885  1.00  0.00     0.267 C 
BRANCH  20  21
HETATM   21  N   UNL     1     -23.431  -4.420 -12.806  1.00  0.00     0.078 N 
HETATM   22  H   UNL     1     -23.597  -4.785 -13.743  1.00  0.00     0.312 HD
HETATM   23  H   UNL     1     -24.335  -4.411 -12.335  1.00  0.00     0.312 HD
ENDBRANCH  20  21
ENDBRANCH  19  20
ENDBRANCH  18  19
ENDBRANCH  17  18
ENDBRANCH  11  17
ENDBRANCH   8  11
ENDBRANCH   6   7
ENDBRANCH   3   6
ENDBRANCH   1   2
BRANCH   1  24
HETATM   24  C   UNL     1     -18.109  -9.441  -3.092  1.00  0.00     0.093 C 
BRANCH  24  25
HETATM   25  C   UNL     1     -17.115  -9.975  -4.069  1.00  0.00     0.028 A 
HETATM   26  C   UNL     1     -15.891 -10.591  -3.912  1.00  0.00     0.114 A 
HETATM   27  N   UNL     1     -15.345 -10.913  -5.124  1.00  0.00    -0.360 N 
HETATM   28  C   UNL     1     -16.203 -10.479  -6.016  1.00  0.00     0.180 A 
ATOM     29  HN  UNL     1     -14.460 -11.388  -5.297  1.00  0.00     0.166 HD
HETATM   30  N   UNL     1     -17.291  -9.905  -5.429  1.00  0.00    -0.354 N 
HETATM   31  H   UNL     1     -18.080  -9.497  -5.913  1.00  0.00     0.166 HD
ENDBRANCH  24  25
ENDBRANCH   1  24
BRANCH   1  32
HETATM   32  C   UNL     1     -20.598  -9.777  -2.666  1.00  0.00     0.241 C 
HETATM   33  O   UNL     1     -21.286 -10.772  -2.878  1.00  0.00    -0.271 OA
HETATM   34  N   UNL     1     -20.720  -9.013  -1.518  1.00  0.00    -0.346 N 
HETATM   35  H   UNL     1     -19.949  -8.428  -1.225  1.00  0.00     0.163 HD
BRANCH  34  36
HETATM   36  C   UNL     1     -21.817  -9.211  -0.553  1.00  0.00     0.176 C 
BRANCH  36  37
HETATM   37  C   UNL     1     -21.264  -9.767   0.770  1.00  0.00     0.035 C 
BRANCH  37  38
HETATM   38  C   UNL     1     -20.906 -11.263   0.764  1.00  0.00     0.004 C 
BRANCH  38  39
HETATM   39  C   UNL     1     -22.085 -12.215   0.541  1.00  0.00     0.030 C 
BRANCH  39  40
HETATM   40  C   UNL     1     -22.056 -13.399   1.505  1.00  0.00     0.267 C 
BRANCH  40  41
HETATM   41  N   UNL     1     -23.398 -13.720   1.971  1.00  0.00     0.078 N 
HETATM   42  H   UNL     1     -23.381 -14.577   2.519  1.00  0.00     0.312 HD
HETATM   43  H   UNL     1     -23.998 -13.897   1.166  1.00  0.00     0.312 HD
ENDBRANCH  40  41
ENDBRANCH  39  40
ENDBRANCH  38  39
ENDBRANCH  37  38
ENDBRANCH  36  37
BRANCH  36  44
HETATM   44  C   UNL     1     -22.597  -7.892  -0.318  1.00  0.00     0.238 C 
HETATM   45  O   UNL     1     -22.464  -6.880  -1.004  1.00  0.00    -0.271 OA
HETATM   46  N   UNL     1     -23.534  -7.888   0.681  1.00  0.00    -0.368 N 
HETATM   47  H   UNL     1     -23.334  -8.409   1.523  1.00  0.00     0.159 HD
HETATM   48  H   UNL     1     -23.945  -6.974   0.832  1.00  0.00     0.159 HD
ENDBRANCH  36  44
ENDBRANCH  34  36
ENDBRANCH   1  32
TORSDOF 20
ENDMDL
MODEL 3
REMARK VINA RESULT:      -6.5      2.101      3.133
REMARK  20 active torsions:
REMARK  status: ('A' for Active; 'I' for Inactive)
REMARK       I    between atoms: C_2  and  N_4 
REMARK    1  A    between atoms: N_4  and  C_5 
REMARK    2  A    between atoms: C_5  and  C_6 
REMARK    3  A    between atoms: C_5  and  C_11 
REMARK    4  A    between atoms: C_6  and  C_7 
REMARK    5  A    between atoms: C_7  and  C_8 
REMARK    6  A    between atoms: C_8  and  C_9 
REMARK    7  A    between atoms: C_9  and  N_10 
REMARK       I    between atoms: C_11  and  N_13 
REMARK    8  A    between atoms: N_13  and  C_14 
REMARK    9  A    between atoms: C_14  and  C_15 
REMARK       I    between atoms: C_15  and  N_17 
REMARK   10  A    between atoms: N_17  and  C_18 
REMARK   11  A    between atoms: C_18  and  C_19 
REMARK   12  A    between atoms: C_18  and  C_26 
REMARK   13  A    between atoms: C_19  and  C_20 
REMARK       I    between atoms: C_26  and  N_28 
REMARK   14  A    between atoms: N_28  and  C_29 
REMARK   15  A    between atoms: C_29  and  C_30 
REMARK   16  A    between atoms: C_29  and  C_35 
REMARK   17  A    between atoms: C_30  and  C_31 
REMARK   18  A    between atoms: C_31  and  C_32 
REMARK   19  A    between atoms: C_32  and  C_33 
REMARK   20  A    between atoms: C_33  and  N_34 
REMARK       I    between atoms: C_35  and  N_37 
ROOT
HETATM    1  C   UNL     1     -19.773  -9.563  -3.169  1.00  0.00     0.182 C 
ENDROOT
BRANCH   1   2
HETATM    2  N   UNL     1     -20.396  -8.241  -3.346  1.00  0.00    -0.346 N 
HETATM    3  C   UNL     1     -20.503  -7.625  -4.571  1.00  0.00     0.236 C 
HETATM    4  O   UNL     1     -20.122  -8.151  -5.616  1.00  0.00    -0.272 OA
HETATM    5  H   UNL     1     -20.922  -7.869  -2.554  1.00  0.00     0.163 HD
BRANCH   3   6
HETATM    6  C   UNL     1     -21.170  -6.251  -4.567  1.00  0.00     0.225 C 
BRANCH   6   7
HETATM    7  N   UNL     1     -21.134  -5.671  -5.890  1.00  0.00    -0.351 N 
HETATM    8  C   UNL     1     -22.283  -5.223  -6.495  1.00  0.00     0.240 C 
HETATM    9  O   UNL     1     -23.377  -5.361  -5.956  1.00  0.00    -0.271 OA
HETATM   10  H   UNL     1     -20.246  -5.518  -6.349  1.00  0.00     0.163 HD
BRANCH   8  11
HETATM   11  C   UNL     1     -22.110  -4.617  -7.911  1.00  0.00     0.176 C 
BRANCH  11  12
HETATM   12  N   UNL     1     -23.282  -3.826  -8.327  1.00  0.00    -0.348 N 
HETATM   13  C   UNL     1     -23.970  -4.106  -9.487  1.00  0.00     0.214 C 
HETATM   14  C   UNL     1     -25.118  -3.172  -9.756  1.00  0.00     0.117 C 
HETATM   15  O   UNL     1     -23.713  -5.058 -10.213  1.00  0.00    -0.274 OA
HETATM   16  H   UNL     1     -23.608  -3.085  -7.720  1.00  0.00     0.163 HD
ENDBRANCH  11  12
BRANCH  11  17
HETATM   17  C   UNL     1     -20.857  -3.725  -7.976  1.00  0.00     0.035 C 
BRANCH  17  18
HETATM   18  C   UNL     1     -19.759  -4.169  -8.955  1.00  0.00     0.004 C 
BRANCH  18  19
HETATM   19  C   UNL     1     -20.250  -4.606 -10.339  1.00  0.00     0.030 C 
BRANCH  19  20
HETATM   20  C   UNL     1     -20.715  -3.424 -11.187  1.00  0.00     0.267 C 
BRANCH  20  21
HETATM   21  N   UNL     1     -21.555  -3.875 -12.287  1.00  0.00     0.078 N 
HETATM   22  H   UNL     1     -22.058  -4.719 -12.018  1.00  0.00     0.312 HD
HETATM   23  H   UNL     1     -20.969  -4.128 -13.081  1.00  0.00     0.312 HD
ENDBRANCH  20  21
ENDBRANCH  19  20
ENDBRANCH  18  19
ENDBRANCH  17  18
ENDBRANCH  11  17
ENDBRANCH   8  11
ENDBRANCH   6   7
ENDBRANCH   3   6
ENDBRANCH   1   2
BRANCH   1  24
HETATM   24  C   UNL     1     -18.295  -9.464  -2.723  1.00  0.00     0.093 C 
BRANCH  24  25
HETATM   25  C   UNL     1     -17.322  -9.720  -3.826  1.00  0.00     0.028 A 
HETATM   26  C   UNL     1     -15.947  -9.811  -3.854  1.00  0.00     0.114 A 
HETATM   27  N   UNL     1     -15.498 -10.071  -5.119  1.00  0.00    -0.360 N 
HETATM   28  C   UNL     1     -16.575 -10.113  -5.867  1.00  0.00     0.180 A 
ATOM     29  HN  UNL     1     -14.532 -10.202  -5.418  1.00  0.00     0.166 HD
HETATM   30  N   UNL     1     -17.704  -9.909  -5.131  1.00  0.00    -0.354 N 
HETATM   31  H   UNL     1     -18.650  -9.893  -5.489  1.00  0.00     0.166 HD
ENDBRANCH  24  25
ENDBRANCH   1  24
BRANCH   1  32
HETATM   32  C   UNL     1     -20.589 -10.419  -2.161  1.00  0.00     0.241 C 
HETATM   33  O   UNL     1     -20.461 -10.292  -0.946  1.00  0.00    -0.271 OA
HETATM   34  N   UNL     1     -21.457 -11.335  -2.731  1.00  0.00    -0.346 N 
HETATM   35  H   UNL     1     -21.780 -11.193  -3.678  1.00  0.00     0.163 HD
BRANCH  34  36
HETATM   36  C   UNL     1     -22.147 -12.366  -1.934  1.00  0.00     0.176 C 
BRANCH  36  37
HETATM   37  C   UNL     1     -23.535 -11.861  -1.504  1.00  0.00     0.035 C 
BRANCH  37  38
HETATM   38  C   UNL     1     -23.754 -11.734   0.013  1.00  0.00     0.004 C 
BRANCH  38  39
HETATM   39  C   UNL     1     -22.740 -12.483   0.884  1.00  0.00     0.030 C 
BRANCH  39  40
HETATM   40  C   UNL     1     -23.265 -13.845   1.333  1.00  0.00     0.267 C 
BRANCH  40  41
HETATM   41  N   UNL     1     -22.617 -14.266   2.568  1.00  0.00     0.078 N 
HETATM   42  H   UNL     1     -23.080 -13.839   3.367  1.00  0.00     0.312 HD
HETATM   43  H   UNL     1     -21.654 -13.931   2.572  1.00  0.00     0.312 HD
ENDBRANCH  40  41
ENDBRANCH  39  40
ENDBRANCH  38  39
ENDBRANCH  37  38
ENDBRANCH  36  37
BRANCH  36  44
HETATM   44  C   UNL     1     -22.261 -13.696  -2.723  1.00  0.00     0.238 C 
HETATM   45  O   UNL     1     -21.991 -14.800  -2.256  1.00  0.00    -0.271 OA
HETATM   46  N   UNL     1     -22.755 -13.626  -3.999  1.00  0.00    -0.368 N 
HETATM   47  H   UNL     1     -22.504 -12.827  -4.563  1.00  0.00     0.159 HD
HETATM   48  H   UNL     1     -22.725 -14.517  -4.482  1.00  0.00     0.159 HD
ENDBRANCH  36  44
ENDBRANCH  34  36
ENDBRANCH   1  32
TORSDOF 20
ENDMDL
MODEL 4
REMARK VINA RESULT:      -6.4      5.782     11.431
REMARK  20 active torsions:
REMARK  status: ('A' for Active; 'I' for Inactive)
REMARK       I    between atoms: C_2  and  N_4 
REMARK    1  A    between atoms: N_4  and  C_5 
REMARK    2  A    between atoms: C_5  and  C_6 
REMARK    3  A    between atoms: C_5  and  C_11 
REMARK    4  A    between atoms: C_6  and  C_7 
REMARK    5  A    between atoms: C_7  and  C_8 
REMARK    6  A    between atoms: C_8  and  C_9 
REMARK    7  A    between atoms: C_9  and  N_10 
REMARK       I    between atoms: C_11  and  N_13 
REMARK    8  A    between atoms: N_13  and  C_14 
REMARK    9  A    between atoms: C_14  and  C_15 
REMARK       I    between atoms: C_15  and  N_17 
REMARK   10  A    between atoms: N_17  and  C_18 
REMARK   11  A    between atoms: C_18  and  C_19 
REMARK   12  A    between atoms: C_18  and  C_26 
REMARK   13  A    between atoms: C_19  and  C_20 
REMARK       I    between atoms: C_26  and  N_28 
REMARK   14  A    between atoms: N_28  and  C_29 
REMARK   15  A    between atoms: C_29  and  C_30 
REMARK   16  A    between atoms: C_29  and  C_35 
REMARK   17  A    between atoms: C_30  and  C_31 
REMARK   18  A    between atoms: C_31  and  C_32 
REMARK   19  A    between atoms: C_32  and  C_33 
REMARK   20  A    between atoms: C_33  and  N_34 
REMARK       I    between atoms: C_35  and  N_37 
ROOT
HETATM    1  C   UNL     1     -23.604  -4.014 -13.516  1.00  0.00     0.182 C 
ENDROOT
BRANCH   1   2
HETATM    2  N   UNL     1     -24.447  -5.211 -13.660  1.00  0.00    -0.346 N 
HETATM    3  C   UNL     1     -24.873  -5.681 -14.881  1.00  0.00     0.236 C 
HETATM    4  O   UNL     1     -24.546  -5.159 -15.946  1.00  0.00    -0.272 OA
HETATM    5  H   UNL     1     -24.556  -5.801 -12.834  1.00  0.00     0.163 HD
BRANCH   3   6
HETATM    6  C   UNL     1     -25.750  -6.932 -14.841  1.00  0.00     0.225 C 
BRANCH   6   7
HETATM    7  N   UNL     1     -26.393  -7.134 -16.118  1.00  0.00    -0.351 N 
HETATM    8  C   UNL     1     -27.605  -6.548 -16.398  1.00  0.00     0.240 C 
HETATM    9  O   UNL     1     -28.200  -5.892 -15.549  1.00  0.00    -0.271 OA
HETATM   10  H   UNL     1     -25.916  -7.646 -16.849  1.00  0.00     0.163 HD
BRANCH   8  11
HETATM   11  C   UNL     1     -28.187  -6.838 -17.805  1.00  0.00     0.176 C 
BRANCH  11  12
HETATM   12  N   UNL     1     -29.654  -6.703 -17.840  1.00  0.00    -0.348 N 
HETATM   13  C   UNL     1     -30.452  -7.631 -18.472  1.00  0.00     0.214 C 
HETATM   14  C   UNL     1     -31.920  -7.306 -18.426  1.00  0.00     0.117 C 
HETATM   15  O   UNL     1     -30.021  -8.657 -18.983  1.00  0.00    -0.274 OA
HETATM   16  H   UNL     1     -30.083  -5.927 -17.352  1.00  0.00     0.163 HD
ENDBRANCH  11  12
BRANCH  11  17
HETATM   17  C   UNL     1     -27.573  -5.896 -18.856  1.00  0.00     0.035 C 
BRANCH  17  18
HETATM   18  C   UNL     1     -26.842  -6.571 -20.027  1.00  0.00     0.004 C 
BRANCH  18  19
HETATM   19  C   UNL     1     -25.341  -6.277 -20.122  1.00  0.00     0.030 C 
BRANCH  19  20
HETATM   20  C   UNL     1     -24.491  -7.471 -19.695  1.00  0.00     0.267 C 
BRANCH  20  21
HETATM   21  N   UNL     1     -23.838  -7.211 -18.420  1.00  0.00     0.078 N 
HETATM   22  H   UNL     1     -23.014  -6.628 -18.562  1.00  0.00     0.312 HD
HETATM   23  H   UNL     1     -23.505  -8.089 -18.023  1.00  0.00     0.312 HD
ENDBRANCH  20  21
ENDBRANCH  19  20
ENDBRANCH  18  19
ENDBRANCH  17  18
ENDBRANCH  11  17
ENDBRANCH   8  11
ENDBRANCH   6   7
ENDBRANCH   3   6
ENDBRANCH   1   2
BRANCH   1  24
HETATM   24  C   UNL     1     -24.433  -2.709 -13.473  1.00  0.00     0.093 C 
BRANCH  24  25
HETATM   25  C   UNL     1     -23.989  -1.688 -14.467  1.00  0.00     0.028 A 
HETATM   26  C   UNL     1     -22.928  -1.642 -15.347  1.00  0.00     0.114 A 
HETATM   27  N   UNL     1     -22.940  -0.482 -16.071  1.00  0.00    -0.360 N 
HETATM   28  C   UNL     1     -23.975   0.191 -15.628  1.00  0.00     0.180 A 
ATOM     29  HN  UNL     1     -22.284  -0.200 -16.799  1.00  0.00     0.166 HD
HETATM   30  N   UNL     1     -24.643  -0.496 -14.658  1.00  0.00    -0.354 N 
HETATM   31  H   UNL     1     -25.468  -0.177 -14.167  1.00  0.00     0.166 HD
ENDBRANCH  24  25
ENDBRANCH   1  24
BRANCH   1  32
HETATM   32  C   UNL     1     -22.705  -4.128 -12.253  1.00  0.00     0.241 C 
HETATM   33  O   UNL     1     -21.479  -4.111 -12.323  1.00  0.00    -0.271 OA
HETATM   34  N   UNL     1     -23.385  -4.258 -11.054  1.00  0.00    -0.346 N 
HETATM   35  H   UNL     1     -24.343  -3.943 -10.988  1.00  0.00     0.163 HD
BRANCH  34  36
HETATM   36  C   UNL     1     -22.698  -4.587  -9.791  1.00  0.00     0.176 C 
BRANCH  36  37
HETATM   37  C   UNL     1     -21.313  -3.917  -9.752  1.00  0.00     0.035 C 
BRANCH  37  38
HETATM   38  C   UNL     1     -20.181  -4.767  -9.152  1.00  0.00     0.004 C 
BRANCH  38  39
HETATM   39  C   UNL     1     -19.764  -4.388  -7.728  1.00  0.00     0.030 C 
BRANCH  39  40
HETATM   40  C   UNL     1     -19.782  -5.589  -6.786  1.00  0.00     0.267 C 
BRANCH  40  41
HETATM   41  N   UNL     1     -20.941  -6.431  -7.045  1.00  0.00     0.078 N 
HETATM   42  H   UNL     1     -21.740  -6.098  -6.510  1.00  0.00     0.312 HD
HETATM   43  H   UNL     1     -20.746  -7.378  -6.724  1.00  0.00     0.312 HD
ENDBRANCH  40  41
ENDBRANCH  39  40
ENDBRANCH  38  39
ENDBRANCH  37  38
ENDBRANCH  36  37
BRANCH  36  44
HETATM   44  C   UNL     1     -23.551  -4.168  -8.567  1.00  0.00     0.238 C 
HETATM   45  O   UNL     1     -23.273  -4.450  -7.403  1.00  0.00    -0.271 OA
HETATM   46  N   UNL     1     -24.647  -3.382  -8.808  1.00  0.00    -0.368 N 
HETATM   47  H   UNL     1     -25.180  -3.553  -9.648  1.00  0.00     0.159 HD
HETATM   48  H   UNL     1     -25.202  -3.214  -7.976  1.00  0.00     0.159 HD
ENDBRANCH  36  44
ENDBRANCH  34  36
ENDBRANCH   1  32
TORSDOF 20
ENDMDL
MODEL 5
REMARK VINA RESULT:      -6.2      2.366      9.363
REMARK  20 active torsions:
REMARK  status: ('A' for Active; 'I' for Inactive)
REMARK       I    between atoms: C_2  and  N_4 
REMARK    1  A    between atoms: N_4  and  C_5 
REMARK    2  A    between atoms: C_5  and  C_6 
REMARK    3  A    between atoms: C_5  and  C_11 
REMARK    4  A    between atoms: C_6  and  C_7 
REMARK    5  A    between atoms: C_7  and  C_8 
REMARK    6  A    between atoms: C_8  and  C_9 
REMARK    7  A    between atoms: C_9  and  N_10 
REMARK       I    between atoms: C_11  and  N_13 
REMARK    8  A    between atoms: N_13  and  C_14 
REMARK    9  A    between atoms: C_14  and  C_15 
REMARK       I    between atoms: C_15  and  N_17 
REMARK   10  A    between atoms: N_17  and  C_18 
REMARK   11  A    between atoms: C_18  and  C_19 
REMARK   12  A    between atoms: C_18  and  C_26 
REMARK   13  A    between atoms: C_19  and  C_20 
REMARK       I    between atoms: C_26  and  N_28 
REMARK   14  A    between atoms: N_28  and  C_29 
REMARK   15  A    between atoms: C_29  and  C_30 
REMARK   16  A    between atoms: C_29  and  C_35 
REMARK   17  A    between atoms: C_30  and  C_31 
REMARK   18  A    between atoms: C_31  and  C_32 
REMARK   19  A    between atoms: C_32  and  C_33 
REMARK   20  A    between atoms: C_33  and  N_34 
REMARK       I    between atoms: C_35  and  N_37 
ROOT
HETATM    1  C   UNL     1     -21.181  -7.427  -4.176  1.00  0.00     0.182 C 
ENDROOT
BRANCH   1   2
HETATM    2  N   UNL     1     -20.607  -8.545  -4.942  1.00  0.00    -0.346 N 
HETATM    3  C   UNL     1     -21.059  -9.839  -4.826  1.00  0.00     0.236 C 
HETATM    4  O   UNL     1     -22.005 -10.151  -4.103  1.00  0.00    -0.272 OA
HETATM    5  H   UNL     1     -19.981  -8.304  -5.711  1.00  0.00     0.163 HD
BRANCH   3   6
HETATM    6  C   UNL     1     -20.340 -10.874  -5.690  1.00  0.00     0.225 C 
BRANCH   6   7
HETATM    7  N   UNL     1     -19.033 -11.161  -5.147  1.00  0.00    -0.351 N 
HETATM    8  C   UNL     1     -17.924 -10.472  -5.577  1.00  0.00     0.240 C 
HETATM    9  O   UNL     1     -18.006  -9.641  -6.477  1.00  0.00    -0.271 OA
HETATM   10  H   UNL     1     -18.937 -11.819  -4.385  1.00  0.00     0.163 HD
BRANCH   8  11
HETATM   11  C   UNL     1     -16.582 -10.869  -4.913  1.00  0.00     0.176 C 
BRANCH  11  12
HETATM   12  N   UNL     1     -15.583 -11.318  -5.899  1.00  0.00    -0.348 N 
HETATM   13  C   UNL     1     -14.629 -12.261  -5.585  1.00  0.00     0.214 C 
HETATM   14  C   UNL     1     -13.681 -12.568  -6.713  1.00  0.00     0.117 C 
HETATM   15  O   UNL     1     -14.581 -12.842  -4.509  1.00  0.00    -0.274 OA
HETATM   16  H   UNL     1     -15.628 -10.947  -6.839  1.00  0.00     0.163 HD
ENDBRANCH  11  12
BRANCH  11  17
HETATM   17  C   UNL     1     -15.999  -9.692  -4.110  1.00  0.00     0.035 C 
BRANCH  17  18
HETATM   18  C   UNL     1     -16.231  -9.725  -2.592  1.00  0.00     0.004 C 
BRANCH  18  19
HETATM   19  C   UNL     1     -15.869 -11.043  -1.900  1.00  0.00     0.030 C 
BRANCH  19  20
HETATM   20  C   UNL     1     -17.035 -11.611  -1.092  1.00  0.00     0.267 C 
BRANCH  20  21
HETATM   21  N   UNL     1     -18.309 -11.219  -1.677  1.00  0.00     0.078 N 
HETATM   22  H   UNL     1     -18.296 -11.382  -2.683  1.00  0.00     0.312 HD
HETATM   23  H   UNL     1     -18.449 -10.217  -1.548  1.00  0.00     0.312 HD
ENDBRANCH  20  21
ENDBRANCH  19  20
ENDBRANCH  18  19
ENDBRANCH  17  18
ENDBRANCH  11  17
ENDBRANCH   8  11
ENDBRANCH   6   7
ENDBRANCH   3   6
ENDBRANCH   1   2
BRANCH   1  24
HETATM   24  C   UNL     1     -20.585  -7.319  -2.753  1.00  0.00     0.093 C 
BRANCH  24  25
HETATM   25  C   UNL     1     -21.543  -7.706  -1.675  1.00  0.00     0.028 A 
HETATM   26  C   UNL     1     -22.353  -6.968  -0.838  1.00  0.00     0.114 A 
HETATM   27  N   UNL     1     -23.070  -7.782  -0.005  1.00  0.00    -0.360 N 
HETATM   28  C   UNL     1     -22.690  -9.002  -0.303  1.00  0.00     0.180 A 
ATOM     29  HN  UNL     1     -23.753  -7.501   0.698  1.00  0.00     0.166 HD
HETATM   30  N   UNL     1     -21.769  -9.009  -1.308  1.00  0.00    -0.354 N 
HETATM   31  H   UNL     1     -21.329  -9.830  -1.704  1.00  0.00     0.166 HD
ENDBRANCH  24  25
ENDBRANCH   1  24
BRANCH   1  32
HETATM   32  C   UNL     1     -21.000  -6.089  -4.945  1.00  0.00     0.241 C 
HETATM   33  O   UNL     1     -20.547  -5.084  -4.403  1.00  0.00    -0.271 OA
HETATM   34  N   UNL     1     -21.390  -6.113  -6.273  1.00  0.00    -0.346 N 
HETATM   35  H   UNL     1     -21.438  -6.996  -6.763  1.00  0.00     0.163 HD
BRANCH  34  36
HETATM   36  C   UNL     1     -21.484  -4.887  -7.088  1.00  0.00     0.176 C 
BRANCH  36  37
HETATM   37  C   UNL     1     -20.739  -5.078  -8.420  1.00  0.00     0.035 C 
BRANCH  37  38
HETATM   38  C   UNL     1     -21.495  -4.612  -9.676  1.00  0.00     0.004 C 
BRANCH  38  39
HETATM   39  C   UNL     1     -20.685  -3.737 -10.638  1.00  0.00     0.030 C 
BRANCH  39  40
HETATM   40  C   UNL     1     -21.582  -2.950 -11.591  1.00  0.00     0.267 C 
BRANCH  40  41
HETATM   41  N   UNL     1     -21.849  -3.717 -12.799  1.00  0.00     0.078 N 
HETATM   42  H   UNL     1     -21.059  -4.323 -13.009  1.00  0.00     0.312 HD
HETATM   43  H   UNL     1     -21.947  -3.077 -13.586  1.00  0.00     0.312 HD
ENDBRANCH  40  41
ENDBRANCH  39  40
ENDBRANCH  38  39
ENDBRANCH  37  38
ENDBRANCH  36  37
BRANCH  36  44
HETATM   44  C   UNL     1     -22.964  -4.493  -7.331  1.00  0.00     0.238 C 
HETATM   45  O   UNL     1     -23.353  -3.835  -8.295  1.00  0.00    -0.271 OA
HETATM   46  N   UNL     1     -23.892  -4.967  -6.443  1.00  0.00    -0.368 N 
HETATM   47  H   UNL     1     -23.632  -5.026  -5.469  1.00  0.00     0.159 HD
HETATM   48  H   UNL     1     -24.824  -4.605  -6.616  1.00  0.00     0.159 HD
ENDBRANCH  36  44
ENDBRANCH  34  36
ENDBRANCH   1  32
TORSDOF 20
ENDMDL
MODEL 6
REMARK VINA RESULT:      -6.2      2.566      5.671
REMARK  20 active torsions:
REMARK  status: ('A' for Active; 'I' for Inactive)
REMARK       I    between atoms: C_2  and  N_4 
REMARK    1  A    between atoms: N_4  and  C_5 
REMARK    2  A    between atoms: C_5  and  C_6 
REMARK    3  A    between atoms: C_5  and  C_11 
REMARK    4  A    between atoms: C_6  and  C_7 
REMARK    5  A    between atoms: C_7  and  C_8 
REMARK    6  A    between atoms: C_8  and  C_9 
REMARK    7  A    between atoms: C_9  and  N_10 
REMARK       I    between atoms: C_11  and  N_13 
REMARK    8  A    between atoms: N_13  and  C_14 
REMARK    9  A    between atoms: C_14  and  C_15 
REMARK       I    between atoms: C_15  and  N_17 
REMARK   10  A    between atoms: N_17  and  C_18 
REMARK   11  A    between atoms: C_18  and  C_19 
REMARK   12  A    between atoms: C_18  and  C_26 
REMARK   13  A    between atoms: C_19  and  C_20 
REMARK       I    between atoms: C_26  and  N_28 
REMARK   14  A    between atoms: N_28  and  C_29 
REMARK   15  A    between atoms: C_29  and  C_30 
REMARK   16  A    between atoms: C_29  and  C_35 
REMARK   17  A    between atoms: C_30  and  C_31 
REMARK   18  A    between atoms: C_31  and  C_32 
REMARK   19  A    between atoms: C_32  and  C_33 
REMARK   20  A    between atoms: C_33  and  N_34 
REMARK       I    between atoms: C_35  and  N_37 
ROOT
HETATM    1  C   UNL     1     -20.072  -7.199  -5.561  1.00  0.00     0.182 C 
ENDROOT
BRANCH   1   2
HETATM    2  N   UNL     1     -19.836  -6.747  -6.942  1.00  0.00    -0.346 N 
HETATM    3  C   UNL     1     -19.653  -5.425  -7.274  1.00  0.00     0.236 C 
HETATM    4  O   UNL     1     -19.632  -4.526  -6.434  1.00  0.00    -0.272 OA
HETATM    5  H   UNL     1     -19.624  -7.469  -7.633  1.00  0.00     0.163 HD
BRANCH   3   6
HETATM    6  C   UNL     1     -19.431  -5.137  -8.758  1.00  0.00     0.225 C 
BRANCH   6   7
HETATM    7  N   UNL     1     -20.669  -4.735  -9.382  1.00  0.00    -0.351 N 
HETATM    8  C   UNL     1     -20.691  -4.287 -10.681  1.00  0.00     0.240 C 
HETATM    9  O   UNL     1     -19.653  -4.157 -11.322  1.00  0.00    -0.271 OA
HETATM   10  H   UNL     1     -21.545  -4.856  -8.890  1.00  0.00     0.163 HD
BRANCH   8  11
HETATM   11  C   UNL     1     -22.082  -3.891 -11.237  1.00  0.00     0.176 C 
BRANCH  11  12
HETATM   12  N   UNL     1     -22.058  -3.666 -12.693  1.00  0.00    -0.348 N 
HETATM   13  C   UNL     1     -22.996  -2.876 -13.320  1.00  0.00     0.214 C 
HETATM   14  C   UNL     1     -22.824  -2.791 -14.812  1.00  0.00     0.117 C 
HETATM   15  O   UNL     1     -23.863  -2.252 -12.721  1.00  0.00    -0.274 OA
HETATM   16  H   UNL     1     -21.308  -4.075 -13.236  1.00  0.00     0.163 HD
ENDBRANCH  11  12
BRANCH  11  17
HETATM   17  C   UNL     1     -23.129  -4.973 -10.915  1.00  0.00     0.035 C 
BRANCH  17  18
HETATM   18  C   UNL     1     -24.384  -4.500 -10.165  1.00  0.00     0.004 C 
BRANCH  18  19
HETATM   19  C   UNL     1     -24.127  -3.565  -8.978  1.00  0.00     0.030 C 
BRANCH  19  20
HETATM   20  C   UNL     1     -23.450  -4.283  -7.813  1.00  0.00     0.267 C 
BRANCH  20  21
HETATM   21  N   UNL     1     -22.368  -3.476  -7.267  1.00  0.00     0.078 N 
HETATM   22  H   UNL     1     -22.053  -2.799  -7.961  1.00  0.00     0.312 HD
HETATM   23  H   UNL     1     -21.567  -4.074  -7.063  1.00  0.00     0.312 HD
ENDBRANCH  20  21
ENDBRANCH  19  20
ENDBRANCH  18  19
ENDBRANCH  17  18
ENDBRANCH  11  17
ENDBRANCH   8  11
ENDBRANCH   6   7
ENDBRANCH   3   6
ENDBRANCH   1   2
BRANCH   1  24
HETATM   24  C   UNL     1     -21.519  -6.928  -5.090  1.00  0.00     0.093 C 
BRANCH  24  25
HETATM   25  C   UNL     1     -21.682  -6.976  -3.606  1.00  0.00     0.028 A 
HETATM   26  C   UNL     1     -21.326  -7.913  -2.659  1.00  0.00     0.114 A 
HETATM   27  N   UNL     1     -21.684  -7.503  -1.405  1.00  0.00    -0.360 N 
HETATM   28  C   UNL     1     -22.275  -6.345  -1.575  1.00  0.00     0.180 A 
ATOM     29  HN  UNL     1     -21.526  -7.994  -0.525  1.00  0.00     0.166 HD
HETATM   30  N   UNL     1     -22.297  -5.981  -2.888  1.00  0.00    -0.354 N 
HETATM   31  H   UNL     1     -22.703  -5.133  -3.262  1.00  0.00     0.166 HD
ENDBRANCH  24  25
ENDBRANCH   1  24
BRANCH   1  32
HETATM   32  C   UNL     1     -19.726  -8.707  -5.414  1.00  0.00     0.241 C 
HETATM   33  O   UNL     1     -20.544  -9.590  -5.663  1.00  0.00    -0.271 OA
HETATM   34  N   UNL     1     -18.440  -8.979  -4.978  1.00  0.00    -0.346 N 
HETATM   35  H   UNL     1     -17.715  -8.285  -5.101  1.00  0.00     0.163 HD
BRANCH  34  36
HETATM   36  C   UNL     1     -18.012 -10.334  -4.584  1.00  0.00     0.176 C 
BRANCH  36  37
HETATM   37  C   UNL     1     -16.855 -10.806  -5.482  1.00  0.00     0.035 C 
BRANCH  37  38
HETATM   38  C   UNL     1     -17.077 -12.147  -6.201  1.00  0.00     0.004 C 
BRANCH  38  39
HETATM   39  C   UNL     1     -18.525 -12.648  -6.215  1.00  0.00     0.030 C 
BRANCH  39  40
HETATM   40  C   UNL     1     -19.236 -12.310  -7.523  1.00  0.00     0.267 C 
BRANCH  40  41
HETATM   41  N   UNL     1     -18.417 -12.682  -8.668  1.00  0.00     0.078 N 
HETATM   42  H   UNL     1     -18.125 -11.848  -9.173  1.00  0.00     0.312 HD
HETATM   43  H   UNL     1     -18.976 -13.238  -9.313  1.00  0.00     0.312 HD
ENDBRANCH  40  41
ENDBRANCH  39  40
ENDBRANCH  38  39
ENDBRANCH  37  38
ENDBRANCH  36  37
BRANCH  36  44
HETATM   44  C   UNL     1     -17.607 -10.377  -3.089  1.00  0.00     0.238 C 
HETATM   45  O   UNL     1     -18.408 -10.425  -2.158  1.00  0.00    -0.271 OA
HETATM   46  N   UNL     1     -16.268 -10.428  -2.805  1.00  0.00    -0.368 N 
HETATM   47  H   UNL     1     -15.636  -9.902  -3.392  1.00  0.00     0.159 HD
HETATM   48  H   UNL     1     -16.073 -10.372  -1.811  1.00  0.00     0.159 HD
ENDBRANCH  36  44
ENDBRANCH  34  36
ENDBRANCH   1  32
TORSDOF 20
ENDMDL
MODEL 7
REMARK VINA RESULT:      -6.2      2.542      9.003
REMARK  20 active torsions:
REMARK  status: ('A' for Active; 'I' for Inactive)
REMARK       I    between atoms: C_2  and  N_4 
REMARK    1  A    between atoms: N_4  and  C_5 
REMARK    2  A    between atoms: C_5  and  C_6 
REMARK    3  A    between atoms: C_5  and  C_11 
REMARK    4  A    between atoms: C_6  and  C_7 
REMARK    5  A    between atoms: C_7  and  C_8 
REMARK    6  A    between atoms: C_8  and  C_9 
REMARK    7  A    between atoms: C_9  and  N_10 
REMARK       I    between atoms: C_11  and  N_13 
REMARK    8  A    between atoms: N_13  and  C_14 
REMARK    9  A    between atoms: C_14  and  C_15 
REMARK       I    between atoms: C_15  and  N_17 
REMARK   10  A    between atoms: N_17  and  C_18 
REMARK   11  A    between atoms: C_18  and  C_19 
REMARK   12  A    between atoms: C_18  and  C_26 
REMARK   13  A    between atoms: C_19  and  C_20 
REMARK       I    between atoms: C_26  and  N_28 
REMARK   14  A    between atoms: N_28  and  C_29 
REMARK   15  A    between atoms: C_29  and  C_30 
REMARK   16  A    between atoms: C_29  and  C_35 
REMARK   17  A    between atoms: C_30  and  C_31 
REMARK   18  A    between atoms: C_31  and  C_32 
REMARK   19  A    between atoms: C_32  and  C_33 
REMARK   20  A    between atoms: C_33  and  N_34 
REMARK       I    between atoms: C_35  and  N_37 
ROOT
HETATM    1  C   UNL     1     -20.036 -10.351  -4.694  1.00  0.00     0.182 C 
ENDROOT
BRANCH   1   2
HETATM    2  N   UNL     1     -20.132 -11.071  -3.413  1.00  0.00    -0.346 N 
HETATM    3  C   UNL     1     -19.080 -11.770  -2.869  1.00  0.00     0.236 C 
HETATM    4  O   UNL     1     -17.967 -11.812  -3.393  1.00  0.00    -0.272 OA
HETATM    5  H   UNL     1     -20.955 -10.881  -2.839  1.00  0.00     0.163 HD
BRANCH   3   6
HETATM    6  C   UNL     1     -19.362 -12.464  -1.537  1.00  0.00     0.225 C 
BRANCH   6   7
HETATM    7  N   UNL     1     -20.773 -12.741  -1.405  1.00  0.00    -0.351 N 
HETATM    8  C   UNL     1     -21.459 -12.385  -0.268  1.00  0.00     0.240 C 
HETATM    9  O   UNL     1     -20.878 -11.881   0.688  1.00  0.00    -0.271 OA
HETATM   10  H   UNL     1     -21.287 -13.130  -2.186  1.00  0.00     0.163 HD
BRANCH   8  11
HETATM   11  C   UNL     1     -22.969 -12.733  -0.252  1.00  0.00     0.176 C 
BRANCH  11  12
HETATM   12  N   UNL     1     -23.288 -13.787   0.727  1.00  0.00    -0.348 N 
HETATM   13  C   UNL     1     -23.395 -15.110   0.357  1.00  0.00     0.214 C 
HETATM   14  C   UNL     1     -23.756 -16.033   1.490  1.00  0.00     0.117 C 
HETATM   15  O   UNL     1     -23.169 -15.517  -0.775  1.00  0.00    -0.274 OA
HETATM   16  H   UNL     1     -23.392 -13.532   1.701  1.00  0.00     0.163 HD
ENDBRANCH  11  12
BRANCH  11  17
HETATM   17  C   UNL     1     -23.814 -11.486   0.063  1.00  0.00     0.035 C 
BRANCH  17  18
HETATM   18  C   UNL     1     -23.420 -10.195  -0.671  1.00  0.00     0.004 C 
BRANCH  18  19
HETATM   19  C   UNL     1     -23.062  -9.009   0.230  1.00  0.00     0.030 C 
BRANCH  19  20
HETATM   20  C   UNL     1     -21.976  -8.125  -0.382  1.00  0.00     0.267 C 
BRANCH  20  21
HETATM   21  N   UNL     1     -20.788  -8.906  -0.693  1.00  0.00     0.078 N 
HETATM   22  H   UNL     1     -20.181  -8.381  -1.321  1.00  0.00     0.312 HD
HETATM   23  H   UNL     1     -21.058  -9.752  -1.194  1.00  0.00     0.312 HD
ENDBRANCH  20  21
ENDBRANCH  19  20
ENDBRANCH  18  19
ENDBRANCH  17  18
ENDBRANCH  11  17
ENDBRANCH   8  11
ENDBRANCH   6   7
ENDBRANCH   3   6
ENDBRANCH   1   2
BRANCH   1  24
HETATM   24  C   UNL     1     -21.211 -10.680  -5.645  1.00  0.00     0.093 C 
BRANCH  24  25
HETATM   25  C   UNL     1     -21.077 -12.005  -6.320  1.00  0.00     0.028 A 
HETATM   26  C   UNL     1     -20.156 -12.509  -7.214  1.00  0.00     0.114 A 
HETATM   27  N   UNL     1     -20.453 -13.801  -7.550  1.00  0.00    -0.360 N 
HETATM   28  C   UNL     1     -21.554 -14.084  -6.895  1.00  0.00     0.180 A 
ATOM     29  HN  UNL     1     -19.930 -14.413  -8.176  1.00  0.00     0.166 HD
HETATM   30  N   UNL     1     -21.971 -13.031  -6.136  1.00  0.00    -0.354 N 
HETATM   31  H   UNL     1     -22.795 -13.013  -5.550  1.00  0.00     0.166 HD
ENDBRANCH  24  25
ENDBRANCH   1  24
BRANCH   1  32
HETATM   32  C   UNL     1     -19.944  -8.819  -4.453  1.00  0.00     0.241 C 
HETATM   33  O   UNL     1     -19.568  -8.350  -3.382  1.00  0.00    -0.271 OA
HETATM   34  N   UNL     1     -20.322  -8.029  -5.526  1.00  0.00    -0.346 N 
HETATM   35  H   UNL     1     -20.303  -8.414  -6.460  1.00  0.00     0.163 HD
BRANCH  34  36
HETATM   36  C   UNL     1     -20.496  -6.569  -5.405  1.00  0.00     0.176 C 
BRANCH  36  37
HETATM   37  C   UNL     1     -20.483  -5.918  -6.798  1.00  0.00     0.035 C 
BRANCH  37  38
HETATM   38  C   UNL     1     -20.190  -4.408  -6.822  1.00  0.00     0.004 C 
BRANCH  38  39
HETATM   39  C   UNL     1     -21.331  -3.529  -7.343  1.00  0.00     0.030 C 
BRANCH  39  40
HETATM   40  C   UNL     1     -22.381  -4.341  -8.099  1.00  0.00     0.267 C 
BRANCH  40  41
HETATM   41  N   UNL     1     -23.676  -4.251  -7.439  1.00  0.00     0.078 N 
HETATM   42  H   UNL     1     -24.339  -4.880  -7.886  1.00  0.00     0.312 HD
HETATM   43  H   UNL     1     -24.044  -3.307  -7.550  1.00  0.00     0.312 HD
ENDBRANCH  40  41
ENDBRANCH  39  40
ENDBRANCH  38  39
ENDBRANCH  37  38
ENDBRANCH  36  37
BRANCH  36  44
HETATM   44  C   UNL     1     -21.803  -6.226  -4.645  1.00  0.00     0.238 C 
HETATM   45  O   UNL     1     -22.915  -6.182  -5.168  1.00  0.00    -0.271 OA
HETATM   46  N   UNL     1     -21.706  -6.024  -3.293  1.00  0.00    -0.368 N 
HETATM   47  H   UNL     1     -20.884  -5.556  -2.940  1.00  0.00     0.159 HD
HETATM   48  H   UNL     1     -22.581  -5.725  -2.876  1.00  0.00     0.159 HD
ENDBRANCH  36  44
ENDBRANCH  34  36
ENDBRANCH   1  32
TORSDOF 20
ENDMDL
MODEL 8
REMARK VINA RESULT:      -6.1      3.247      7.498
REMARK  20 active torsions:
REMARK  status: ('A' for Active; 'I' for Inactive)
REMARK       I    between atoms: C_2  and  N_4 
REMARK    1  A    between atoms: N_4  and  C_5 
REMARK    2  A    between atoms: C_5  and  C_6 
REMARK    3  A    between atoms: C_5  and  C_11 
REMARK    4  A    between atoms: C_6  and  C_7 
REMARK    5  A    between atoms: C_7  and  C_8 
REMARK    6  A    between atoms: C_8  and  C_9 
REMARK    7  A    between atoms: C_9  and  N_10 
REMARK       I    between atoms: C_11  and  N_13 
REMARK    8  A    between atoms: N_13  and  C_14 
REMARK    9  A    between atoms: C_14  and  C_15 
REMARK       I    between atoms: C_15  and  N_17 
REMARK   10  A    between atoms: N_17  and  C_18 
REMARK   11  A    between atoms: C_18  and  C_19 
REMARK   12  A    between atoms: C_18  and  C_26 
REMARK   13  A    between atoms: C_19  and  C_20 
REMARK       I    between atoms: C_26  and  N_28 
REMARK   14  A    between atoms: N_28  and  C_29 
REMARK   15  A    between atoms: C_29  and  C_30 
REMARK   16  A    between atoms: C_29  and  C_35 
REMARK   17  A    between atoms: C_30  and  C_31 
REMARK   18  A    between atoms: C_31  and  C_32 
REMARK   19  A    between atoms: C_32  and  C_33 
REMARK   20  A    between atoms: C_33  and  N_34 
REMARK       I    between atoms: C_35  and  N_37 
ROOT
HETATM    1  C   UNL     1     -21.128  -7.425  -3.764  1.00  0.00     0.182 C 
ENDROOT
BRANCH   1   2
HETATM    2  N   UNL     1     -21.133  -8.812  -4.257  1.00  0.00    -0.346 N 
HETATM    3  C   UNL     1     -20.181  -9.300  -5.121  1.00  0.00     0.236 C 
HETATM    4  O   UNL     1     -19.230  -8.625  -5.514  1.00  0.00    -0.272 OA
HETATM    5  H   UNL     1     -21.764  -9.465  -3.789  1.00  0.00     0.163 HD
BRANCH   3   6
HETATM    6  C   UNL     1     -20.348 -10.761  -5.535  1.00  0.00     0.225 C 
BRANCH   6   7
HETATM    7  N   UNL     1     -19.150 -11.238  -6.187  1.00  0.00    -0.351 N 
HETATM    8  C   UNL     1     -18.476 -12.336  -5.708  1.00  0.00     0.240 C 
HETATM    9  O   UNL     1     -18.838 -12.901  -4.680  1.00  0.00    -0.271 OA
HETATM   10  H   UNL     1     -18.842 -10.812  -7.051  1.00  0.00     0.163 HD
BRANCH   8  11
HETATM   11  C   UNL     1     -17.209 -12.750  -6.498  1.00  0.00     0.176 C 
BRANCH  11  12
HETATM   12  N   UNL     1     -17.529 -13.225  -7.856  1.00  0.00    -0.348 N 
HETATM   13  C   UNL     1     -17.826 -14.547  -8.110  1.00  0.00     0.214 C 
HETATM   14  C   UNL     1     -18.096 -14.844  -9.560  1.00  0.00     0.117 C 
HETATM   15  O   UNL     1     -17.916 -15.399  -7.236  1.00  0.00    -0.274 OA
HETATM   16  H   UNL     1     -17.568 -12.552  -8.610  1.00  0.00     0.163 HD
ENDBRANCH  11  12
BRANCH  11  17
HETATM   17  C   UNL     1     -16.219 -11.576  -6.600  1.00  0.00     0.035 C 
BRANCH  17  18
HETATM   18  C   UNL     1     -15.451 -11.224  -5.317  1.00  0.00     0.004 C 
BRANCH  18  19
HETATM   19  C   UNL     1     -15.933  -9.966  -4.586  1.00  0.00     0.030 C 
BRANCH  19  20
HETATM   20  C   UNL     1     -16.579 -10.292  -3.240  1.00  0.00     0.267 C 
BRANCH  20  21
HETATM   21  N   UNL     1     -17.598  -9.308  -2.904  1.00  0.00     0.078 N 
HETATM   22  H   UNL     1     -17.943  -8.860  -3.751  1.00  0.00     0.312 HD
HETATM   23  H   UNL     1     -17.184  -8.571  -2.335  1.00  0.00     0.312 HD
ENDBRANCH  20  21
ENDBRANCH  19  20
ENDBRANCH  18  19
ENDBRANCH  17  18
ENDBRANCH  11  17
ENDBRANCH   8  11
ENDBRANCH   6   7
ENDBRANCH   3   6
ENDBRANCH   1   2
BRANCH   1  24
HETATM   24  C   UNL     1     -21.930  -6.470  -4.680  1.00  0.00     0.093 C 
BRANCH  24  25
HETATM   25  C   UNL     1     -21.101  -5.834  -5.747  1.00  0.00     0.028 A 
HETATM   26  C   UNL     1     -20.356  -4.674  -5.783  1.00  0.00     0.114 A 
HETATM   27  N   UNL     1     -19.757  -4.513  -7.002  1.00  0.00    -0.360 N 
HETATM   28  C   UNL     1     -20.147  -5.541  -7.717  1.00  0.00     0.180 A 
ATOM     29  HN  UNL     1     -19.141  -3.755  -7.292  1.00  0.00     0.166 HD
HETATM   30  N   UNL     1     -20.960  -6.370  -7.003  1.00  0.00    -0.354 N 
HETATM   31  H   UNL     1     -21.385  -7.222  -7.344  1.00  0.00     0.166 HD
ENDBRANCH  24  25
ENDBRANCH   1  24
BRANCH   1  32
HETATM   32  C   UNL     1     -21.667  -7.361  -2.308  1.00  0.00     0.241 C 
HETATM   33  O   UNL     1     -22.030  -6.306  -1.794  1.00  0.00    -0.271 OA
HETATM   34  N   UNL     1     -21.701  -8.572  -1.637  1.00  0.00    -0.346 N 
HETATM   35  H   UNL     1     -21.719  -9.434  -2.164  1.00  0.00     0.163 HD
BRANCH  34  36
HETATM   36  C   UNL     1     -21.982  -8.663  -0.192  1.00  0.00     0.176 C 
BRANCH  36  37
HETATM   37  C   UNL     1     -23.421  -9.154   0.037  1.00  0.00     0.035 C 
BRANCH  37  38
HETATM   38  C   UNL     1     -23.590 -10.678   0.161  1.00  0.00     0.004 C 
BRANCH  38  39
HETATM   39  C   UNL     1     -24.034 -11.392  -1.120  1.00  0.00     0.030 C 
BRANCH  39  40
HETATM   40  C   UNL     1     -22.862 -12.051  -1.844  1.00  0.00     0.267 C 
BRANCH  40  41
HETATM   41  N   UNL     1     -22.829 -11.650  -3.243  1.00  0.00     0.078 N 
HETATM   42  H   UNL     1     -22.316 -10.777  -3.343  1.00  0.00     0.312 HD
HETATM   43  H   UNL     1     -23.780 -11.472  -3.564  1.00  0.00     0.312 HD
ENDBRANCH  40  41
ENDBRANCH  39  40
ENDBRANCH  38  39
ENDBRANCH  37  38
ENDBRANCH  36  37
BRANCH  36  44
HETATM   44  C   UNL     1     -20.960  -9.589   0.516  1.00  0.00     0.238 C 
HETATM   45  O   UNL     1     -20.367 -10.512  -0.037  1.00  0.00    -0.271 OA
HETATM   46  N   UNL     1     -20.664  -9.309   1.824  1.00  0.00    -0.368 N 
HETATM   47  H   UNL     1     -21.408  -8.978   2.421  1.00  0.00     0.159 HD
HETATM   48  H   UNL     1     -20.053 -10.000   2.247  1.00  0.00     0.159 HD
ENDBRANCH  36  44
ENDBRANCH  34  36
ENDBRANCH   1  32
TORSDOF 20
ENDMDL
MODEL 9
REMARK VINA RESULT:      -6.1      2.782      8.714
REMARK  20 active torsions:
REMARK  status: ('A' for Active; 'I' for Inactive)
REMARK       I    between atoms: C_2  and  N_4 
REMARK    1  A    between atoms: N_4  and  C_5 
REMARK    2  A    between atoms: C_5  and  C_6 
REMARK    3  A    between atoms: C_5  and  C_11 
REMARK    4  A    between atoms: C_6  and  C_7 
REMARK    5  A    between atoms: C_7  and  C_8 
REMARK    6  A    between atoms: C_8  and  C_9 
REMARK    7  A    between atoms: C_9  and  N_10 
REMARK       I    between atoms: C_11  and  N_13 
REMARK    8  A    between atoms: N_13  and  C_14 
REMARK    9  A    between atoms: C_14  and  C_15 
REMARK       I    between atoms: C_15  and  N_17 
REMARK   10  A    between atoms: N_17  and  C_18 
REMARK   11  A    between atoms: C_18  and  C_19 
REMARK   12  A    between atoms: C_18  and  C_26 
REMARK   13  A    between atoms: C_19  and  C_20 
REMARK       I    between atoms: C_26  and  N_28 
REMARK   14  A    between atoms: N_28  and  C_29 
REMARK   15  A    between atoms: C_29  and  C_30 
REMARK   16  A    between atoms: C_29  and  C_35 
REMARK   17  A    between atoms: C_30  and  C_31 
REMARK   18  A    between atoms: C_31  and  C_32 
REMARK   19  A    between atoms: C_32  and  C_33 
REMARK   20  A    between atoms: C_33  and  N_34 
REMARK       I    between atoms: C_35  and  N_37 
ROOT
HETATM    1  C   UNL     1     -19.913 -10.459  -4.947  1.00  0.00     0.182 C 
ENDROOT
BRANCH   1   2
HETATM    2  N   UNL     1     -19.757 -11.188  -3.678  1.00  0.00    -0.346 N 
HETATM    3  C   UNL     1     -18.922 -12.272  -3.537  1.00  0.00     0.236 C 
HETATM    4  O   UNL     1     -18.212 -12.688  -4.452  1.00  0.00    -0.272 OA
HETATM    5  H   UNL     1     -20.148 -10.749  -2.843  1.00  0.00     0.163 HD
BRANCH   3   6
HETATM    6  C   UNL     1     -18.892 -12.912  -2.150  1.00  0.00     0.225 C 
BRANCH   6   7
HETATM    7  N   UNL     1     -19.954 -12.379  -1.329  1.00  0.00    -0.351 N 
HETATM    8  C   UNL     1     -19.686 -11.837  -0.095  1.00  0.00     0.240 C 
HETATM    9  O   UNL     1     -18.549 -11.849   0.368  1.00  0.00    -0.271 OA
HETATM   10  H   UNL     1     -20.896 -12.328  -1.692  1.00  0.00     0.163 HD
BRANCH   8  11
HETATM   11  C   UNL     1     -20.909 -11.294   0.686  1.00  0.00     0.176 C 
BRANCH  11  12
HETATM   12  N   UNL     1     -21.465 -10.074   0.073  1.00  0.00    -0.348 N 
HETATM   13  C   UNL     1     -21.417  -8.856   0.714  1.00  0.00     0.214 C 
HETATM   14  C   UNL     1     -22.062  -7.735  -0.056  1.00  0.00     0.117 C 
HETATM   15  O   UNL     1     -20.858  -8.678   1.789  1.00  0.00    -0.274 OA
HETATM   16  H   UNL     1     -21.856 -10.133  -0.858  1.00  0.00     0.163 HD
ENDBRANCH  11  12
BRANCH  11  17
HETATM   17  C   UNL     1     -22.018 -12.358   0.775  1.00  0.00     0.035 C 
BRANCH  17  18
HETATM   18  C   UNL     1     -23.393 -11.953   0.222  1.00  0.00     0.004 C 
BRANCH  18  19
HETATM   19  C   UNL     1     -23.930 -12.832  -0.912  1.00  0.00     0.030 C 
BRANCH  19  20
HETATM   20  C   UNL     1     -23.136 -12.656  -2.205  1.00  0.00     0.267 C 
BRANCH  20  21
HETATM   21  N   UNL     1     -23.154 -11.266  -2.638  1.00  0.00     0.078 N 
HETATM   22  H   UNL     1     -23.533 -10.676  -1.899  1.00  0.00     0.312 HD
HETATM   23  H   UNL     1     -23.779 -11.167  -3.437  1.00  0.00     0.312 HD
ENDBRANCH  20  21
ENDBRANCH  19  20
ENDBRANCH  18  19
ENDBRANCH  17  18
ENDBRANCH  11  17
ENDBRANCH   8  11
ENDBRANCH   6   7
ENDBRANCH   3   6
ENDBRANCH   1   2
BRANCH   1  24
HETATM   24  C   UNL     1     -21.283 -10.723  -5.615  1.00  0.00     0.093 C 
BRANCH  24  25
HETATM   25  C   UNL     1     -21.455 -12.129  -6.086  1.00  0.00     0.028 A 
HETATM   26  C   UNL     1     -22.484 -13.038  -5.955  1.00  0.00     0.114 A 
HETATM   27  N   UNL     1     -22.178 -14.219  -6.572  1.00  0.00    -0.360 N 
HETATM   28  C   UNL     1     -20.969 -14.054  -7.054  1.00  0.00     0.180 A 
ATOM     29  HN  UNL     1     -22.763 -15.051  -6.642  1.00  0.00     0.166 HD
HETATM   30  N   UNL     1     -20.489 -12.806  -6.788  1.00  0.00    -0.354 N 
HETATM   31  H   UNL     1     -19.580 -12.451  -7.055  1.00  0.00     0.166 HD
ENDBRANCH  24  25
ENDBRANCH   1  24
BRANCH   1  32
HETATM   32  C   UNL     1     -19.698  -8.935  -4.731  1.00  0.00     0.241 C 
HETATM   33  O   UNL     1     -19.020  -8.499  -3.804  1.00  0.00    -0.271 OA
HETATM   34  N   UNL     1     -20.329  -8.113  -5.650  1.00  0.00    -0.346 N 
HETATM   35  H   UNL     1     -20.586  -8.483  -6.555  1.00  0.00     0.163 HD
BRANCH  34  36
HETATM   36  C   UNL     1     -20.406  -6.651  -5.474  1.00  0.00     0.176 C 
BRANCH  36  37
HETATM   37  C   UNL     1     -20.506  -5.959  -6.845  1.00  0.00     0.035 C 
BRANCH  37  38
HETATM   38  C   UNL     1     -20.148  -4.463  -6.860  1.00  0.00     0.004 C 
BRANCH  38  39
HETATM   39  C   UNL     1     -21.308  -3.517  -7.185  1.00  0.00     0.030 C 
BRANCH  39  40
HETATM   40  C   UNL     1     -22.348  -4.175  -8.089  1.00  0.00     0.267 C 
BRANCH  40  41
HETATM   41  N   UNL     1     -22.059  -3.906  -9.490  1.00  0.00     0.078 N 
HETATM   42  H   UNL     1     -22.919  -3.933 -10.035  1.00  0.00     0.312 HD
HETATM   43  H   UNL     1     -21.456  -4.641  -9.855  1.00  0.00     0.312 HD
ENDBRANCH  40  41
ENDBRANCH  39  40
ENDBRANCH  38  39
ENDBRANCH  37  38
ENDBRANCH  36  37
BRANCH  36  44
HETATM   44  C   UNL     1     -21.602  -6.262  -4.568  1.00  0.00     0.238 C 
HETATM   45  O   UNL     1     -21.494  -5.922  -3.391  1.00  0.00    -0.271 OA
HETATM   46  N   UNL     1     -22.844  -6.239  -5.146  1.00  0.00    -0.368 N 
HETATM   47  H   UNL     1     -23.059  -6.940  -5.839  1.00  0.00     0.159 HD
HETATM   48  H   UNL     1     -23.586  -6.056  -4.479  1.00  0.00     0.159 HD
ENDBRANCH  36  44
ENDBRANCH  34  36
ENDBRANCH   1  32
TORSDOF 20
ENDMDL
