MODEL 1
REMARK VINA RESULT:      -7.1      0.000      0.000
REMARK  23 active torsions:
REMARK  status: ('A' for Active; 'I' for Inactive)
REMARK    1  A    between atoms: C_2  and  C_3 
REMARK    2  A    between atoms: C_3  and  C_4 
REMARK    3  A    between atoms: C_4  and  C_5 
REMARK    4  A    between atoms: C_5  and  C_6 
REMARK    5  A    between atoms: C_5  and  C_8 
REMARK    6  A    between atoms: C_8  and  O_10 
REMARK    7  A    between atoms: O_10  and  C_11 
REMARK    8  A    between atoms: C_11  and  C_12 
REMARK    9  A    between atoms: C_12  and  C_13 
REMARK   10  A    between atoms: C_12  and  O_24 
REMARK   11  A    between atoms: C_13  and  O_14 
REMARK   12  A    between atoms: O_14  and  C_15 
REMARK   13  A    between atoms: C_15  and  C_17 
REMARK   14  A    between atoms: C_17  and  C_18 
REMARK   15  A    between atoms: C_17  and  C_20 
REMARK   16  A    between atoms: C_20  and  C_21 
REMARK   17  A    between atoms: C_21  and  C_22 
REMARK   18  A    between atoms: O_24  and  C_25 
REMARK   19  A    between atoms: C_25  and  C_27 
REMARK   20  A    between atoms: C_27  and  C_28 
REMARK   21  A    between atoms: C_27  and  C_30 
REMARK   22  A    between atoms: C_30  and  C_31 
REMARK   23  A    between atoms: C_31  and  C_32 
ROOT
HETATM    1  C   UNL     1     -34.412  -4.135 -15.744  1.00  0.00     0.180 C 
ENDROOT
BRANCH   1   2
HETATM    2  C   UNL     1     -34.774  -2.816 -16.454  1.00  0.00     0.213 C 
BRANCH   2   3
HETATM    3  O   UNL     1     -34.978  -1.718 -15.526  1.00  0.00    -0.319 OA
BRANCH   3   4
HETATM    4  C   UNL     1     -35.879  -0.771 -15.910  1.00  0.00     0.263 C 
HETATM    5  O   UNL     1     -36.348  -0.707 -17.039  1.00  0.00    -0.265 OA
BRANCH   4   6
HETATM    6  C   UNL     1     -36.287   0.156 -14.754  1.00  0.00     0.085 C 
BRANCH   6   7
HETATM    7  C   UNL     1     -36.575  -0.569 -13.411  1.00  0.00     0.014 C 
BRANCH   7   8
HETATM    8  C   UNL     1     -37.881  -0.079 -12.761  1.00  0.00     0.000 C 
BRANCH   8   9
HETATM    9  C   UNL     1     -37.953  -0.292 -11.249  1.00  0.00    -0.005 C 
HETATM   10  C   UNL     1     -36.800   0.439 -10.567  1.00  0.00     0.005 C 
ENDBRANCH   8   9
ENDBRANCH   7   8
ENDBRANCH   6   7
BRANCH   6  11
HETATM   11  C   UNL     1     -35.257   1.304 -14.605  1.00  0.00     0.010 C 
HETATM   12  C   UNL     1     -34.362   1.216 -13.369  1.00  0.00     0.006 C 
ENDBRANCH   6  11
ENDBRANCH   4   6
ENDBRANCH   3   4
ENDBRANCH   2   3
ENDBRANCH   1   2
BRANCH   1  13
HETATM   13  C   UNL     1     -33.324  -4.894 -16.527  1.00  0.00     0.213 C 
BRANCH  13  14
HETATM   14  O   UNL     1     -31.993  -4.446 -16.173  1.00  0.00    -0.319 OA
BRANCH  14  15
HETATM   15  C   UNL     1     -31.017  -4.711 -17.088  1.00  0.00     0.263 C 
HETATM   16  O   UNL     1     -30.745  -3.959 -18.021  1.00  0.00    -0.265 OA
BRANCH  15  17
HETATM   17  C   UNL     1     -30.342  -6.051 -16.814  1.00  0.00     0.085 C 
BRANCH  17  18
HETATM   18  C   UNL     1     -29.707  -6.577 -18.115  1.00  0.00     0.010 C 
HETATM   19  C   UNL     1     -30.349  -7.867 -18.621  1.00  0.00     0.006 C 
ENDBRANCH  17  18
BRANCH  17  20
HETATM   20  C   UNL     1     -29.281  -5.977 -15.691  1.00  0.00     0.014 C 
BRANCH  20  21
HETATM   21  C   UNL     1     -28.150  -7.004 -15.817  1.00  0.00     0.000 C 
BRANCH  21  22
HETATM   22  C   UNL     1     -26.886  -6.362 -16.400  1.00  0.00    -0.005 C 
HETATM   23  C   UNL     1     -25.640  -6.901 -15.716  1.00  0.00     0.005 C 
ENDBRANCH  21  22
ENDBRANCH  20  21
ENDBRANCH  17  20
ENDBRANCH  15  17
ENDBRANCH  14  15
ENDBRANCH  13  14
ENDBRANCH   1  13
BRANCH   1  24
HETATM   24  O   UNL     1     -33.854  -3.771 -14.454  1.00  0.00    -0.311 OA
BRANCH  24  25
HETATM   25  C   UNL     1     -34.329  -4.469 -13.388  1.00  0.00     0.263 C 
HETATM   26  O   UNL     1     -35.280  -5.243 -13.415  1.00  0.00    -0.265 OA
BRANCH  25  27
HETATM   27  C   UNL     1     -33.557  -4.090 -12.128  1.00  0.00     0.085 C 
BRANCH  27  28
HETATM   28  C   UNL     1     -34.424  -3.089 -11.339  1.00  0.00     0.010 C 
HETATM   29  C   UNL     1     -33.634  -2.018 -10.600  1.00  0.00     0.006 C 
ENDBRANCH  27  28
BRANCH  27  30
HETATM   30  C   UNL     1     -33.190  -5.332 -11.305  1.00  0.00     0.014 C 
BRANCH  30  31
HETATM   31  C   UNL     1     -34.258  -5.822 -10.321  1.00  0.00     0.000 C 
BRANCH  31  32
HETATM   32  C   UNL     1     -34.777  -7.226 -10.630  1.00  0.00    -0.005 C 
HETATM   33  C   UNL     1     -34.203  -8.251  -9.666  1.00  0.00     0.005 C 
ENDBRANCH  31  32
ENDBRANCH  30  31
ENDBRANCH  27  30
ENDBRANCH  25  27
ENDBRANCH  24  25
ENDBRANCH   1  24
TORSDOF 23
ENDMDL
MODEL 2
REMARK VINA RESULT:      -6.8     13.710     17.151
REMARK  23 active torsions:
REMARK  status: ('A' for Active; 'I' for Inactive)
REMARK    1  A    between atoms: C_2  and  C_3 
REMARK    2  A    between atoms: C_3  and  C_4 
REMARK    3  A    between atoms: C_4  and  C_5 
REMARK    4  A    between atoms: C_5  and  C_6 
REMARK    5  A    between atoms: C_5  and  C_8 
REMARK    6  A    between atoms: C_8  and  O_10 
REMARK    7  A    between atoms: O_10  and  C_11 
REMARK    8  A    between atoms: C_11  and  C_12 
REMARK    9  A    between atoms: C_12  and  C_13 
REMARK   10  A    between atoms: C_12  and  O_24 
REMARK   11  A    between atoms: C_13  and  O_14 
REMARK   12  A    between atoms: O_14  and  C_15 
REMARK   13  A    between atoms: C_15  and  C_17 
REMARK   14  A    between atoms: C_17  and  C_18 
REMARK   15  A    between atoms: C_17  and  C_20 
REMARK   16  A    between atoms: C_20  and  C_21 
REMARK   17  A    between atoms: C_21  and  C_22 
REMARK   18  A    between atoms: O_24  and  C_25 
REMARK   19  A    between atoms: C_25  and  C_27 
REMARK   20  A    between atoms: C_27  and  C_28 
REMARK   21  A    between atoms: C_27  and  C_30 
REMARK   22  A    between atoms: C_30  and  C_31 
REMARK   23  A    between atoms: C_31  and  C_32 
ROOT
HETATM    1  C   UNL     1     -21.469  -6.872  -4.493  1.00  0.00     0.180 C 
ENDROOT
BRANCH   1   2
HETATM    2  C   UNL     1     -20.992  -5.614  -5.244  1.00  0.00     0.213 C 
BRANCH   2   3
HETATM    3  O   UNL     1     -21.660  -5.435  -6.519  1.00  0.00    -0.319 OA
BRANCH   3   4
HETATM    4  C   UNL     1     -20.857  -5.431  -7.620  1.00  0.00     0.263 C 
HETATM    5  O   UNL     1     -19.887  -6.167  -7.747  1.00  0.00    -0.265 OA
BRANCH   4   6
HETATM    6  C   UNL     1     -21.346  -4.455  -8.702  1.00  0.00     0.085 C 
BRANCH   6   7
HETATM    7  C   UNL     1     -20.354  -4.237  -9.877  1.00  0.00     0.014 C 
BRANCH   7   8
HETATM    8  C   UNL     1     -21.076  -4.151 -11.232  1.00  0.00     0.000 C 
BRANCH   8   9
HETATM    9  C   UNL     1     -21.510  -2.741 -11.631  1.00  0.00    -0.005 C 
HETATM   10  C   UNL     1     -22.857  -2.796 -12.347  1.00  0.00     0.005 C 
ENDBRANCH   8   9
ENDBRANCH   7   8
ENDBRANCH   6   7
BRANCH   6  11
HETATM   11  C   UNL     1     -22.762  -4.863  -9.183  1.00  0.00     0.010 C 
HETATM   12  C   UNL     1     -23.864  -3.842  -8.897  1.00  0.00     0.006 C 
ENDBRANCH   6  11
ENDBRANCH   4   6
ENDBRANCH   3   4
ENDBRANCH   2   3
ENDBRANCH   1   2
BRANCH   1  13
HETATM   13  C   UNL     1     -20.940  -8.148  -5.175  1.00  0.00     0.213 C 
BRANCH  13  14
HETATM   14  O   UNL     1     -19.529  -8.350  -4.920  1.00  0.00    -0.319 OA
BRANCH  14  15
HETATM   15  C   UNL     1     -19.101  -9.645  -4.953  1.00  0.00     0.263 C 
HETATM   16  O   UNL     1     -19.864 -10.605  -5.020  1.00  0.00    -0.265 OA
BRANCH  15  17
HETATM   17  C   UNL     1     -17.580  -9.733  -4.869  1.00  0.00     0.085 C 
BRANCH  17  18
HETATM   18  C   UNL     1     -17.143  -9.586  -3.399  1.00  0.00     0.010 C 
HETATM   19  C   UNL     1     -17.157 -10.906  -2.631  1.00  0.00     0.006 C 
ENDBRANCH  17  18
BRANCH  17  20
HETATM   20  C   UNL     1     -17.015 -11.042  -5.468  1.00  0.00     0.014 C 
BRANCH  20  21
HETATM   21  C   UNL     1     -15.612 -10.911  -6.070  1.00  0.00     0.000 C 
BRANCH  21  22
HETATM   22  C   UNL     1     -14.816 -12.209  -5.899  1.00  0.00    -0.005 C 
HETATM   23  C   UNL     1     -14.098 -12.232  -4.558  1.00  0.00     0.005 C 
ENDBRANCH  21  22
ENDBRANCH  20  21
ENDBRANCH  17  20
ENDBRANCH  15  17
ENDBRANCH  14  15
ENDBRANCH  13  14
ENDBRANCH   1  13
BRANCH   1  24
HETATM   24  O   UNL     1     -20.885  -6.808  -3.165  1.00  0.00    -0.311 OA
BRANCH  24  25
HETATM   25  C   UNL     1     -21.770  -6.781  -2.133  1.00  0.00     0.263 C 
HETATM   26  O   UNL     1     -22.688  -5.977  -2.007  1.00  0.00    -0.265 OA
BRANCH  25  27
HETATM   27  C   UNL     1     -21.411  -7.851  -1.107  1.00  0.00     0.085 C 
BRANCH  27  28
HETATM   28  C   UNL     1     -22.143  -7.499   0.203  1.00  0.00     0.010 C 
HETATM   29  C   UNL     1     -23.340  -8.386   0.514  1.00  0.00     0.006 C 
ENDBRANCH  27  28
BRANCH  27  30
HETATM   30  C   UNL     1     -21.759  -9.255  -1.620  1.00  0.00     0.014 C 
BRANCH  30  31
HETATM   31  C   UNL     1     -20.642 -10.300  -1.518  1.00  0.00     0.000 C 
BRANCH  31  32
HETATM   32  C   UNL     1     -20.363 -10.759  -0.086  1.00  0.00    -0.005 C 
HETATM   33  C   UNL     1     -21.480 -11.650   0.433  1.00  0.00     0.005 C 
ENDBRANCH  31  32
ENDBRANCH  30  31
ENDBRANCH  27  30
ENDBRANCH  25  27
ENDBRANCH  24  25
ENDBRANCH   1  24
TORSDOF 23
ENDMDL
MODEL 3
REMARK VINA RESULT:      -6.8     14.060     18.125
REMARK  23 active torsions:
REMARK  status: ('A' for Active; 'I' for Inactive)
REMARK    1  A    between atoms: C_2  and  C_3 
REMARK    2  A    between atoms: C_3  and  C_4 
REMARK    3  A    between atoms: C_4  and  C_5 
REMARK    4  A    between atoms: C_5  and  C_6 
REMARK    5  A    between atoms: C_5  and  C_8 
REMARK    6  A    between atoms: C_8  and  O_10 
REMARK    7  A    between atoms: O_10  and  C_11 
REMARK    8  A    between atoms: C_11  and  C_12 
REMARK    9  A    between atoms: C_12  and  C_13 
REMARK   10  A    between atoms: C_12  and  O_24 
REMARK   11  A    between atoms: C_13  and  O_14 
REMARK   12  A    between atoms: O_14  and  C_15 
REMARK   13  A    between atoms: C_15  and  C_17 
REMARK   14  A    between atoms: C_17  and  C_18 
REMARK   15  A    between atoms: C_17  and  C_20 
REMARK   16  A    between atoms: C_20  and  C_21 
REMARK   17  A    between atoms: C_21  and  C_22 
REMARK   18  A    between atoms: O_24  and  C_25 
REMARK   19  A    between atoms: C_25  and  C_27 
REMARK   20  A    between atoms: C_27  and  C_28 
REMARK   21  A    between atoms: C_27  and  C_30 
REMARK   22  A    between atoms: C_30  and  C_31 
REMARK   23  A    between atoms: C_31  and  C_32 
ROOT
HETATM    1  C   UNL     1     -20.577  -7.995  -4.505  1.00  0.00     0.180 C 
ENDROOT
BRANCH   1   2
HETATM    2  C   UNL     1     -21.434  -7.332  -5.601  1.00  0.00     0.213 C 
BRANCH   2   3
HETATM    3  O   UNL     1     -20.638  -6.811  -6.696  1.00  0.00    -0.319 OA
BRANCH   3   4
HETATM    4  C   UNL     1     -20.606  -5.455  -6.820  1.00  0.00     0.263 C 
HETATM    5  O   UNL     1     -20.084  -4.716  -5.995  1.00  0.00    -0.265 OA
BRANCH   4   6
HETATM    6  C   UNL     1     -21.234  -4.968  -8.136  1.00  0.00     0.085 C 
BRANCH   6   7
HETATM    7  C   UNL     1     -22.543  -4.149  -7.968  1.00  0.00     0.014 C 
BRANCH   7   8
HETATM    8  C   UNL     1     -23.601  -4.533  -9.016  1.00  0.00     0.000 C 
BRANCH   8   9
HETATM    9  C   UNL     1     -24.345  -3.347  -9.628  1.00  0.00    -0.005 C 
HETATM   10  C   UNL     1     -23.953  -3.191 -11.095  1.00  0.00     0.005 C 
ENDBRANCH   8   9
ENDBRANCH   7   8
ENDBRANCH   6   7
BRANCH   6  11
HETATM   11  C   UNL     1     -20.172  -4.228  -8.988  1.00  0.00     0.010 C 
HETATM   12  C   UNL     1     -20.280  -4.451 -10.497  1.00  0.00     0.006 C 
ENDBRANCH   6  11
ENDBRANCH   4   6
ENDBRANCH   3   4
ENDBRANCH   2   3
ENDBRANCH   1   2
BRANCH   1  13
HETATM   13  C   UNL     1     -21.439  -8.350  -3.279  1.00  0.00     0.213 C 
BRANCH  13  14
HETATM   14  O   UNL     1     -21.001  -7.649  -2.090  1.00  0.00    -0.319 OA
BRANCH  14  15
HETATM   15  C   UNL     1     -21.932  -7.523  -1.101  1.00  0.00     0.263 C 
HETATM   16  O   UNL     1     -22.592  -6.502  -0.924  1.00  0.00    -0.265 OA
BRANCH  15  17
HETATM   17  C   UNL     1     -22.018  -8.786  -0.250  1.00  0.00     0.085 C 
BRANCH  17  18
HETATM   18  C   UNL     1     -21.202  -8.585   1.042  1.00  0.00     0.010 C 
HETATM   19  C   UNL     1     -20.527  -9.863   1.534  1.00  0.00     0.006 C 
ENDBRANCH  17  18
BRANCH  17  20
HETATM   20  C   UNL     1     -23.471  -9.188   0.092  1.00  0.00     0.014 C 
BRANCH  20  21
HETATM   21  C   UNL     1     -23.746 -10.695   0.024  1.00  0.00     0.000 C 
BRANCH  21  22
HETATM   22  C   UNL     1     -23.272 -11.281  -1.311  1.00  0.00    -0.005 C 
HETATM   23  C   UNL     1     -23.548 -12.775  -1.376  1.00  0.00     0.005 C 
ENDBRANCH  21  22
ENDBRANCH  20  21
ENDBRANCH  17  20
ENDBRANCH  15  17
ENDBRANCH  14  15
ENDBRANCH  13  14
ENDBRANCH   1  13
BRANCH   1  24
HETATM   24  O   UNL     1     -20.074  -9.236  -5.066  1.00  0.00    -0.311 OA
BRANCH  24  25
HETATM   25  C   UNL     1     -18.721  -9.338  -5.154  1.00  0.00     0.263 C 
HETATM   26  O   UNL     1     -18.070  -9.249  -6.190  1.00  0.00    -0.265 OA
BRANCH  25  27
HETATM   27  C   UNL     1     -18.130  -9.659  -3.786  1.00  0.00     0.085 C 
BRANCH  27  28
HETATM   28  C   UNL     1     -18.833 -10.929  -3.265  1.00  0.00     0.010 C 
HETATM   29  C   UNL     1     -19.223 -10.875  -1.795  1.00  0.00     0.006 C 
ENDBRANCH  27  28
BRANCH  27  30
HETATM   30  C   UNL     1     -16.605  -9.816  -3.860  1.00  0.00     0.014 C 
BRANCH  30  31
HETATM   31  C   UNL     1     -16.094 -11.212  -4.234  1.00  0.00     0.000 C 
BRANCH  31  32
HETATM   32  C   UNL     1     -15.084 -11.781  -3.236  1.00  0.00    -0.005 C 
HETATM   33  C   UNL     1     -15.652 -11.797  -1.827  1.00  0.00     0.005 C 
ENDBRANCH  31  32
ENDBRANCH  30  31
ENDBRANCH  27  30
ENDBRANCH  25  27
ENDBRANCH  24  25
ENDBRANCH   1  24
TORSDOF 23
ENDMDL
MODEL 4
REMARK VINA RESULT:      -6.8     14.206     18.528
REMARK  23 active torsions:
REMARK  status: ('A' for Active; 'I' for Inactive)
REMARK    1  A    between atoms: C_2  and  C_3 
REMARK    2  A    between atoms: C_3  and  C_4 
REMARK    3  A    between atoms: C_4  and  C_5 
REMARK    4  A    between atoms: C_5  and  C_6 
REMARK    5  A    between atoms: C_5  and  C_8 
REMARK    6  A    between atoms: C_8  and  O_10 
REMARK    7  A    between atoms: O_10  and  C_11 
REMARK    8  A    between atoms: C_11  and  C_12 
REMARK    9  A    between atoms: C_12  and  C_13 
REMARK   10  A    between atoms: C_12  and  O_24 
REMARK   11  A    between atoms: C_13  and  O_14 
REMARK   12  A    between atoms: O_14  and  C_15 
REMARK   13  A    between atoms: C_15  and  C_17 
REMARK   14  A    between atoms: C_17  and  C_18 
REMARK   15  A    between atoms: C_17  and  C_20 
REMARK   16  A    between atoms: C_20  and  C_21 
REMARK   17  A    between atoms: C_21  and  C_22 
REMARK   18  A    between atoms: O_24  and  C_25 
REMARK   19  A    between atoms: C_25  and  C_27 
REMARK   20  A    between atoms: C_27  and  C_28 
REMARK   21  A    between atoms: C_27  and  C_30 
REMARK   22  A    between atoms: C_30  and  C_31 
REMARK   23  A    between atoms: C_31  and  C_32 
ROOT
HETATM    1  C   UNL     1     -20.426  -9.415  -5.217  1.00  0.00     0.180 C 
ENDROOT
BRANCH   1   2
HETATM    2  C   UNL     1     -21.007 -10.435  -4.219  1.00  0.00     0.213 C 
BRANCH   2   3
HETATM    3  O   UNL     1     -21.393  -9.828  -2.959  1.00  0.00    -0.319 OA
BRANCH   3   4
HETATM    4  C   UNL     1     -20.690 -10.228  -1.862  1.00  0.00     0.263 C 
HETATM    5  O   UNL     1     -19.467 -10.268  -1.826  1.00  0.00    -0.265 OA
BRANCH   4   6
HETATM    6  C   UNL     1     -21.599 -10.550  -0.665  1.00  0.00     0.085 C 
BRANCH   6   7
HETATM    7  C   UNL     1     -21.578  -9.492   0.471  1.00  0.00     0.014 C 
BRANCH   7   8
HETATM    8  C   UNL     1     -21.289  -8.079  -0.064  1.00  0.00     0.000 C 
BRANCH   8   9
HETATM    9  C   UNL     1     -22.532  -7.288  -0.469  1.00  0.00    -0.005 C 
HETATM   10  C   UNL     1     -22.219  -6.414  -1.680  1.00  0.00     0.005 C 
ENDBRANCH   8   9
ENDBRANCH   7   8
ENDBRANCH   6   7
BRANCH   6  11
HETATM   11  C   UNL     1     -23.033 -10.869  -1.159  1.00  0.00     0.010 C 
HETATM   12  C   UNL     1     -24.098 -10.928  -0.064  1.00  0.00     0.006 C 
ENDBRANCH   6  11
ENDBRANCH   4   6
ENDBRANCH   3   4
ENDBRANCH   2   3
ENDBRANCH   1   2
BRANCH   1  13
HETATM   13  C   UNL     1     -20.881  -7.987  -4.864  1.00  0.00     0.213 C 
BRANCH  13  14
HETATM   14  O   UNL     1     -21.033  -7.162  -6.045  1.00  0.00    -0.319 OA
BRANCH  14  15
HETATM   15  C   UNL     1     -21.764  -6.022  -5.881  1.00  0.00     0.263 C 
HETATM   16  O   UNL     1     -22.778  -5.966  -5.190  1.00  0.00    -0.265 OA
BRANCH  15  17
HETATM   17  C   UNL     1     -21.175  -4.861  -6.676  1.00  0.00     0.085 C 
BRANCH  17  18
HETATM   18  C   UNL     1     -19.958  -5.360  -7.478  1.00  0.00     0.010 C 
HETATM   19  C   UNL     1     -18.791  -4.376  -7.479  1.00  0.00     0.006 C 
ENDBRANCH  17  18
BRANCH  17  20
HETATM   20  C   UNL     1     -22.200  -4.191  -7.620  1.00  0.00     0.014 C 
BRANCH  20  21
HETATM   21  C   UNL     1     -22.220  -4.761  -9.043  1.00  0.00     0.000 C 
BRANCH  21  22
HETATM   22  C   UNL     1     -21.928  -3.668 -10.077  1.00  0.00    -0.005 C 
HETATM   23  C   UNL     1     -21.492  -4.277 -11.401  1.00  0.00     0.005 C 
ENDBRANCH  21  22
ENDBRANCH  20  21
ENDBRANCH  17  20
ENDBRANCH  15  17
ENDBRANCH  14  15
ENDBRANCH  13  14
ENDBRANCH   1  13
BRANCH   1  24
HETATM   24  O   UNL     1     -18.983  -9.467  -5.070  1.00  0.00    -0.311 OA
BRANCH  24  25
HETATM   25  C   UNL     1     -18.352 -10.440  -5.780  1.00  0.00     0.263 C 
HETATM   26  O   UNL     1     -18.693 -10.844  -6.886  1.00  0.00    -0.265 OA
BRANCH  25  27
HETATM   27  C   UNL     1     -17.198 -11.017  -4.966  1.00  0.00     0.085 C 
BRANCH  27  28
HETATM   28  C   UNL     1     -16.460 -12.030  -5.865  1.00  0.00     0.010 C 
HETATM   29  C   UNL     1     -15.030 -11.642  -6.209  1.00  0.00     0.006 C 
ENDBRANCH  27  28
BRANCH  27  30
HETATM   30  C   UNL     1     -16.275  -9.909  -4.444  1.00  0.00     0.014 C 
BRANCH  30  31
HETATM   31  C   UNL     1     -15.987  -9.932  -2.938  1.00  0.00     0.000 C 
BRANCH  31  32
HETATM   32  C   UNL     1     -15.607 -11.316  -2.410  1.00  0.00    -0.005 C 
HETATM   33  C   UNL     1     -16.049 -11.495  -0.967  1.00  0.00     0.005 C 
ENDBRANCH  31  32
ENDBRANCH  30  31
ENDBRANCH  27  30
ENDBRANCH  25  27
ENDBRANCH  24  25
ENDBRANCH   1  24
TORSDOF 23
ENDMDL
MODEL 5
REMARK VINA RESULT:      -6.7      0.805      7.653
REMARK  23 active torsions:
REMARK  status: ('A' for Active; 'I' for Inactive)
REMARK    1  A    between atoms: C_2  and  C_3 
REMARK    2  A    between atoms: C_3  and  C_4 
REMARK    3  A    between atoms: C_4  and  C_5 
REMARK    4  A    between atoms: C_5  and  C_6 
REMARK    5  A    between atoms: C_5  and  C_8 
REMARK    6  A    between atoms: C_8  and  O_10 
REMARK    7  A    between atoms: O_10  and  C_11 
REMARK    8  A    between atoms: C_11  and  C_12 
REMARK    9  A    between atoms: C_12  and  C_13 
REMARK   10  A    between atoms: C_12  and  O_24 
REMARK   11  A    between atoms: C_13  and  O_14 
REMARK   12  A    between atoms: O_14  and  C_15 
REMARK   13  A    between atoms: C_15  and  C_17 
REMARK   14  A    between atoms: C_17  and  C_18 
REMARK   15  A    between atoms: C_17  and  C_20 
REMARK   16  A    between atoms: C_20  and  C_21 
REMARK   17  A    between atoms: C_21  and  C_22 
REMARK   18  A    between atoms: O_24  and  C_25 
REMARK   19  A    between atoms: C_25  and  C_27 
REMARK   20  A    between atoms: C_27  and  C_28 
REMARK   21  A    between atoms: C_27  and  C_30 
REMARK   22  A    between atoms: C_30  and  C_31 
REMARK   23  A    between atoms: C_31  and  C_32 
ROOT
HETATM    1  C   UNL     1     -33.795  -4.074 -16.554  1.00  0.00     0.180 C 
ENDROOT
BRANCH   1   2
HETATM    2  C   UNL     1     -34.673  -4.737 -15.475  1.00  0.00     0.213 C 
BRANCH   2   3
HETATM    3  O   UNL     1     -34.343  -4.292 -14.134  1.00  0.00    -0.319 OA
BRANCH   3   4
HETATM    4  C   UNL     1     -34.780  -5.086 -13.117  1.00  0.00     0.263 C 
HETATM    5  O   UNL     1     -35.419  -6.115 -13.294  1.00  0.00    -0.265 OA
BRANCH   4   6
HETATM    6  C   UNL     1     -34.322  -4.584 -11.738  1.00  0.00     0.085 C 
BRANCH   6   7
HETATM    7  C   UNL     1     -33.697  -5.673 -10.824  1.00  0.00     0.014 C 
BRANCH   7   8
HETATM    8  C   UNL     1     -34.714  -6.228  -9.812  1.00  0.00     0.000 C 
BRANCH   8   9
HETATM    9  C   UNL     1     -35.024  -7.715  -9.977  1.00  0.00    -0.005 C 
HETATM   10  C   UNL     1     -33.727  -8.520  -9.955  1.00  0.00     0.005 C 
ENDBRANCH   8   9
ENDBRANCH   7   8
ENDBRANCH   6   7
BRANCH   6  11
HETATM   11  C   UNL     1     -33.406  -3.345 -11.903  1.00  0.00     0.010 C 
HETATM   12  C   UNL     1     -33.463  -2.338 -10.754  1.00  0.00     0.006 C 
ENDBRANCH   6  11
ENDBRANCH   4   6
ENDBRANCH   3   4
ENDBRANCH   2   3
ENDBRANCH   1   2
BRANCH   1  13
HETATM   13  C   UNL     1     -34.218  -2.610 -16.778  1.00  0.00     0.213 C 
BRANCH  13  14
HETATM   14  O   UNL     1     -35.540  -2.344 -16.251  1.00  0.00    -0.319 OA
BRANCH  14  15
HETATM   15  C   UNL     1     -35.873  -1.027 -16.124  1.00  0.00     0.263 C 
HETATM   16  O   UNL     1     -36.373  -0.367 -17.031  1.00  0.00    -0.265 OA
BRANCH  15  17
HETATM   17  C   UNL     1     -35.523  -0.494 -14.738  1.00  0.00     0.085 C 
BRANCH  17  18
HETATM   18  C   UNL     1     -34.921   0.918 -14.874  1.00  0.00     0.010 C 
HETATM   19  C   UNL     1     -34.348   1.457 -13.565  1.00  0.00     0.006 C 
ENDBRANCH  17  18
BRANCH  17  20
HETATM   20  C   UNL     1     -36.733  -0.470 -13.775  1.00  0.00     0.014 C 
BRANCH  20  21
HETATM   21  C   UNL     1     -36.438  -1.011 -12.371  1.00  0.00     0.000 C 
BRANCH  21  22
HETATM   22  C   UNL     1     -37.150  -0.179 -11.299  1.00  0.00    -0.005 C 
HETATM   23  C   UNL     1     -36.672  -0.563  -9.908  1.00  0.00     0.005 C 
ENDBRANCH  21  22
ENDBRANCH  20  21
ENDBRANCH  17  20
ENDBRANCH  15  17
ENDBRANCH  14  15
ENDBRANCH  13  14
ENDBRANCH   1  13
BRANCH   1  24
HETATM   24  O   UNL     1     -32.438  -4.066 -16.037  1.00  0.00    -0.311 OA
BRANCH  24  25
HETATM   25  C   UNL     1     -31.468  -4.417 -16.923  1.00  0.00     0.263 C 
HETATM   26  O   UNL     1     -31.146  -3.771 -17.915  1.00  0.00    -0.265 OA
BRANCH  25  27
HETATM   27  C   UNL     1     -30.885  -5.777 -16.550  1.00  0.00     0.085 C 
BRANCH  27  28
HETATM   28  C   UNL     1     -31.424  -6.805 -17.565  1.00  0.00     0.010 C 
HETATM   29  C   UNL     1     -30.349  -7.525 -18.364  1.00  0.00     0.006 C 
ENDBRANCH  27  28
BRANCH  27  30
HETATM   30  C   UNL     1     -29.352  -5.734 -16.510  1.00  0.00     0.014 C 
BRANCH  30  31
HETATM   31  C   UNL     1     -28.696  -6.402 -15.296  1.00  0.00     0.000 C 
BRANCH  31  32
HETATM   32  C   UNL     1     -27.487  -7.268 -15.654  1.00  0.00    -0.005 C 
HETATM   33  C   UNL     1     -26.465  -6.481 -16.458  1.00  0.00     0.005 C 
ENDBRANCH  31  32
ENDBRANCH  30  31
ENDBRANCH  27  30
ENDBRANCH  25  27
ENDBRANCH  24  25
ENDBRANCH   1  24
TORSDOF 23
ENDMDL
MODEL 6
REMARK VINA RESULT:      -6.6     13.924     18.642
REMARK  23 active torsions:
REMARK  status: ('A' for Active; 'I' for Inactive)
REMARK    1  A    between atoms: C_2  and  C_3 
REMARK    2  A    between atoms: C_3  and  C_4 
REMARK    3  A    between atoms: C_4  and  C_5 
REMARK    4  A    between atoms: C_5  and  C_6 
REMARK    5  A    between atoms: C_5  and  C_8 
REMARK    6  A    between atoms: C_8  and  O_10 
REMARK    7  A    between atoms: O_10  and  C_11 
REMARK    8  A    between atoms: C_11  and  C_12 
REMARK    9  A    between atoms: C_12  and  C_13 
REMARK   10  A    between atoms: C_12  and  O_24 
REMARK   11  A    between atoms: C_13  and  O_14 
REMARK   12  A    between atoms: O_14  and  C_15 
REMARK   13  A    between atoms: C_15  and  C_17 
REMARK   14  A    between atoms: C_17  and  C_18 
REMARK   15  A    between atoms: C_17  and  C_20 
REMARK   16  A    between atoms: C_20  and  C_21 
REMARK   17  A    between atoms: C_21  and  C_22 
REMARK   18  A    between atoms: O_24  and  C_25 
REMARK   19  A    between atoms: C_25  and  C_27 
REMARK   20  A    between atoms: C_27  and  C_28 
REMARK   21  A    between atoms: C_27  and  C_30 
REMARK   22  A    between atoms: C_30  and  C_31 
REMARK   23  A    between atoms: C_31  and  C_32 
ROOT
HETATM    1  C   UNL     1     -21.718  -7.379  -4.364  1.00  0.00     0.180 C 
ENDROOT
BRANCH   1   2
HETATM    2  C   UNL     1     -20.933  -8.705  -4.395  1.00  0.00     0.213 C 
BRANCH   2   3
HETATM    3  O   UNL     1     -21.127  -9.443  -5.629  1.00  0.00    -0.319 OA
BRANCH   3   4
HETATM    4  C   UNL     1     -20.748 -10.752  -5.609  1.00  0.00     0.263 C 
HETATM    5  O   UNL     1     -21.314 -11.626  -6.252  1.00  0.00    -0.265 OA
BRANCH   4   6
HETATM    6  C   UNL     1     -19.496 -10.989  -4.749  1.00  0.00     0.085 C 
BRANCH   6   7
HETATM    7  C   UNL     1     -19.668 -12.053  -3.631  1.00  0.00     0.014 C 
BRANCH   7   8
HETATM    8  C   UNL     1     -19.676 -11.420  -2.229  1.00  0.00     0.000 C 
BRANCH   8   9
HETATM    9  C   UNL     1     -19.943 -12.405  -1.091  1.00  0.00    -0.005 C 
HETATM   10  C   UNL     1     -18.851 -12.280  -0.032  1.00  0.00     0.005 C 
ENDBRANCH   8   9
ENDBRANCH   7   8
ENDBRANCH   6   7
BRANCH   6  11
HETATM   11  C   UNL     1     -18.273 -11.270  -5.659  1.00  0.00     0.010 C 
HETATM   12  C   UNL     1     -17.346 -10.075  -5.887  1.00  0.00     0.006 C 
ENDBRANCH   6  11
ENDBRANCH   4   6
ENDBRANCH   3   4
ENDBRANCH   2   3
ENDBRANCH   1   2
BRANCH   1  13
HETATM   13  C   UNL     1     -21.366  -6.566  -3.104  1.00  0.00     0.213 C 
BRANCH  13  14
HETATM   14  O   UNL     1     -21.008  -7.422  -1.993  1.00  0.00    -0.319 OA
BRANCH  14  15
HETATM   15  C   UNL     1     -21.951  -7.548  -1.015  1.00  0.00     0.263 C 
HETATM   16  O   UNL     1     -22.818  -6.705  -0.801  1.00  0.00    -0.265 OA
BRANCH  15  17
HETATM   17  C   UNL     1     -21.768  -8.841  -0.225  1.00  0.00     0.085 C 
BRANCH  17  18
HETATM   18  C   UNL     1     -21.292  -8.502   1.201  1.00  0.00     0.010 C 
HETATM   19  C   UNL     1     -20.446  -9.606   1.832  1.00  0.00     0.006 C 
ENDBRANCH  17  18
BRANCH  17  20
HETATM   20  C   UNL     1     -23.049  -9.705  -0.172  1.00  0.00     0.014 C 
BRANCH  20  21
HETATM   21  C   UNL     1     -23.238 -10.636  -1.375  1.00  0.00     0.000 C 
BRANCH  21  22
HETATM   22  C   UNL     1     -23.696 -12.028  -0.927  1.00  0.00    -0.005 C 
HETATM   23  C   UNL     1     -23.377 -12.257   0.542  1.00  0.00     0.005 C 
ENDBRANCH  21  22
ENDBRANCH  20  21
ENDBRANCH  17  20
ENDBRANCH  15  17
ENDBRANCH  14  15
ENDBRANCH  13  14
ENDBRANCH   1  13
BRANCH   1  24
HETATM   24  O   UNL     1     -21.282  -6.614  -5.518  1.00  0.00    -0.311 OA
BRANCH  24  25
HETATM   25  C   UNL     1     -22.131  -5.634  -5.931  1.00  0.00     0.263 C 
HETATM   26  O   UNL     1     -23.333  -5.592  -5.692  1.00  0.00    -0.265 OA
BRANCH  25  27
HETATM   27  C   UNL     1     -21.386  -4.629  -6.802  1.00  0.00     0.085 C 
BRANCH  27  28
HETATM   28  C   UNL     1     -19.909  -4.640  -6.361  1.00  0.00     0.010 C 
HETATM   29  C   UNL     1     -18.910  -4.476  -7.497  1.00  0.00     0.006 C 
ENDBRANCH  27  28
BRANCH  27  30
HETATM   30  C   UNL     1     -21.560  -4.947  -8.293  1.00  0.00     0.014 C 
BRANCH  30  31
HETATM   31  C   UNL     1     -22.272  -3.875  -9.127  1.00  0.00     0.000 C 
BRANCH  31  32
HETATM   32  C   UNL     1     -21.983  -3.974 -10.625  1.00  0.00    -0.005 C 
HETATM   33  C   UNL     1     -20.496  -4.147 -10.889  1.00  0.00     0.005 C 
ENDBRANCH  31  32
ENDBRANCH  30  31
ENDBRANCH  27  30
ENDBRANCH  25  27
ENDBRANCH  24  25
ENDBRANCH   1  24
TORSDOF 23
ENDMDL
MODEL 7
REMARK VINA RESULT:      -6.6     13.002     17.281
REMARK  23 active torsions:
REMARK  status: ('A' for Active; 'I' for Inactive)
REMARK    1  A    between atoms: C_2  and  C_3 
REMARK    2  A    between atoms: C_3  and  C_4 
REMARK    3  A    between atoms: C_4  and  C_5 
REMARK    4  A    between atoms: C_5  and  C_6 
REMARK    5  A    between atoms: C_5  and  C_8 
REMARK    6  A    between atoms: C_8  and  O_10 
REMARK    7  A    between atoms: O_10  and  C_11 
REMARK    8  A    between atoms: C_11  and  C_12 
REMARK    9  A    between atoms: C_12  and  C_13 
REMARK   10  A    between atoms: C_12  and  O_24 
REMARK   11  A    between atoms: C_13  and  O_14 
REMARK   12  A    between atoms: O_14  and  C_15 
REMARK   13  A    between atoms: C_15  and  C_17 
REMARK   14  A    between atoms: C_17  and  C_18 
REMARK   15  A    between atoms: C_17  and  C_20 
REMARK   16  A    between atoms: C_20  and  C_21 
REMARK   17  A    between atoms: C_21  and  C_22 
REMARK   18  A    between atoms: O_24  and  C_25 
REMARK   19  A    between atoms: C_25  and  C_27 
REMARK   20  A    between atoms: C_27  and  C_28 
REMARK   21  A    between atoms: C_27  and  C_30 
REMARK   22  A    between atoms: C_30  and  C_31 
REMARK   23  A    between atoms: C_31  and  C_32 
ROOT
HETATM    1  C   UNL     1     -21.122  -7.206  -5.936  1.00  0.00     0.180 C 
ENDROOT
BRANCH   1   2
HETATM    2  C   UNL     1     -21.665  -6.523  -4.666  1.00  0.00     0.213 C 
BRANCH   2   3
HETATM    3  O   UNL     1     -20.929  -6.894  -3.472  1.00  0.00    -0.319 OA
BRANCH   3   4
HETATM    4  C   UNL     1     -21.631  -6.866  -2.304  1.00  0.00     0.263 C 
HETATM    5  O   UNL     1     -22.470  -6.014  -2.044  1.00  0.00    -0.265 OA
BRANCH   4   6
HETATM    6  C   UNL     1     -21.302  -8.058  -1.391  1.00  0.00     0.085 C 
BRANCH   6   7
HETATM    7  C   UNL     1     -22.444  -8.469  -0.422  1.00  0.00     0.014 C 
BRANCH   7   8
HETATM    8  C   UNL     1     -22.007  -9.584   0.543  1.00  0.00     0.000 C 
BRANCH   8   9
HETATM    9  C   UNL     1     -22.547 -10.970   0.195  1.00  0.00    -0.005 C 
HETATM   10  C   UNL     1     -23.995 -10.861  -0.273  1.00  0.00     0.005 C 
ENDBRANCH   8   9
ENDBRANCH   7   8
ENDBRANCH   6   7
BRANCH   6  11
HETATM   11  C   UNL     1     -20.779  -9.246  -2.237  1.00  0.00     0.010 C 
HETATM   12  C   UNL     1     -19.360  -9.706  -1.902  1.00  0.00     0.006 C 
ENDBRANCH   6  11
ENDBRANCH   4   6
ENDBRANCH   3   4
ENDBRANCH   2   3
ENDBRANCH   1   2
BRANCH   1  13
HETATM   13  C   UNL     1     -20.600  -6.159  -6.937  1.00  0.00     0.213 C 
BRANCH  13  14
HETATM   14  O   UNL     1     -21.669  -5.591  -7.731  1.00  0.00    -0.319 OA
BRANCH  14  15
HETATM   15  C   UNL     1     -21.614  -4.241  -7.920  1.00  0.00     0.263 C 
HETATM   16  O   UNL     1     -21.357  -3.445  -7.021  1.00  0.00    -0.265 OA
BRANCH  15  17
HETATM   17  C   UNL     1     -21.935  -3.865  -9.363  1.00  0.00     0.085 C 
BRANCH  17  18
HETATM   18  C   UNL     1     -20.834  -4.417 -10.289  1.00  0.00     0.010 C 
HETATM   19  C   UNL     1     -20.362  -3.408 -11.333  1.00  0.00     0.006 C 
ENDBRANCH  17  18
BRANCH  17  20
HETATM   20  C   UNL     1     -23.324  -4.365  -9.825  1.00  0.00     0.014 C 
BRANCH  20  21
HETATM   21  C   UNL     1     -24.163  -3.317 -10.565  1.00  0.00     0.000 C 
BRANCH  21  22
HETATM   22  C   UNL     1     -24.180  -3.590 -12.073  1.00  0.00    -0.005 C 
HETATM   23  C   UNL     1     -23.487  -2.471 -12.835  1.00  0.00     0.005 C 
ENDBRANCH  21  22
ENDBRANCH  20  21
ENDBRANCH  17  20
ENDBRANCH  15  17
ENDBRANCH  14  15
ENDBRANCH  13  14
ENDBRANCH   1  13
BRANCH   1  24
HETATM   24  O   UNL     1     -19.993  -8.017  -5.519  1.00  0.00    -0.311 OA
BRANCH  24  25
HETATM   25  C   UNL     1     -20.133  -9.359  -5.697  1.00  0.00     0.263 C 
HETATM   26  O   UNL     1     -21.162  -9.922  -6.055  1.00  0.00    -0.265 OA
BRANCH  25  27
HETATM   27  C   UNL     1     -18.844 -10.076  -5.309  1.00  0.00     0.085 C 
BRANCH  27  28
HETATM   28  C   UNL     1     -19.027 -11.569  -5.649  1.00  0.00     0.010 C 
HETATM   29  C   UNL     1     -18.947 -12.502  -4.450  1.00  0.00     0.006 C 
ENDBRANCH  27  28
BRANCH  27  30
HETATM   30  C   UNL     1     -17.629  -9.455  -6.009  1.00  0.00     0.014 C 
BRANCH  30  31
HETATM   31  C   UNL     1     -16.257  -9.904  -5.491  1.00  0.00     0.000 C 
BRANCH  31  32
HETATM   32  C   UNL     1     -16.058  -9.658  -3.995  1.00  0.00    -0.005 C 
HETATM   33  C   UNL     1     -15.687 -10.941  -3.270  1.00  0.00     0.005 C 
ENDBRANCH  31  32
ENDBRANCH  30  31
ENDBRANCH  27  30
ENDBRANCH  25  27
ENDBRANCH  24  25
ENDBRANCH   1  24
TORSDOF 23
ENDMDL
MODEL 8
REMARK VINA RESULT:      -6.4     14.043     18.550
REMARK  23 active torsions:
REMARK  status: ('A' for Active; 'I' for Inactive)
REMARK    1  A    between atoms: C_2  and  C_3 
REMARK    2  A    between atoms: C_3  and  C_4 
REMARK    3  A    between atoms: C_4  and  C_5 
REMARK    4  A    between atoms: C_5  and  C_6 
REMARK    5  A    between atoms: C_5  and  C_8 
REMARK    6  A    between atoms: C_8  and  O_10 
REMARK    7  A    between atoms: O_10  and  C_11 
REMARK    8  A    between atoms: C_11  and  C_12 
REMARK    9  A    between atoms: C_12  and  C_13 
REMARK   10  A    between atoms: C_12  and  O_24 
REMARK   11  A    between atoms: C_13  and  O_14 
REMARK   12  A    between atoms: O_14  and  C_15 
REMARK   13  A    between atoms: C_15  and  C_17 
REMARK   14  A    between atoms: C_17  and  C_18 
REMARK   15  A    between atoms: C_17  and  C_20 
REMARK   16  A    between atoms: C_20  and  C_21 
REMARK   17  A    between atoms: C_21  and  C_22 
REMARK   18  A    between atoms: O_24  and  C_25 
REMARK   19  A    between atoms: C_25  and  C_27 
REMARK   20  A    between atoms: C_27  and  C_28 
REMARK   21  A    between atoms: C_27  and  C_30 
REMARK   22  A    between atoms: C_30  and  C_31 
REMARK   23  A    between atoms: C_31  and  C_32 
ROOT
HETATM    1  C   UNL     1     -20.360  -8.872  -4.184  1.00  0.00     0.180 C 
ENDROOT
BRANCH   1   2
HETATM    2  C   UNL     1     -21.323  -8.423  -5.300  1.00  0.00     0.213 C 
BRANCH   2   3
HETATM    3  O   UNL     1     -20.789  -7.333  -6.095  1.00  0.00    -0.319 OA
BRANCH   3   4
HETATM    4  C   UNL     1     -21.547  -6.202  -6.144  1.00  0.00     0.263 C 
HETATM    5  O   UNL     1     -22.256  -5.827  -5.219  1.00  0.00    -0.265 OA
BRANCH   4   6
HETATM    6  C   UNL     1     -21.358  -5.423  -7.455  1.00  0.00     0.085 C 
BRANCH   6   7
HETATM    7  C   UNL     1     -21.877  -3.960  -7.422  1.00  0.00     0.014 C 
BRANCH   7   8
HETATM    8  C   UNL     1     -22.545  -3.555  -8.747  1.00  0.00     0.000 C 
BRANCH   8   9
HETATM    9  C   UNL     1     -22.811  -4.717  -9.703  1.00  0.00    -0.005 C 
HETATM   10  C   UNL     1     -22.116  -4.460 -11.037  1.00  0.00     0.005 C 
ENDBRANCH   8   9
ENDBRANCH   7   8
ENDBRANCH   6   7
BRANCH   6  11
HETATM   11  C   UNL     1     -19.884  -5.523  -7.924  1.00  0.00     0.010 C 
HETATM   12  C   UNL     1     -18.978  -4.380  -7.465  1.00  0.00     0.006 C 
ENDBRANCH   6  11
ENDBRANCH   4   6
ENDBRANCH   3   4
ENDBRANCH   2   3
ENDBRANCH   1   2
BRANCH   1  13
HETATM   13  C   UNL     1     -21.108  -9.022  -2.845  1.00  0.00     0.213 C 
BRANCH  13  14
HETATM   14  O   UNL     1     -20.963  -7.846  -2.012  1.00  0.00    -0.319 OA
BRANCH  14  15
HETATM   15  C   UNL     1     -21.940  -7.657  -1.079  1.00  0.00     0.263 C 
HETATM   16  O   UNL     1     -22.648  -6.655  -1.040  1.00  0.00    -0.265 OA
BRANCH  15  17
HETATM   17  C   UNL     1     -22.010  -8.824  -0.099  1.00  0.00     0.085 C 
BRANCH  17  18
HETATM   18  C   UNL     1     -21.481  -8.368   1.274  1.00  0.00     0.010 C 
HETATM   19  C   UNL     1     -20.486  -9.346   1.892  1.00  0.00     0.006 C 
ENDBRANCH  17  18
BRANCH  17  20
HETATM   20  C   UNL     1     -23.434  -9.410   0.043  1.00  0.00     0.014 C 
BRANCH  20  21
HETATM   21  C   UNL     1     -23.621 -10.789  -0.600  1.00  0.00     0.000 C 
BRANCH  21  22
HETATM   22  C   UNL     1     -23.658 -11.892   0.463  1.00  0.00    -0.005 C 
HETATM   23  C   UNL     1     -22.267 -12.456   0.708  1.00  0.00     0.005 C 
ENDBRANCH  21  22
ENDBRANCH  20  21
ENDBRANCH  17  20
ENDBRANCH  15  17
ENDBRANCH  14  15
ENDBRANCH  13  14
ENDBRANCH   1  13
BRANCH   1  24
HETATM   24  O   UNL     1     -19.870 -10.185  -4.563  1.00  0.00    -0.311 OA
BRANCH  24  25
HETATM   25  C   UNL     1     -18.519 -10.339  -4.544  1.00  0.00     0.263 C 
HETATM   26  O   UNL     1     -17.738  -9.657  -3.887  1.00  0.00    -0.265 OA
BRANCH  25  27
HETATM   27  C   UNL     1     -18.102 -11.434  -5.519  1.00  0.00     0.085 C 
BRANCH  27  28
HETATM   28  C   UNL     1     -19.241 -11.595  -6.547  1.00  0.00     0.010 C 
HETATM   29  C   UNL     1     -18.960 -12.611  -7.644  1.00  0.00     0.006 C 
ENDBRANCH  27  28
BRANCH  27  30
HETATM   30  C   UNL     1     -16.754 -11.112  -6.176  1.00  0.00     0.014 C 
BRANCH  30  31
HETATM   31  C   UNL     1     -15.747 -12.267  -6.239  1.00  0.00     0.000 C 
BRANCH  31  32
HETATM   32  C   UNL     1     -14.341 -11.878  -5.781  1.00  0.00    -0.005 C 
HETATM   33  C   UNL     1     -13.292 -12.802  -6.377  1.00  0.00     0.005 C 
ENDBRANCH  31  32
ENDBRANCH  30  31
ENDBRANCH  27  30
ENDBRANCH  25  27
ENDBRANCH  24  25
ENDBRANCH   1  24
TORSDOF 23
ENDMDL
MODEL 9
REMARK VINA RESULT:      -6.4     13.611     18.061
REMARK  23 active torsions:
REMARK  status: ('A' for Active; 'I' for Inactive)
REMARK    1  A    between atoms: C_2  and  C_3 
REMARK    2  A    between atoms: C_3  and  C_4 
REMARK    3  A    between atoms: C_4  and  C_5 
REMARK    4  A    between atoms: C_5  and  C_6 
REMARK    5  A    between atoms: C_5  and  C_8 
REMARK    6  A    between atoms: C_8  and  O_10 
REMARK    7  A    between atoms: O_10  and  C_11 
REMARK    8  A    between atoms: C_11  and  C_12 
REMARK    9  A    between atoms: C_12  and  C_13 
REMARK   10  A    between atoms: C_12  and  O_24 
REMARK   11  A    between atoms: C_13  and  O_14 
REMARK   12  A    between atoms: O_14  and  C_15 
REMARK   13  A    between atoms: C_15  and  C_17 
REMARK   14  A    between atoms: C_17  and  C_18 
REMARK   15  A    between atoms: C_17  and  C_20 
REMARK   16  A    between atoms: C_20  and  C_21 
REMARK   17  A    between atoms: C_21  and  C_22 
REMARK   18  A    between atoms: O_24  and  C_25 
REMARK   19  A    between atoms: C_25  and  C_27 
REMARK   20  A    between atoms: C_27  and  C_28 
REMARK   21  A    between atoms: C_27  and  C_30 
REMARK   22  A    between atoms: C_30  and  C_31 
REMARK   23  A    between atoms: C_31  and  C_32 
ROOT
HETATM    1  C   UNL     1     -20.402  -8.429  -4.309  1.00  0.00     0.180 C 
ENDROOT
BRANCH   1   2
HETATM    2  C   UNL     1     -21.518  -8.002  -5.281  1.00  0.00     0.213 C 
BRANCH   2   3
HETATM    3  O   UNL     1     -21.066  -7.035  -6.263  1.00  0.00    -0.319 OA
BRANCH   3   4
HETATM    4  C   UNL     1     -21.840  -5.923  -6.407  1.00  0.00     0.263 C 
HETATM    5  O   UNL     1     -22.755  -5.637  -5.645  1.00  0.00    -0.265 OA
BRANCH   4   6
HETATM    6  C   UNL     1     -21.391  -5.040  -7.583  1.00  0.00     0.085 C 
BRANCH   6   7
HETATM    7  C   UNL     1     -22.539  -4.276  -8.297  1.00  0.00     0.014 C 
BRANCH   7   8
HETATM    8  C   UNL     1     -22.627  -4.633  -9.790  1.00  0.00     0.000 C 
BRANCH   8   9
HETATM    9  C   UNL     1     -21.988  -3.608 -10.725  1.00  0.00    -0.005 C 
HETATM   10  C   UNL     1     -20.547  -4.010 -11.029  1.00  0.00     0.005 C 
ENDBRANCH   8   9
ENDBRANCH   7   8
ENDBRANCH   6   7
BRANCH   6  11
HETATM   11  C   UNL     1     -20.240  -4.106  -7.135  1.00  0.00     0.010 C 
HETATM   12  C   UNL     1     -18.845  -4.525  -7.600  1.00  0.00     0.006 C 
ENDBRANCH   6  11
ENDBRANCH   4   6
ENDBRANCH   3   4
ENDBRANCH   2   3
ENDBRANCH   1   2
BRANCH   1  13
HETATM   13  C   UNL     1     -20.992  -8.834  -2.945  1.00  0.00     0.213 C 
BRANCH  13  14
HETATM   14  O   UNL     1     -20.991  -7.730  -2.008  1.00  0.00    -0.319 OA
BRANCH  14  15
HETATM   15  C   UNL     1     -21.972  -7.756  -1.060  1.00  0.00     0.263 C 
HETATM   16  O   UNL     1     -22.699  -6.797  -0.816  1.00  0.00    -0.265 OA
BRANCH  15  17
HETATM   17  C   UNL     1     -22.022  -9.103  -0.345  1.00  0.00     0.085 C 
BRANCH  17  18
HETATM   18  C   UNL     1     -21.177  -9.027   0.941  1.00  0.00     0.010 C 
HETATM   19  C   UNL     1     -20.465 -10.336   1.273  1.00  0.00     0.006 C 
ENDBRANCH  17  18
BRANCH  17  20
HETATM   20  C   UNL     1     -23.462  -9.560  -0.014  1.00  0.00     0.014 C 
BRANCH  20  21
HETATM   21  C   UNL     1     -23.882 -10.873  -0.686  1.00  0.00     0.000 C 
BRANCH  21  22
HETATM   22  C   UNL     1     -23.659 -12.066   0.250  1.00  0.00    -0.005 C 
HETATM   23  C   UNL     1     -23.756 -13.378  -0.513  1.00  0.00     0.005 C 
ENDBRANCH  21  22
ENDBRANCH  20  21
ENDBRANCH  17  20
ENDBRANCH  15  17
ENDBRANCH  14  15
ENDBRANCH  13  14
ENDBRANCH   1  13
BRANCH   1  24
HETATM   24  O   UNL     1     -19.778  -9.606  -4.885  1.00  0.00    -0.311 OA
BRANCH  24  25
HETATM   25  C   UNL     1     -18.438  -9.723  -4.682  1.00  0.00     0.263 C 
HETATM   26  O   UNL     1     -17.815  -9.212  -3.758  1.00  0.00    -0.265 OA
BRANCH  25  27
HETATM   27  C   UNL     1     -17.804 -10.520  -5.817  1.00  0.00     0.085 C 
BRANCH  27  28
HETATM   28  C   UNL     1     -16.404 -10.962  -5.345  1.00  0.00     0.010 C 
HETATM   29  C   UNL     1     -15.472 -11.402  -6.465  1.00  0.00     0.006 C 
ENDBRANCH  27  28
BRANCH  27  30
HETATM   30  C   UNL     1     -18.689 -11.703  -6.230  1.00  0.00     0.014 C 
BRANCH  30  31
HETATM   31  C   UNL     1     -18.711 -12.031  -7.728  1.00  0.00     0.000 C 
BRANCH  31  32
HETATM   32  C   UNL     1     -19.606 -13.220  -8.081  1.00  0.00    -0.005 C 
HETATM   33  C   UNL     1     -20.971 -13.095  -7.423  1.00  0.00     0.005 C 
ENDBRANCH  31  32
ENDBRANCH  30  31
ENDBRANCH  27  30
ENDBRANCH  25  27
ENDBRANCH  24  25
ENDBRANCH   1  24
TORSDOF 23
ENDMDL
