MODEL 1
REMARK VINA RESULT:      -3.9      0.000      0.000
REMARK  3 active torsions:
REMARK  status: ('A' for Active; 'I' for Inactive)
REMARK    1  A    between atoms: C_2  and  C_3 
REMARK    2  A    between atoms: C_2  and  O_5 
REMARK    3  A    between atoms: C_3  and  O_4 
ROOT
HETATM    1  C   UNL     1     -23.063  -2.579 -13.041  1.00  0.00     0.041 C 
HETATM    2  C   UNL     1     -23.381  -2.511 -14.526  1.00  0.00     0.137 C 
ENDROOT
BRANCH   2   3
HETATM    3  C   UNL     1     -23.599  -1.070 -14.997  1.00  0.00     0.195 C 
BRANCH   3   4
HETATM    4  O   UNL     1     -24.905  -0.633 -14.626  1.00  0.00    -0.398 OA
HETATM    5  H   UNL     1     -24.964  -0.766 -13.659  1.00  0.00     0.209 HD
ENDBRANCH   3   4
ENDBRANCH   2   3
BRANCH   2   6
HETATM    6  O   UNL     1     -22.304  -3.079 -15.282  1.00  0.00    -0.394 OA
HETATM    7  H   UNL     1     -21.470  -2.863 -14.825  1.00  0.00     0.210 HD
ENDBRANCH   2   6
TORSDOF 3
ENDMDL
MODEL 2
REMARK VINA RESULT:      -3.7     15.271     15.751
REMARK  3 active torsions:
REMARK  status: ('A' for Active; 'I' for Inactive)
REMARK    1  A    between atoms: C_2  and  C_3 
REMARK    2  A    between atoms: C_2  and  O_5 
REMARK    3  A    between atoms: C_3  and  O_4 
ROOT
HETATM    1  C   UNL     1     -30.147 -14.395 -19.542  1.00  0.00     0.041 C 
HETATM    2  C   UNL     1     -29.892 -14.765 -20.994  1.00  0.00     0.137 C 
ENDROOT
BRANCH   2   3
HETATM    3  C   UNL     1     -31.198 -14.962 -21.770  1.00  0.00     0.195 C 
BRANCH   3   4
HETATM    4  O   UNL     1     -31.566 -13.742 -22.413  1.00  0.00    -0.398 OA
HETATM    5  H   UNL     1     -32.346 -13.957 -22.962  1.00  0.00     0.209 HD
ENDBRANCH   3   4
ENDBRANCH   2   3
BRANCH   2   6
HETATM    6  O   UNL     1     -29.133 -13.732 -21.634  1.00  0.00    -0.394 OA
HETATM    7  H   UNL     1     -28.200 -14.014 -21.653  1.00  0.00     0.210 HD
ENDBRANCH   2   6
TORSDOF 3
ENDMDL
MODEL 3
REMARK VINA RESULT:      -3.5      3.470      4.300
REMARK  3 active torsions:
REMARK  status: ('A' for Active; 'I' for Inactive)
REMARK    1  A    between atoms: C_2  and  C_3 
REMARK    2  A    between atoms: C_2  and  O_5 
REMARK    3  A    between atoms: C_3  and  O_4 
ROOT
HETATM    1  C   UNL     1     -22.860  -2.724 -11.882  1.00  0.00     0.041 C 
HETATM    2  C   UNL     1     -24.116  -3.481 -11.481  1.00  0.00     0.137 C 
ENDROOT
BRANCH   2   3
HETATM    3  C   UNL     1     -24.409  -3.347  -9.984  1.00  0.00     0.195 C 
BRANCH   3   4
HETATM    4  O   UNL     1     -25.817  -3.254  -9.774  1.00  0.00    -0.398 OA
HETATM    5  H   UNL     1     -26.058  -4.039  -9.243  1.00  0.00     0.209 HD
ENDBRANCH   3   4
ENDBRANCH   2   3
BRANCH   2   6
HETATM    6  O   UNL     1     -25.242  -2.980 -12.213  1.00  0.00    -0.394 OA
HETATM    7  H   UNL     1     -25.172  -3.304 -13.130  1.00  0.00     0.210 HD
ENDBRANCH   2   6
TORSDOF 3
ENDMDL
MODEL 4
REMARK VINA RESULT:      -3.5      1.849      2.277
REMARK  3 active torsions:
REMARK  status: ('A' for Active; 'I' for Inactive)
REMARK    1  A    between atoms: C_2  and  C_3 
REMARK    2  A    between atoms: C_2  and  O_5 
REMARK    3  A    between atoms: C_3  and  O_4 
ROOT
HETATM    1  C   UNL     1     -22.518  -3.220 -12.379  1.00  0.00     0.041 C 
HETATM    2  C   UNL     1     -23.598  -2.998 -13.424  1.00  0.00     0.137 C 
ENDROOT
BRANCH   2   3
HETATM    3  C   UNL     1     -23.049  -2.304 -14.674  1.00  0.00     0.195 C 
BRANCH   3   4
HETATM    4  O   UNL     1     -22.257  -3.221 -15.427  1.00  0.00    -0.398 OA
HETATM    5  H   UNL     1     -22.816  -4.014 -15.551  1.00  0.00     0.209 HD
ENDBRANCH   3   4
ENDBRANCH   2   3
BRANCH   2   6
HETATM    6  O   UNL     1     -24.165  -4.256 -13.813  1.00  0.00    -0.394 OA
HETATM    7  H   UNL     1     -23.433  -4.858 -14.039  1.00  0.00     0.210 HD
ENDBRANCH   2   6
TORSDOF 3
ENDMDL
MODEL 5
REMARK VINA RESULT:      -3.4      5.345      5.895
REMARK  3 active torsions:
REMARK  status: ('A' for Active; 'I' for Inactive)
REMARK    1  A    between atoms: C_2  and  C_3 
REMARK    2  A    between atoms: C_2  and  O_5 
REMARK    3  A    between atoms: C_3  and  O_4 
ROOT
HETATM    1  C   UNL     1     -22.148  -4.406  -9.385  1.00  0.00     0.041 C 
HETATM    2  C   UNL     1     -23.439  -3.682  -9.040  1.00  0.00     0.137 C 
ENDROOT
BRANCH   2   3
HETATM    3  C   UNL     1     -24.526  -3.919 -10.093  1.00  0.00     0.195 C 
BRANCH   3   4
HETATM    4  O   UNL     1     -25.720  -3.237  -9.716  1.00  0.00    -0.398 OA
HETATM    5  H   UNL     1     -26.308  -3.282 -10.496  1.00  0.00     0.209 HD
ENDBRANCH   3   4
ENDBRANCH   2   3
BRANCH   2   6
HETATM    6  O   UNL     1     -23.927  -4.134  -7.771  1.00  0.00    -0.394 OA
HETATM    7  H   UNL     1     -24.699  -4.707  -7.933  1.00  0.00     0.210 HD
ENDBRANCH   2   6
TORSDOF 3
ENDMDL
MODEL 6
REMARK VINA RESULT:      -3.4      2.998      3.809
REMARK  3 active torsions:
REMARK  status: ('A' for Active; 'I' for Inactive)
REMARK    1  A    between atoms: C_2  and  C_3 
REMARK    2  A    between atoms: C_2  and  O_5 
REMARK    3  A    between atoms: C_3  and  O_4 
ROOT
HETATM    1  C   UNL     1     -23.535  -4.785 -11.266  1.00  0.00     0.041 C 
HETATM    2  C   UNL     1     -24.042  -3.353 -11.328  1.00  0.00     0.137 C 
ENDROOT
BRANCH   2   3
HETATM    3  C   UNL     1     -24.345  -2.917 -12.765  1.00  0.00     0.195 C 
BRANCH   3   4
HETATM    4  O   UNL     1     -24.150  -4.014 -13.654  1.00  0.00    -0.398 OA
HETATM    5  H   UNL     1     -23.649  -3.655 -14.413  1.00  0.00     0.209 HD
ENDBRANCH   3   4
ENDBRANCH   2   3
BRANCH   2   6
HETATM    6  O   UNL     1     -25.239  -3.226 -10.551  1.00  0.00    -0.394 OA
HETATM    7  H   UNL     1     -25.450  -2.277 -10.478  1.00  0.00     0.210 HD
ENDBRANCH   2   6
TORSDOF 3
ENDMDL
MODEL 7
REMARK VINA RESULT:      -3.3      4.992      5.809
REMARK  3 active torsions:
REMARK  status: ('A' for Active; 'I' for Inactive)
REMARK    1  A    between atoms: C_2  and  C_3 
REMARK    2  A    between atoms: C_2  and  O_5 
REMARK    3  A    between atoms: C_3  and  O_4 
ROOT
HETATM    1  C   UNL     1     -23.581  -4.789 -11.314  1.00  0.00     0.041 C 
HETATM    2  C   UNL     1     -24.319  -4.300 -10.079  1.00  0.00     0.137 C 
ENDROOT
BRANCH   2   3
HETATM    3  C   UNL     1     -23.356  -3.791  -9.003  1.00  0.00     0.195 C 
BRANCH   3   4
HETATM    4  O   UNL     1     -23.838  -4.156  -7.711  1.00  0.00    -0.398 OA
HETATM    5  H   UNL     1     -23.573  -3.428  -7.114  1.00  0.00     0.209 HD
ENDBRANCH   3   4
ENDBRANCH   2   3
BRANCH   2   6
HETATM    6  O   UNL     1     -25.210  -3.235 -10.433  1.00  0.00    -0.394 OA
HETATM    7  H   UNL     1     -24.718  -2.604 -10.990  1.00  0.00     0.210 HD
ENDBRANCH   2   6
TORSDOF 3
ENDMDL
MODEL 8
REMARK VINA RESULT:      -3.3      2.319      2.475
REMARK  3 active torsions:
REMARK  status: ('A' for Active; 'I' for Inactive)
REMARK    1  A    between atoms: C_2  and  C_3 
REMARK    2  A    between atoms: C_2  and  O_5 
REMARK    3  A    between atoms: C_3  and  O_4 
ROOT
HETATM    1  C   UNL     1     -21.926  -3.548 -11.231  1.00  0.00     0.041 C 
HETATM    2  C   UNL     1     -22.858  -3.735 -12.417  1.00  0.00     0.137 C 
ENDROOT
BRANCH   2   3
HETATM    3  C   UNL     1     -24.190  -3.006 -12.217  1.00  0.00     0.195 C 
BRANCH   3   4
HETATM    4  O   UNL     1     -24.477  -2.203 -13.361  1.00  0.00    -0.398 OA
HETATM    5  H   UNL     1     -24.256  -2.757 -14.136  1.00  0.00     0.209 HD
ENDBRANCH   3   4
ENDBRANCH   2   3
BRANCH   2   6
HETATM    6  O   UNL     1     -22.238  -3.234 -13.608  1.00  0.00    -0.394 OA
HETATM    7  H   UNL     1     -21.531  -3.855 -13.862  1.00  0.00     0.210 HD
ENDBRANCH   2   6
TORSDOF 3
ENDMDL
MODEL 9
REMARK VINA RESULT:      -3.2     15.799     16.265
REMARK  3 active torsions:
REMARK  status: ('A' for Active; 'I' for Inactive)
REMARK    1  A    between atoms: C_2  and  C_3 
REMARK    2  A    between atoms: C_2  and  O_5 
REMARK    3  A    between atoms: C_3  and  O_4 
ROOT
HETATM    1  C   UNL     1     -11.203   4.814 -19.547  1.00  0.00     0.041 C 
HETATM    2  C   UNL     1     -10.078   5.818 -19.361  1.00  0.00     0.137 C 
ENDROOT
BRANCH   2   3
HETATM    3  C   UNL     1     -10.538   7.250 -19.654  1.00  0.00     0.195 C 
BRANCH   3   4
HETATM    4  O   UNL     1     -10.232   8.092 -18.543  1.00  0.00    -0.398 OA
HETATM    5  H   UNL     1     -10.950   7.946 -17.895  1.00  0.00     0.209 HD
ENDBRANCH   3   4
ENDBRANCH   2   3
BRANCH   2   6
HETATM    6  O   UNL     1      -9.592   5.762 -18.014  1.00  0.00    -0.394 OA
HETATM    7  H   UNL     1      -9.796   6.613 -17.585  1.00  0.00     0.210 HD
ENDBRANCH   2   6
TORSDOF 3
ENDMDL
