MODEL 1
REMARK VINA RESULT:      -6.3      0.000      0.000
REMARK WARNING: 32 MAX_TORS EXCEEDED!!!
REMARK  65 active torsions:
REMARK  status: ('A' for Active; 'I' for Inactive)
REMARK    1  A    between atoms: C_2  and  C_3 
REMARK    2  A    between atoms: C_3  and  C_4 
REMARK    3  A    between atoms: C_4  and  C_5 
REMARK    4  A    between atoms: C_5  and  C_6 
REMARK    5  A    between atoms: C_6  and  C_7 
REMARK    6  A    between atoms: C_7  and  C_8 
REMARK    7  A    between atoms: C_8  and  C_9 
REMARK    8  A    between atoms: C_9  and  C_10 
REMARK    9  A    between atoms: C_10  and  C_11 
REMARK   10  A    between atoms: C_11  and  C_12 
REMARK   11  A    between atoms: C_12  and  C_13 
REMARK   12  A    between atoms: C_13  and  C_14 
REMARK   13  A    between atoms: C_14  and  C_15 
REMARK   14  A    between atoms: C_15  and  C_16 
REMARK   15  A    between atoms: C_15  and  O_22 
REMARK   16  A    between atoms: C_16  and  C_17 
REMARK   17  A    between atoms: C_16  and  O_21 
REMARK   18  A    between atoms: C_17  and  C_18 
REMARK   19  A    between atoms: C_17  and  N_20 
REMARK   20  A    between atoms: C_18  and  O_19 
REMARK       I    between atoms: N_20  and  C_27 
REMARK   21  A    between atoms: C_27  and  C_29 
REMARK   22  A    between atoms: C_29  and  C_30 
REMARK   23  A    between atoms: C_30  and  C_31 
REMARK   24  A    between atoms: C_31  and  C_32 
REMARK   25  A    between atoms: C_32  and  C_33 
REMARK   26  A    between atoms: C_33  and  C_34 
REMARK   27  A    between atoms: C_34  and  C_35 
REMARK   28  A    between atoms: C_35  and  C_36 
REMARK   29  A    between atoms: C_36  and  C_37 
REMARK   30  A    between atoms: C_37  and  C_38 
REMARK   31  A    between atoms: C_38  and  C_39 
REMARK   32  A    between atoms: C_39  and  C_40 
REMARK   33  A    between atoms: C_40  and  C_41 
REMARK   34  A    between atoms: C_41  and  C_42 
REMARK   35  A    between atoms: C_42  and  C_43 
REMARK   36  A    between atoms: C_43  and  C_44 
REMARK   37  A    between atoms: C_44  and  C_45 
REMARK   38  A    between atoms: C_45  and  C_46 
REMARK   39  A    between atoms: C_46  and  C_47 
REMARK   40  A    between atoms: C_47  and  C_48 
REMARK   41  A    between atoms: C_48  and  C_49 
REMARK   42  A    between atoms: C_49  and  C_50 
REMARK   43  A    between atoms: C_50  and  C_51 
REMARK   44  A    between atoms: C_51  and  C_52 
REMARK   45  A    between atoms: C_52  and  C_53 
REMARK   46  A    between atoms: C_53  and  C_54 
REMARK   47  A    between atoms: C_54  and  C_55 
REMARK   48  A    between atoms: C_55  and  C_56 
REMARK   49  A    between atoms: C_56  and  C_57 
REMARK   50  A    between atoms: C_57  and  O_58 
REMARK   51  A    between atoms: O_58  and  C_59 
REMARK   52  A    between atoms: C_59  and  C_61 
REMARK   53  A    between atoms: C_61  and  C_62 
REMARK   54  A    between atoms: C_62  and  C_63 
REMARK   55  A    between atoms: C_63  and  C_64 
REMARK   56  A    between atoms: C_64  and  C_65 
REMARK   57  A    between atoms: C_65  and  C_66 
REMARK   58  A    between atoms: C_66  and  C_67 
REMARK   59  A    between atoms: C_67  and  C_68 
REMARK   60  A    between atoms: C_69  and  C_70 
REMARK   61  A    between atoms: C_70  and  C_71 
REMARK   62  A    between atoms: C_72  and  C_73 
REMARK   63  A    between atoms: C_73  and  C_74 
REMARK   64  A    between atoms: C_74  and  C_75 
REMARK   65  A    between atoms: C_75  and  C_76 
ROOT
HETATM    1  C   UNK A   0     -21.993  -6.295  -2.491  1.00  0.00     0.000 C 
ENDROOT
BRANCH   1   2
HETATM    2  C   UNK A   0     -20.972  -7.142  -3.227  1.00  0.00     0.000 C 
BRANCH   2   3
HETATM    3  C   UNK A   0     -21.579  -7.685  -4.506  1.00  0.00     0.000 C 
BRANCH   3   4
HETATM    4  C   UNK A   0     -20.954  -6.999  -5.705  1.00  0.00     0.000 C 
BRANCH   4   5
HETATM    5  C   UNK A   0     -21.900  -5.947  -6.249  1.00  0.00     0.000 C 
BRANCH   5   6
HETATM    6  C   UNK A   0     -21.208  -4.597  -6.284  1.00  0.00     0.000 C 
BRANCH   6   7
HETATM    7  C   UNK A   0     -19.707  -4.785  -6.172  1.00  0.00     0.000 C 
BRANCH   7   8
HETATM    8  C   UNK A   0     -19.035  -4.401  -7.478  1.00  0.00     0.000 C 
BRANCH   8   9
HETATM    9  C   UNK A   0     -20.086  -3.995  -8.499  1.00  0.00     0.000 C 
BRANCH   9  10
HETATM   10  C   UNK A   0     -20.164  -5.029  -9.602  1.00  0.00     0.009 C 
BRANCH  10  11
HETATM   11  C   UNK A   0     -20.152  -4.378 -10.982  1.00  0.00     0.103 C 
BRANCH  11  12
HETATM   12  C   UNK A   0     -21.345  -3.444 -11.066  1.00  0.00     0.218 C 
HETATM   13  N   UNK A   1     -22.571  -4.078 -10.961  1.00  0.00    -0.352 N 
HETATM   14  H   UNK A   1     -22.616  -5.079 -10.785  1.00  0.00     0.163 HD
HETATM   15  O   UNK A   0     -21.221  -2.263 -11.328  1.00  0.00    -0.274 OA
BRANCH  13  16
HETATM   16  C   UNK A   1     -23.817  -3.308 -11.046  1.00  0.00     0.139 C 
BRANCH  16  17
HETATM   17  C   UNK A   1     -24.517  -3.497 -12.404  1.00  0.00     0.171 C 
BRANCH  17  18
HETATM   18  C   UNK A   1     -23.873  -4.577 -13.288  1.00  0.00     0.149 C 
BRANCH  18  19
HETATM   19  C   UNK A   1     -24.604  -4.773 -14.612  1.00  0.00     0.034 C 
BRANCH  19  20
HETATM   20  C   UNK A   1     -24.945  -6.224 -14.867  1.00  0.00     0.002 C 
BRANCH  20  21
HETATM   21  C   UNK A   1     -25.845  -6.384 -16.058  1.00  0.00     0.000 C 
BRANCH  21  22
HETATM   22  C   UNK A   1     -27.067  -7.177 -15.632  1.00  0.00     0.000 C 
BRANCH  22  23
HETATM   23  C   UNK A   1     -28.307  -6.460 -16.115  1.00  0.00     0.000 C 
BRANCH  23  24
HETATM   24  C   UNK A   1     -29.009  -7.294 -17.165  1.00  0.00     0.000 C 
BRANCH  24  25
HETATM   25  C   UNK A   1     -29.218  -6.464 -18.415  1.00  0.00     0.000 C 
BRANCH  25  26
HETATM   26  C   UNK A   1     -27.878  -6.008 -18.960  1.00  0.00     0.000 C 
BRANCH  26  27
HETATM   27  C   UNK A   1     -27.368  -7.011 -19.976  1.00  0.00     0.000 C 
BRANCH  27  28
HETATM   28  C   UNK A   1     -25.919  -6.713 -20.311  1.00  0.00     0.000 C 
BRANCH  28  29
HETATM   29  C   UNK A   1     -25.310  -7.887 -21.057  1.00  0.00     0.000 C 
BRANCH  29  30
HETATM   30  C   UNK A   1     -24.381  -7.382 -22.147  1.00  0.00    -0.000 C 
BRANCH  30  31
HETATM   31  C   UNK A   1     -23.296  -8.409 -22.432  1.00  0.00    -0.005 C 
HETATM   32  C   UNK A   1     -22.356  -8.514 -21.250  1.00  0.00     0.005 C 
ENDBRANCH  30  31
ENDBRANCH  29  30
ENDBRANCH  28  29
ENDBRANCH  27  28
ENDBRANCH  26  27
ENDBRANCH  25  26
ENDBRANCH  24  25
ENDBRANCH  23  24
ENDBRANCH  22  23
ENDBRANCH  21  22
ENDBRANCH  20  21
ENDBRANCH  19  20
ENDBRANCH  18  19
BRANCH  18  33
HETATM   33  O   UNK A   1     -23.892  -5.847 -12.649  1.00  0.00    -0.393 OA
HETATM   34  H   UNK A   1     -24.659  -5.908 -12.048  1.00  0.00     0.210 HD
ENDBRANCH  18  33
ENDBRANCH  17  18
BRANCH  17  35
HETATM   35  O   UNK A   1     -24.489  -2.207 -13.031  1.00  0.00    -0.391 OA
HETATM   36  H   UNK A   1     -23.623  -2.047 -13.454  1.00  0.00     0.210 HD
ENDBRANCH  17  35
ENDBRANCH  16  17
BRANCH  16  37
HETATM   37  C   UNK A   1     -24.817  -3.671  -9.940  1.00  0.00     0.191 C 
BRANCH  37  38
HETATM   38  O   UNK A   1     -24.238  -3.637  -8.643  1.00  0.00    -0.399 OA
HETATM   39  H   UNK A   1     -23.677  -4.429  -8.557  1.00  0.00     0.209 HD
ENDBRANCH  37  38
ENDBRANCH  16  37
ENDBRANCH  13  16
ENDBRANCH  11  12
ENDBRANCH  10  11
ENDBRANCH   9  10
ENDBRANCH   8   9
ENDBRANCH   7   8
ENDBRANCH   6   7
ENDBRANCH   5   6
ENDBRANCH   4   5
ENDBRANCH   3   4
ENDBRANCH   2   3
ENDBRANCH   1   2
BRANCH   1  40
HETATM   40  C   UNK A   0     -22.305  -6.920  -1.145  1.00  0.00     0.000 C 
BRANCH  40  41
HETATM   41  C   UNK A   0     -21.179  -7.850  -0.735  1.00  0.00     0.000 C 
BRANCH  41  42
HETATM   42  C   UNK A   0     -21.696  -8.882   0.249  1.00  0.00     0.000 C 
BRANCH  42  43
HETATM   43  C   UNK A   0     -23.208  -8.794   0.341  1.00  0.00     0.000 C 
BRANCH  43  44
HETATM   44  C   UNK A   0     -23.824 -10.133  -0.013  1.00  0.00     0.000 C 
BRANCH  44  45
HETATM   45  C   UNK A   0     -22.739 -11.103  -0.436  1.00  0.00     0.000 C 
BRANCH  45  46
HETATM   46  C   UNK A   0     -23.130 -11.777  -1.737  1.00  0.00     0.000 C 
BRANCH  46  47
HETATM   47  C   UNK A   0     -22.647 -10.949  -2.912  1.00  0.00     0.000 C 
BRANCH  47  48
HETATM   48  C   UNK A   0     -21.135 -10.835  -2.875  1.00  0.00     0.000 C 
BRANCH  48  49
HETATM   49  C   UNK A   0     -20.509 -12.146  -3.310  1.00  0.00     0.000 C 
BRANCH  49  50
HETATM   50  C   UNK A   0     -19.265 -12.421  -2.487  1.00  0.00     0.000 C 
BRANCH  50  51
HETATM   51  C   UNK A   0     -19.272 -11.558  -1.239  1.00  0.00     0.000 C 
BRANCH  51  52
HETATM   52  C   UNK A   0     -18.517 -12.260  -0.126  1.00  0.00     0.000 C 
BRANCH  52  53
HETATM   53  C   UNK A   0     -17.785 -13.460  -0.682  1.00  0.00     0.000 C 
BRANCH  53  54
HETATM   54  C   UNK A   0     -16.696 -13.912   0.281  1.00  0.00     0.000 C 
BRANCH  54  55
HETATM   55  C   UNK A   0     -15.995 -12.711   0.903  1.00  0.00     0.002 C 
BRANCH  55  56
HETATM   56  C   UNK A   0     -15.548 -13.022   2.328  1.00  0.00     0.027 C 
BRANCH  56  57
HETATM   57  C   UNK A   0     -15.865 -14.452   2.713  1.00  0.00     0.178 C 
BRANCH  57  58
HETATM   58  O   UNK A   0     -14.651 -15.131   3.137  1.00  0.00    -0.321 OA
BRANCH  58  59
HETATM   59  C   UNK A   0     -13.988 -15.737   2.102  1.00  0.00     0.258 C 
HETATM   60  O   UNK A   0     -14.491 -16.591   1.350  1.00  0.00    -0.265 OA
BRANCH  59  61
HETATM   61  C   UNK A   0     -12.564 -15.255   1.957  1.00  0.00     0.111 C 
BRANCH  61  62
HETATM   62  C   UNK A   0     -12.479 -14.158   0.904  1.00  0.00     0.010 C 
BRANCH  62  63
HETATM   63  C   UNK A   0     -11.928 -14.678  -0.420  1.00  0.00     0.000 C 
BRANCH  63  64
HETATM   64  C   UNK A   0     -13.054 -14.855  -1.432  1.00  0.00     0.000 C 
BRANCH  64  65
HETATM   65  C   UNK A   0     -12.567 -14.521  -2.834  1.00  0.00     0.000 C 
BRANCH  65  66
HETATM   66  C   UNK A   0     -13.287 -13.289  -3.365  1.00  0.00     0.004 C 
BRANCH  66  67
HETATM   67  C   UNK A   0     -14.555 -13.033  -2.565  1.00  0.00     0.027 C 
BRANCH  67  68
HETATM   68  C   UNK A   0     -15.238 -11.791  -3.038  1.00  0.00    -0.030 C 
HETATM   69  C   UNK A   0     -15.649 -10.841  -2.188  1.00  0.00    -0.027 C 
BRANCH  69  70
HETATM   70  C   UNK A   0     -16.342  -9.597  -2.645  1.00  0.00     0.053 C 
BRANCH  70  71
HETATM   71  C   UNK A   0     -16.735  -9.672  -4.084  1.00  0.00    -0.027 C 
HETATM   72  C   UNK A   0     -18.016  -9.695  -4.482  1.00  0.00    -0.030 C 
BRANCH  72  73
HETATM   73  C   UNK A   0     -18.397  -9.767  -5.924  1.00  0.00     0.027 C 
BRANCH  73  74
HETATM   74  C   UNK A   0     -18.316 -11.201  -6.433  1.00  0.00     0.004 C 
BRANCH  74  75
HETATM   75  C   UNK A   0     -19.708 -11.731  -6.740  1.00  0.00    -0.000 C 
BRANCH  75  76
HETATM   76  C   UNK A   0     -19.681 -13.248  -6.876  1.00  0.00    -0.005 C 
HETATM   77  C   UNK A   0     -18.517 -13.826  -6.096  1.00  0.00     0.005 C 
ENDBRANCH  75  76
ENDBRANCH  74  75
ENDBRANCH  73  74
ENDBRANCH  72  73
ENDBRANCH  70  71
ENDBRANCH  69  70
ENDBRANCH  67  68
ENDBRANCH  66  67
ENDBRANCH  65  66
ENDBRANCH  64  65
ENDBRANCH  63  64
ENDBRANCH  62  63
ENDBRANCH  61  62
ENDBRANCH  59  61
ENDBRANCH  58  59
ENDBRANCH  57  58
ENDBRANCH  56  57
ENDBRANCH  55  56
ENDBRANCH  54  55
ENDBRANCH  53  54
ENDBRANCH  52  53
ENDBRANCH  51  52
ENDBRANCH  50  51
ENDBRANCH  49  50
ENDBRANCH  48  49
ENDBRANCH  47  48
ENDBRANCH  46  47
ENDBRANCH  45  46
ENDBRANCH  44  45
ENDBRANCH  43  44
ENDBRANCH  42  43
ENDBRANCH  41  42
ENDBRANCH  40  41
ENDBRANCH   1  40
TORSDOF 65
ENDMDL
MODEL 2
REMARK VINA RESULT:      -5.9      3.418      7.663
REMARK WARNING: 32 MAX_TORS EXCEEDED!!!
REMARK  65 active torsions:
REMARK  status: ('A' for Active; 'I' for Inactive)
REMARK    1  A    between atoms: C_2  and  C_3 
REMARK    2  A    between atoms: C_3  and  C_4 
REMARK    3  A    between atoms: C_4  and  C_5 
REMARK    4  A    between atoms: C_5  and  C_6 
REMARK    5  A    between atoms: C_6  and  C_7 
REMARK    6  A    between atoms: C_7  and  C_8 
REMARK    7  A    between atoms: C_8  and  C_9 
REMARK    8  A    between atoms: C_9  and  C_10 
REMARK    9  A    between atoms: C_10  and  C_11 
REMARK   10  A    between atoms: C_11  and  C_12 
REMARK   11  A    between atoms: C_12  and  C_13 
REMARK   12  A    between atoms: C_13  and  C_14 
REMARK   13  A    between atoms: C_14  and  C_15 
REMARK   14  A    between atoms: C_15  and  C_16 
REMARK   15  A    between atoms: C_15  and  O_22 
REMARK   16  A    between atoms: C_16  and  C_17 
REMARK   17  A    between atoms: C_16  and  O_21 
REMARK   18  A    between atoms: C_17  and  C_18 
REMARK   19  A    between atoms: C_17  and  N_20 
REMARK   20  A    between atoms: C_18  and  O_19 
REMARK       I    between atoms: N_20  and  C_27 
REMARK   21  A    between atoms: C_27  and  C_29 
REMARK   22  A    between atoms: C_29  and  C_30 
REMARK   23  A    between atoms: C_30  and  C_31 
REMARK   24  A    between atoms: C_31  and  C_32 
REMARK   25  A    between atoms: C_32  and  C_33 
REMARK   26  A    between atoms: C_33  and  C_34 
REMARK   27  A    between atoms: C_34  and  C_35 
REMARK   28  A    between atoms: C_35  and  C_36 
REMARK   29  A    between atoms: C_36  and  C_37 
REMARK   30  A    between atoms: C_37  and  C_38 
REMARK   31  A    between atoms: C_38  and  C_39 
REMARK   32  A    between atoms: C_39  and  C_40 
REMARK   33  A    between atoms: C_40  and  C_41 
REMARK   34  A    between atoms: C_41  and  C_42 
REMARK   35  A    between atoms: C_42  and  C_43 
REMARK   36  A    between atoms: C_43  and  C_44 
REMARK   37  A    between atoms: C_44  and  C_45 
REMARK   38  A    between atoms: C_45  and  C_46 
REMARK   39  A    between atoms: C_46  and  C_47 
REMARK   40  A    between atoms: C_47  and  C_48 
REMARK   41  A    between atoms: C_48  and  C_49 
REMARK   42  A    between atoms: C_49  and  C_50 
REMARK   43  A    between atoms: C_50  and  C_51 
REMARK   44  A    between atoms: C_51  and  C_52 
REMARK   45  A    between atoms: C_52  and  C_53 
REMARK   46  A    between atoms: C_53  and  C_54 
REMARK   47  A    between atoms: C_54  and  C_55 
REMARK   48  A    between atoms: C_55  and  C_56 
REMARK   49  A    between atoms: C_56  and  C_57 
REMARK   50  A    between atoms: C_57  and  O_58 
REMARK   51  A    between atoms: O_58  and  C_59 
REMARK   52  A    between atoms: C_59  and  C_61 
REMARK   53  A    between atoms: C_61  and  C_62 
REMARK   54  A    between atoms: C_62  and  C_63 
REMARK   55  A    between atoms: C_63  and  C_64 
REMARK   56  A    between atoms: C_64  and  C_65 
REMARK   57  A    between atoms: C_65  and  C_66 
REMARK   58  A    between atoms: C_66  and  C_67 
REMARK   59  A    between atoms: C_67  and  C_68 
REMARK   60  A    between atoms: C_69  and  C_70 
REMARK   61  A    between atoms: C_70  and  C_71 
REMARK   62  A    between atoms: C_72  and  C_73 
REMARK   63  A    between atoms: C_73  and  C_74 
REMARK   64  A    between atoms: C_74  and  C_75 
REMARK   65  A    between atoms: C_75  and  C_76 
ROOT
HETATM    1  C   UNK A   0     -20.139  -4.586  -9.008  1.00  0.00     0.000 C 
ENDROOT
BRANCH   1   2
HETATM    2  C   UNK A   0     -21.543  -4.543  -9.579  1.00  0.00     0.000 C 
BRANCH   2   3
HETATM    3  C   UNK A   0     -22.553  -4.425  -8.454  1.00  0.00     0.000 C 
BRANCH   3   4
HETATM    4  C   UNK A   0     -23.838  -3.815  -8.977  1.00  0.00     0.000 C 
BRANCH   4   5
HETATM    5  C   UNK A   0     -24.109  -4.309 -10.385  1.00  0.00     0.000 C 
BRANCH   5   6
HETATM    6  C   UNK A   0     -24.383  -3.132 -11.301  1.00  0.00     0.000 C 
BRANCH   6   7
HETATM    7  C   UNK A   0     -23.241  -2.969 -12.287  1.00  0.00     0.000 C 
BRANCH   7   8
HETATM    8  C   UNK A   0     -23.702  -3.345 -13.684  1.00  0.00     0.000 C 
BRANCH   8   9
HETATM    9  C   UNK A   0     -24.320  -4.734 -13.667  1.00  0.00     0.000 C 
BRANCH   9  10
HETATM   10  C   UNK A   0     -24.738  -5.131 -15.067  1.00  0.00     0.009 C 
BRANCH  10  11
HETATM   11  C   UNK A   0     -25.351  -6.527 -15.094  1.00  0.00     0.103 C 
BRANCH  11  12
HETATM   12  C   UNK A   0     -24.958  -7.184 -16.404  1.00  0.00     0.218 C 
HETATM   13  N   UNK A   1     -25.461  -6.554 -17.528  1.00  0.00    -0.352 N 
HETATM   14  H   UNK A   1     -25.997  -5.693 -17.436  1.00  0.00     0.163 HD
HETATM   15  O   UNK A   0     -24.356  -8.240 -16.439  1.00  0.00    -0.274 OA
BRANCH  13  16
HETATM   16  C   UNK A   1     -25.183  -7.086 -18.867  1.00  0.00     0.139 C 
BRANCH  16  17
HETATM   17  C   UNK A   1     -25.947  -6.317 -19.960  1.00  0.00     0.171 C 
BRANCH  17  18
HETATM   18  C   UNK A   1     -27.389  -6.807 -20.169  1.00  0.00     0.149 C 
BRANCH  18  19
HETATM   19  C   UNK A   1     -28.273  -6.587 -18.946  1.00  0.00     0.034 C 
BRANCH  19  20
HETATM   20  C   UNK A   1     -29.435  -7.554 -18.900  1.00  0.00     0.002 C 
BRANCH  20  21
HETATM   21  C   UNK A   1     -30.263  -7.372 -17.660  1.00  0.00     0.000 C 
BRANCH  21  22
HETATM   22  C   UNK A   1     -29.467  -6.544 -16.668  1.00  0.00     0.000 C 
BRANCH  22  23
HETATM   23  C   UNK A   1     -30.345  -5.431 -16.146  1.00  0.00     0.000 C 
BRANCH  23  24
HETATM   24  C   UNK A   1     -31.642  -5.390 -16.926  1.00  0.00     0.000 C 
BRANCH  24  25
HETATM   25  C   UNK A   1     -31.959  -3.957 -17.305  1.00  0.00     0.000 C 
BRANCH  25  26
HETATM   26  C   UNK A   1     -33.429  -3.675 -17.065  1.00  0.00     0.000 C 
BRANCH  26  27
HETATM   27  C   UNK A   1     -33.908  -4.444 -15.850  1.00  0.00     0.000 C 
BRANCH  27  28
HETATM   28  C   UNK A   1     -34.082  -3.499 -14.677  1.00  0.00     0.000 C 
BRANCH  28  29
HETATM   29  C   UNK A   1     -34.070  -4.282 -13.376  1.00  0.00     0.000 C 
BRANCH  29  30
HETATM   30  C   UNK A   1     -33.908  -3.334 -12.201  1.00  0.00    -0.000 C 
BRANCH  30  31
HETATM   31  C   UNK A   1     -33.344  -4.076 -11.000  1.00  0.00    -0.005 C 
HETATM   32  C   UNK A   1     -34.326  -5.128 -10.530  1.00  0.00     0.005 C 
ENDBRANCH  30  31
ENDBRANCH  29  30
ENDBRANCH  28  29
ENDBRANCH  27  28
ENDBRANCH  26  27
ENDBRANCH  25  26
ENDBRANCH  24  25
ENDBRANCH  23  24
ENDBRANCH  22  23
ENDBRANCH  21  22
ENDBRANCH  20  21
ENDBRANCH  19  20
ENDBRANCH  18  19
BRANCH  18  33
HETATM   33  O   UNK A   1     -27.429  -8.205 -20.423  1.00  0.00    -0.393 OA
HETATM   34  H   UNK A   1     -28.352  -8.496 -20.552  1.00  0.00     0.210 HD
ENDBRANCH  18  33
ENDBRANCH  17  18
BRANCH  17  35
HETATM   35  O   UNK A   1     -25.157  -6.460 -21.150  1.00  0.00    -0.391 OA
HETATM   36  H   UNK A   1     -25.542  -5.943 -21.885  1.00  0.00     0.210 HD
ENDBRANCH  17  35
ENDBRANCH  16  17
BRANCH  16  37
HETATM   37  C   UNK A   1     -23.690  -7.056 -19.221  1.00  0.00     0.191 C 
BRANCH  37  38
HETATM   38  O   UNK A   1     -23.309  -8.120 -20.084  1.00  0.00    -0.399 OA
HETATM   39  H   UNK A   1     -22.395  -8.365 -19.853  1.00  0.00     0.209 HD
ENDBRANCH  37  38
ENDBRANCH  16  37
ENDBRANCH  13  16
ENDBRANCH  11  12
ENDBRANCH  10  11
ENDBRANCH   9  10
ENDBRANCH   8   9
ENDBRANCH   7   8
ENDBRANCH   6   7
ENDBRANCH   5   6
ENDBRANCH   4   5
ENDBRANCH   3   4
ENDBRANCH   2   3
ENDBRANCH   1   2
BRANCH   1  40
HETATM   40  C   UNK A   0     -20.101  -3.859  -7.678  1.00  0.00     0.000 C 
BRANCH  40  41
HETATM   41  C   UNK A   0     -19.506  -4.762  -6.614  1.00  0.00     0.000 C 
BRANCH  41  42
HETATM   42  C   UNK A   0     -19.786  -6.213  -6.955  1.00  0.00     0.000 C 
BRANCH  42  43
HETATM   43  C   UNK A   0     -20.824  -6.775  -6.001  1.00  0.00     0.000 C 
BRANCH  43  44
HETATM   44  C   UNK A   0     -20.176  -7.779  -5.068  1.00  0.00     0.000 C 
BRANCH  44  45
HETATM   45  C   UNK A   0     -20.838  -7.719  -3.706  1.00  0.00     0.000 C 
BRANCH  45  46
HETATM   46  C   UNK A   0     -21.745  -6.507  -3.628  1.00  0.00     0.000 C 
BRANCH  46  47
HETATM   47  C   UNK A   0     -22.004  -6.150  -2.176  1.00  0.00     0.000 C 
BRANCH  47  48
HETATM   48  C   UNK A   0     -21.668  -7.332  -1.288  1.00  0.00     0.000 C 
BRANCH  48  49
HETATM   49  C   UNK A   0     -22.680  -7.434  -0.162  1.00  0.00     0.000 C 
BRANCH  49  50
HETATM   50  C   UNK A   0     -22.248  -8.504   0.823  1.00  0.00     0.000 C 
BRANCH  50  51
HETATM   51  C   UNK A   0     -20.924  -9.102   0.386  1.00  0.00     0.000 C 
BRANCH  51  52
HETATM   52  C   UNK A   0     -20.712 -10.435   1.079  1.00  0.00     0.000 C 
BRANCH  52  53
HETATM   53  C   UNK A   0     -19.676 -11.242   0.329  1.00  0.00     0.000 C 
BRANCH  53  54
HETATM   54  C   UNK A   0     -19.709 -10.902  -1.155  1.00  0.00     0.000 C 
BRANCH  54  55
HETATM   55  C   UNK A   0     -19.508 -12.154  -1.998  1.00  0.00     0.002 C 
BRANCH  55  56
HETATM   56  C   UNK A   0     -19.472 -13.400  -1.118  1.00  0.00     0.027 C 
BRANCH  56  57
HETATM   57  C   UNK A   0     -20.519 -14.412  -1.540  1.00  0.00     0.178 C 
BRANCH  57  58
HETATM   58  O   UNK A   0     -20.849 -15.277  -0.418  1.00  0.00    -0.321 OA
BRANCH  58  59
HETATM   59  C   UNK A   0     -21.613 -14.651   0.532  1.00  0.00     0.258 C 
HETATM   60  O   UNK A   0     -21.290 -14.532   1.727  1.00  0.00    -0.265 OA
BRANCH  59  61
HETATM   61  C   UNK A   0     -22.907 -14.104  -0.025  1.00  0.00     0.111 C 
BRANCH  61  62
HETATM   62  C   UNK A   0     -23.345 -12.874   0.758  1.00  0.00     0.010 C 
BRANCH  62  63
HETATM   63  C   UNK A   0     -23.844 -11.761  -0.157  1.00  0.00     0.000 C 
BRANCH  63  64
HETATM   64  C   UNK A   0     -23.342 -11.978  -1.580  1.00  0.00     0.000 C 
BRANCH  64  65
HETATM   65  C   UNK A   0     -23.007 -10.646  -2.234  1.00  0.00     0.000 C 
BRANCH  65  66
HETATM   66  C   UNK A   0     -22.601 -10.857  -3.687  1.00  0.00     0.004 C 
BRANCH  66  67
HETATM   67  C   UNK A   0     -22.583 -12.341  -4.019  1.00  0.00     0.027 C 
BRANCH  67  68
HETATM   68  C   UNK A   0     -21.484 -12.655  -4.981  1.00  0.00    -0.030 C 
HETATM   69  C   UNK A   0     -21.070 -11.770  -5.898  1.00  0.00    -0.027 C 
BRANCH  69  70
HETATM   70  C   UNK A   0     -19.978 -12.074  -6.874  1.00  0.00     0.053 C 
BRANCH  70  71
HETATM   71  C   UNK A   0     -18.632 -11.707  -6.340  1.00  0.00    -0.027 C 
HETATM   72  C   UNK A   0     -18.473 -10.997  -5.212  1.00  0.00    -0.030 C 
BRANCH  72  73
HETATM   73  C   UNK A   0     -17.122 -10.639  -4.686  1.00  0.00     0.027 C 
BRANCH  73  74
HETATM   74  C   UNK A   0     -17.227  -9.559  -3.618  1.00  0.00     0.004 C 
BRANCH  74  75
HETATM   75  C   UNK A   0     -16.057  -9.656  -2.651  1.00  0.00    -0.000 C 
BRANCH  75  76
HETATM   76  C   UNK A   0     -15.606 -11.103  -2.506  1.00  0.00    -0.005 C 
HETATM   77  C   UNK A   0     -15.978 -11.637  -1.137  1.00  0.00     0.005 C 
ENDBRANCH  75  76
ENDBRANCH  74  75
ENDBRANCH  73  74
ENDBRANCH  72  73
ENDBRANCH  70  71
ENDBRANCH  69  70
ENDBRANCH  67  68
ENDBRANCH  66  67
ENDBRANCH  65  66
ENDBRANCH  64  65
ENDBRANCH  63  64
ENDBRANCH  62  63
ENDBRANCH  61  62
ENDBRANCH  59  61
ENDBRANCH  58  59
ENDBRANCH  57  58
ENDBRANCH  56  57
ENDBRANCH  55  56
ENDBRANCH  54  55
ENDBRANCH  53  54
ENDBRANCH  52  53
ENDBRANCH  51  52
ENDBRANCH  50  51
ENDBRANCH  49  50
ENDBRANCH  48  49
ENDBRANCH  47  48
ENDBRANCH  46  47
ENDBRANCH  45  46
ENDBRANCH  44  45
ENDBRANCH  43  44
ENDBRANCH  42  43
ENDBRANCH  41  42
ENDBRANCH  40  41
ENDBRANCH   1  40
TORSDOF 65
ENDMDL
MODEL 3
REMARK VINA RESULT:      -5.8      3.933      6.907
REMARK WARNING: 32 MAX_TORS EXCEEDED!!!
REMARK  65 active torsions:
REMARK  status: ('A' for Active; 'I' for Inactive)
REMARK    1  A    between atoms: C_2  and  C_3 
REMARK    2  A    between atoms: C_3  and  C_4 
REMARK    3  A    between atoms: C_4  and  C_5 
REMARK    4  A    between atoms: C_5  and  C_6 
REMARK    5  A    between atoms: C_6  and  C_7 
REMARK    6  A    between atoms: C_7  and  C_8 
REMARK    7  A    between atoms: C_8  and  C_9 
REMARK    8  A    between atoms: C_9  and  C_10 
REMARK    9  A    between atoms: C_10  and  C_11 
REMARK   10  A    between atoms: C_11  and  C_12 
REMARK   11  A    between atoms: C_12  and  C_13 
REMARK   12  A    between atoms: C_13  and  C_14 
REMARK   13  A    between atoms: C_14  and  C_15 
REMARK   14  A    between atoms: C_15  and  C_16 
REMARK   15  A    between atoms: C_15  and  O_22 
REMARK   16  A    between atoms: C_16  and  C_17 
REMARK   17  A    between atoms: C_16  and  O_21 
REMARK   18  A    between atoms: C_17  and  C_18 
REMARK   19  A    between atoms: C_17  and  N_20 
REMARK   20  A    between atoms: C_18  and  O_19 
REMARK       I    between atoms: N_20  and  C_27 
REMARK   21  A    between atoms: C_27  and  C_29 
REMARK   22  A    between atoms: C_29  and  C_30 
REMARK   23  A    between atoms: C_30  and  C_31 
REMARK   24  A    between atoms: C_31  and  C_32 
REMARK   25  A    between atoms: C_32  and  C_33 
REMARK   26  A    between atoms: C_33  and  C_34 
REMARK   27  A    between atoms: C_34  and  C_35 
REMARK   28  A    between atoms: C_35  and  C_36 
REMARK   29  A    between atoms: C_36  and  C_37 
REMARK   30  A    between atoms: C_37  and  C_38 
REMARK   31  A    between atoms: C_38  and  C_39 
REMARK   32  A    between atoms: C_39  and  C_40 
REMARK   33  A    between atoms: C_40  and  C_41 
REMARK   34  A    between atoms: C_41  and  C_42 
REMARK   35  A    between atoms: C_42  and  C_43 
REMARK   36  A    between atoms: C_43  and  C_44 
REMARK   37  A    between atoms: C_44  and  C_45 
REMARK   38  A    between atoms: C_45  and  C_46 
REMARK   39  A    between atoms: C_46  and  C_47 
REMARK   40  A    between atoms: C_47  and  C_48 
REMARK   41  A    between atoms: C_48  and  C_49 
REMARK   42  A    between atoms: C_49  and  C_50 
REMARK   43  A    between atoms: C_50  and  C_51 
REMARK   44  A    between atoms: C_51  and  C_52 
REMARK   45  A    between atoms: C_52  and  C_53 
REMARK   46  A    between atoms: C_53  and  C_54 
REMARK   47  A    between atoms: C_54  and  C_55 
REMARK   48  A    between atoms: C_55  and  C_56 
REMARK   49  A    between atoms: C_56  and  C_57 
REMARK   50  A    between atoms: C_57  and  O_58 
REMARK   51  A    between atoms: O_58  and  C_59 
REMARK   52  A    between atoms: C_59  and  C_61 
REMARK   53  A    between atoms: C_61  and  C_62 
REMARK   54  A    between atoms: C_62  and  C_63 
REMARK   55  A    between atoms: C_63  and  C_64 
REMARK   56  A    between atoms: C_64  and  C_65 
REMARK   57  A    between atoms: C_65  and  C_66 
REMARK   58  A    between atoms: C_66  and  C_67 
REMARK   59  A    between atoms: C_67  and  C_68 
REMARK   60  A    between atoms: C_69  and  C_70 
REMARK   61  A    between atoms: C_70  and  C_71 
REMARK   62  A    between atoms: C_72  and  C_73 
REMARK   63  A    between atoms: C_73  and  C_74 
REMARK   64  A    between atoms: C_74  and  C_75 
REMARK   65  A    between atoms: C_75  and  C_76 
ROOT
HETATM    1  C   UNK A   0     -19.708  -4.856  -7.478  1.00  0.00     0.000 C 
ENDROOT
BRANCH   1   2
HETATM    2  C   UNK A   0     -20.736  -4.454  -8.517  1.00  0.00     0.000 C 
BRANCH   2   3
HETATM    3  C   UNK A   0     -21.885  -3.721  -7.850  1.00  0.00     0.000 C 
BRANCH   3   4
HETATM    4  C   UNK A   0     -23.196  -4.115  -8.502  1.00  0.00     0.000 C 
BRANCH   4   5
HETATM    5  C   UNK A   0     -22.933  -4.711  -9.871  1.00  0.00     0.000 C 
BRANCH   5   6
HETATM    6  C   UNK A   0     -23.282  -3.702 -10.949  1.00  0.00     0.000 C 
BRANCH   6   7
HETATM    7  C   UNK A   0     -22.207  -3.698 -12.019  1.00  0.00     0.000 C 
BRANCH   7   8
HETATM    8  C   UNK A   0     -22.683  -2.920 -13.232  1.00  0.00     0.000 C 
BRANCH   8   9
HETATM    9  C   UNK A   0     -24.113  -3.312 -13.568  1.00  0.00     0.000 C 
BRANCH   9  10
HETATM   10  C   UNK A   0     -24.119  -4.393 -14.628  1.00  0.00     0.009 C 
BRANCH  10  11
HETATM   11  C   UNK A   0     -24.895  -5.623 -14.169  1.00  0.00     0.103 C 
BRANCH  11  12
HETATM   12  C   UNK A   0     -25.164  -6.486 -15.387  1.00  0.00     0.218 C 
HETATM   13  N   UNK A   1     -26.122  -5.974 -16.246  1.00  0.00    -0.352 N 
HETATM   14  H   UNK A   1     -26.540  -5.064 -16.061  1.00  0.00     0.163 HD
HETATM   15  O   UNK A   0     -24.665  -7.587 -15.520  1.00  0.00    -0.274 OA
BRANCH  13  16
HETATM   16  C   UNK A   1     -26.505  -6.707 -17.457  1.00  0.00     0.139 C 
BRANCH  16  17
HETATM   17  C   UNK A   1     -27.894  -6.286 -17.968  1.00  0.00     0.171 C 
BRANCH  17  18
HETATM   18  C   UNK A   1     -29.038  -6.614 -16.995  1.00  0.00     0.149 C 
BRANCH  18  19
HETATM   19  C   UNK A   1     -30.401  -6.167 -17.509  1.00  0.00     0.034 C 
BRANCH  19  20
HETATM   20  C   UNK A   1     -31.094  -5.227 -16.548  1.00  0.00     0.002 C 
BRANCH  20  21
HETATM   21  C   UNK A   1     -31.925  -4.205 -17.269  1.00  0.00     0.000 C 
BRANCH  21  22
HETATM   22  C   UNK A   1     -33.244  -4.053 -16.534  1.00  0.00     0.000 C 
BRANCH  22  23
HETATM   23  C   UNK A   1     -33.984  -2.863 -17.099  1.00  0.00     0.000 C 
BRANCH  23  24
HETATM   24  C   UNK A   1     -35.106  -2.462 -16.165  1.00  0.00     0.000 C 
BRANCH  24  25
HETATM   25  C   UNK A   1     -35.282  -0.957 -16.201  1.00  0.00     0.000 C 
BRANCH  25  26
HETATM   26  C   UNK A   1     -36.025  -0.497 -14.962  1.00  0.00     0.000 C 
BRANCH  26  27
HETATM   27  C   UNK A   1     -35.122  -0.611 -13.749  1.00  0.00     0.000 C 
BRANCH  27  28
HETATM   28  C   UNK A   1     -35.961  -0.771 -12.495  1.00  0.00     0.000 C 
BRANCH  28  29
HETATM   29  C   UNK A   1     -35.480  -1.973 -11.702  1.00  0.00     0.000 C 
BRANCH  29  30
HETATM   30  C   UNK A   1     -34.315  -2.634 -12.418  1.00  0.00    -0.000 C 
BRANCH  30  31
HETATM   31  C   UNK A   1     -33.305  -3.157 -11.409  1.00  0.00    -0.005 C 
HETATM   32  C   UNK A   1     -33.921  -4.268 -10.584  1.00  0.00     0.005 C 
ENDBRANCH  30  31
ENDBRANCH  29  30
ENDBRANCH  28  29
ENDBRANCH  27  28
ENDBRANCH  26  27
ENDBRANCH  25  26
ENDBRANCH  24  25
ENDBRANCH  23  24
ENDBRANCH  22  23
ENDBRANCH  21  22
ENDBRANCH  20  21
ENDBRANCH  19  20
ENDBRANCH  18  19
BRANCH  18  33
HETATM   33  O   UNK A   1     -28.863  -5.952 -15.749  1.00  0.00    -0.393 OA
HETATM   34  H   UNK A   1     -29.731  -5.712 -15.373  1.00  0.00     0.210 HD
ENDBRANCH  18  33
ENDBRANCH  17  18
BRANCH  17  35
HETATM   35  O   UNK A   1     -28.056  -6.955 -19.227  1.00  0.00    -0.391 OA
HETATM   36  H   UNK A   1     -28.043  -7.925 -19.108  1.00  0.00     0.210 HD
ENDBRANCH  17  35
ENDBRANCH  16  17
BRANCH  16  37
HETATM   37  C   UNK A   1     -25.501  -6.526 -18.604  1.00  0.00     0.191 C 
BRANCH  37  38
HETATM   38  O   UNK A   1     -24.517  -7.551 -18.641  1.00  0.00    -0.399 OA
HETATM   39  H   UNK A   1     -24.971  -8.378 -18.883  1.00  0.00     0.209 HD
ENDBRANCH  37  38
ENDBRANCH  16  37
ENDBRANCH  13  16
ENDBRANCH  11  12
ENDBRANCH  10  11
ENDBRANCH   9  10
ENDBRANCH   8   9
ENDBRANCH   7   8
ENDBRANCH   6   7
ENDBRANCH   5   6
ENDBRANCH   4   5
ENDBRANCH   3   4
ENDBRANCH   2   3
ENDBRANCH   1   2
BRANCH   1  40
HETATM   40  C   UNK A   0     -20.371  -4.982  -6.120  1.00  0.00     0.000 C 
BRANCH  40  41
HETATM   41  C   UNK A   0     -20.251  -6.409  -5.619  1.00  0.00     0.000 C 
BRANCH  41  42
HETATM   42  C   UNK A   0     -21.622  -6.942  -5.254  1.00  0.00     0.000 C 
BRANCH  42  43
HETATM   43  C   UNK A   0     -21.610  -7.462  -3.829  1.00  0.00     0.000 C 
BRANCH  43  44
HETATM   44  C   UNK A   0     -21.570  -6.300  -2.857  1.00  0.00     0.000 C 
BRANCH  44  45
HETATM   45  C   UNK A   0     -22.293  -6.673  -1.578  1.00  0.00     0.000 C 
BRANCH  45  46
HETATM   46  C   UNK A   0     -21.477  -7.689  -0.803  1.00  0.00     0.000 C 
BRANCH  46  47
HETATM   47  C   UNK A   0     -22.111  -7.933   0.554  1.00  0.00     0.000 C 
BRANCH  47  48
HETATM   48  C   UNK A   0     -23.282  -8.886   0.410  1.00  0.00     0.000 C 
BRANCH  48  49
HETATM   49  C   UNK A   0     -23.008  -9.875  -0.707  1.00  0.00     0.000 C 
BRANCH  49  50
HETATM   50  C   UNK A   0     -24.110 -10.916  -0.756  1.00  0.00     0.000 C 
BRANCH  50  51
HETATM   51  C   UNK A   0     -23.518 -12.301  -0.578  1.00  0.00     0.000 C 
BRANCH  51  52
HETATM   52  C   UNK A   0     -23.488 -12.659   0.896  1.00  0.00     0.000 C 
BRANCH  52  53
HETATM   53  C   UNK A   0     -22.157 -13.289   1.243  1.00  0.00     0.000 C 
BRANCH  53  54
HETATM   54  C   UNK A   0     -21.023 -12.558   0.536  1.00  0.00     0.000 C 
BRANCH  54  55
HETATM   55  C   UNK A   0     -20.068 -13.550  -0.114  1.00  0.00     0.002 C 
BRANCH  55  56
HETATM   56  C   UNK A   0     -18.662 -12.965  -0.211  1.00  0.00     0.027 C 
BRANCH  56  57
HETATM   57  C   UNK A   0     -17.659 -13.997  -0.685  1.00  0.00     0.178 C 
BRANCH  57  58
HETATM   58  O   UNK A   0     -16.309 -13.546  -0.388  1.00  0.00    -0.321 OA
BRANCH  58  59
HETATM   59  C   UNK A   0     -15.896 -12.524  -1.202  1.00  0.00     0.258 C 
HETATM   60  O   UNK A   0     -15.655 -11.367  -0.811  1.00  0.00    -0.265 OA
BRANCH  59  61
HETATM   61  C   UNK A   0     -15.753 -12.947  -2.645  1.00  0.00     0.111 C 
BRANCH  61  62
HETATM   62  C   UNK A   0     -14.344 -12.661  -3.146  1.00  0.00     0.010 C 
BRANCH  62  63
HETATM   63  C   UNK A   0     -14.155 -13.090  -4.597  1.00  0.00     0.000 C 
BRANCH  63  64
HETATM   64  C   UNK A   0     -14.287 -11.889  -5.528  1.00  0.00     0.000 C 
BRANCH  64  65
HETATM   65  C   UNK A   0     -15.614 -11.935  -6.270  1.00  0.00     0.000 C 
BRANCH  65  66
HETATM   66  C   UNK A   0     -16.368 -10.625  -6.088  1.00  0.00     0.004 C 
BRANCH  66  67
HETATM   67  C   UNK A   0     -15.635  -9.727  -5.104  1.00  0.00     0.027 C 
BRANCH  67  68
HETATM   68  C   UNK A   0     -16.373  -9.650  -3.807  1.00  0.00    -0.030 C 
HETATM   69  C   UNK A   0     -17.710  -9.711  -3.747  1.00  0.00    -0.027 C 
BRANCH  69  70
HETATM   70  C   UNK A   0     -18.462  -9.626  -2.457  1.00  0.00     0.053 C 
BRANCH  70  71
HETATM   71  C   UNK A   0     -19.804 -10.277  -2.548  1.00  0.00    -0.027 C 
HETATM   72  C   UNK A   0     -20.135 -11.110  -3.547  1.00  0.00    -0.030 C 
BRANCH  72  73
HETATM   73  C   UNK A   0     -21.479 -11.757  -3.625  1.00  0.00     0.027 C 
BRANCH  73  74
HETATM   74  C   UNK A   0     -21.972 -11.803  -5.065  1.00  0.00     0.004 C 
BRANCH  74  75
HETATM   75  C   UNK A   0     -20.837 -11.472  -6.023  1.00  0.00    -0.000 C 
BRANCH  75  76
HETATM   76  C   UNK A   0     -20.389 -12.721  -6.769  1.00  0.00    -0.005 C 
HETATM   77  C   UNK A   0     -19.264 -12.386  -7.729  1.00  0.00     0.005 C 
ENDBRANCH  75  76
ENDBRANCH  74  75
ENDBRANCH  73  74
ENDBRANCH  72  73
ENDBRANCH  70  71
ENDBRANCH  69  70
ENDBRANCH  67  68
ENDBRANCH  66  67
ENDBRANCH  65  66
ENDBRANCH  64  65
ENDBRANCH  63  64
ENDBRANCH  62  63
ENDBRANCH  61  62
ENDBRANCH  59  61
ENDBRANCH  58  59
ENDBRANCH  57  58
ENDBRANCH  56  57
ENDBRANCH  55  56
ENDBRANCH  54  55
ENDBRANCH  53  54
ENDBRANCH  52  53
ENDBRANCH  51  52
ENDBRANCH  50  51
ENDBRANCH  49  50
ENDBRANCH  48  49
ENDBRANCH  47  48
ENDBRANCH  46  47
ENDBRANCH  45  46
ENDBRANCH  44  45
ENDBRANCH  43  44
ENDBRANCH  42  43
ENDBRANCH  41  42
ENDBRANCH  40  41
ENDBRANCH   1  40
TORSDOF 65
ENDMDL
MODEL 4
REMARK VINA RESULT:      -5.7      3.036      6.367
REMARK WARNING: 32 MAX_TORS EXCEEDED!!!
REMARK  65 active torsions:
REMARK  status: ('A' for Active; 'I' for Inactive)
REMARK    1  A    between atoms: C_2  and  C_3 
REMARK    2  A    between atoms: C_3  and  C_4 
REMARK    3  A    between atoms: C_4  and  C_5 
REMARK    4  A    between atoms: C_5  and  C_6 
REMARK    5  A    between atoms: C_6  and  C_7 
REMARK    6  A    between atoms: C_7  and  C_8 
REMARK    7  A    between atoms: C_8  and  C_9 
REMARK    8  A    between atoms: C_9  and  C_10 
REMARK    9  A    between atoms: C_10  and  C_11 
REMARK   10  A    between atoms: C_11  and  C_12 
REMARK   11  A    between atoms: C_12  and  C_13 
REMARK   12  A    between atoms: C_13  and  C_14 
REMARK   13  A    between atoms: C_14  and  C_15 
REMARK   14  A    between atoms: C_15  and  C_16 
REMARK   15  A    between atoms: C_15  and  O_22 
REMARK   16  A    between atoms: C_16  and  C_17 
REMARK   17  A    between atoms: C_16  and  O_21 
REMARK   18  A    between atoms: C_17  and  C_18 
REMARK   19  A    between atoms: C_17  and  N_20 
REMARK   20  A    between atoms: C_18  and  O_19 
REMARK       I    between atoms: N_20  and  C_27 
REMARK   21  A    between atoms: C_27  and  C_29 
REMARK   22  A    between atoms: C_29  and  C_30 
REMARK   23  A    between atoms: C_30  and  C_31 
REMARK   24  A    between atoms: C_31  and  C_32 
REMARK   25  A    between atoms: C_32  and  C_33 
REMARK   26  A    between atoms: C_33  and  C_34 
REMARK   27  A    between atoms: C_34  and  C_35 
REMARK   28  A    between atoms: C_35  and  C_36 
REMARK   29  A    between atoms: C_36  and  C_37 
REMARK   30  A    between atoms: C_37  and  C_38 
REMARK   31  A    between atoms: C_38  and  C_39 
REMARK   32  A    between atoms: C_39  and  C_40 
REMARK   33  A    between atoms: C_40  and  C_41 
REMARK   34  A    between atoms: C_41  and  C_42 
REMARK   35  A    between atoms: C_42  and  C_43 
REMARK   36  A    between atoms: C_43  and  C_44 
REMARK   37  A    between atoms: C_44  and  C_45 
REMARK   38  A    between atoms: C_45  and  C_46 
REMARK   39  A    between atoms: C_46  and  C_47 
REMARK   40  A    between atoms: C_47  and  C_48 
REMARK   41  A    between atoms: C_48  and  C_49 
REMARK   42  A    between atoms: C_49  and  C_50 
REMARK   43  A    between atoms: C_50  and  C_51 
REMARK   44  A    between atoms: C_51  and  C_52 
REMARK   45  A    between atoms: C_52  and  C_53 
REMARK   46  A    between atoms: C_53  and  C_54 
REMARK   47  A    between atoms: C_54  and  C_55 
REMARK   48  A    between atoms: C_55  and  C_56 
REMARK   49  A    between atoms: C_56  and  C_57 
REMARK   50  A    between atoms: C_57  and  O_58 
REMARK   51  A    between atoms: O_58  and  C_59 
REMARK   52  A    between atoms: C_59  and  C_61 
REMARK   53  A    between atoms: C_61  and  C_62 
REMARK   54  A    between atoms: C_62  and  C_63 
REMARK   55  A    between atoms: C_63  and  C_64 
REMARK   56  A    between atoms: C_64  and  C_65 
REMARK   57  A    between atoms: C_65  and  C_66 
REMARK   58  A    between atoms: C_66  and  C_67 
REMARK   59  A    between atoms: C_67  and  C_68 
REMARK   60  A    between atoms: C_69  and  C_70 
REMARK   61  A    between atoms: C_70  and  C_71 
REMARK   62  A    between atoms: C_72  and  C_73 
REMARK   63  A    between atoms: C_73  and  C_74 
REMARK   64  A    between atoms: C_74  and  C_75 
REMARK   65  A    between atoms: C_75  and  C_76 
ROOT
HETATM    1  C   UNK A   0     -21.517  -6.756  -5.894  1.00  0.00     0.000 C 
ENDROOT
BRANCH   1   2
HETATM    2  C   UNK A   0     -20.037  -6.685  -6.213  1.00  0.00     0.000 C 
BRANCH   2   3
HETATM    3  C   UNK A   0     -19.671  -5.280  -6.651  1.00  0.00     0.000 C 
BRANCH   3   4
HETATM    4  C   UNK A   0     -20.793  -4.322  -6.302  1.00  0.00     0.000 C 
BRANCH   4   5
HETATM    5  C   UNK A   0     -21.159  -3.492  -7.517  1.00  0.00     0.000 C 
BRANCH   5   6
HETATM    6  C   UNK A   0     -20.498  -4.069  -8.755  1.00  0.00     0.000 C 
BRANCH   6   7
HETATM    7  C   UNK A   0     -21.556  -4.583  -9.712  1.00  0.00     0.000 C 
BRANCH   7   8
HETATM    8  C   UNK A   0     -21.199  -4.203 -11.137  1.00  0.00     0.000 C 
BRANCH   8   9
HETATM    9  C   UNK A   0     -21.895  -2.905 -11.516  1.00  0.00     0.000 C 
BRANCH   9  10
HETATM   10  C   UNK A   0     -22.663  -3.086 -12.808  1.00  0.00     0.009 C 
BRANCH  10  11
HETATM   11  C   UNK A   0     -23.443  -4.397 -12.817  1.00  0.00     0.103 C 
BRANCH  11  12
HETATM   12  C   UNK A   0     -24.192  -4.484 -14.133  1.00  0.00     0.218 C 
HETATM   13  N   UNK A   1     -24.812  -5.701 -14.354  1.00  0.00    -0.352 N 
HETATM   14  H   UNK A   1     -24.787  -6.425 -13.639  1.00  0.00     0.163 HD
HETATM   15  O   UNK A   0     -24.139  -3.597 -14.965  1.00  0.00    -0.274 OA
BRANCH  13  16
HETATM   16  C   UNK A   1     -25.558  -5.943 -15.594  1.00  0.00     0.139 C 
BRANCH  16  17
HETATM   17  C   UNK A   1     -24.739  -6.765 -16.606  1.00  0.00     0.171 C 
BRANCH  17  18
HETATM   18  C   UNK A   1     -25.224  -6.622 -18.057  1.00  0.00     0.149 C 
BRANCH  18  19
HETATM   19  C   UNK A   1     -26.690  -7.002 -18.233  1.00  0.00     0.034 C 
BRANCH  19  20
HETATM   20  C   UNK A   1     -27.419  -6.054 -19.158  1.00  0.00     0.002 C 
BRANCH  20  21
HETATM   21  C   UNK A   1     -28.826  -5.798 -18.699  1.00  0.00     0.000 C 
BRANCH  21  22
HETATM   22  C   UNK A   1     -29.569  -7.120 -18.669  1.00  0.00     0.000 C 
BRANCH  22  23
HETATM   23  C   UNK A   1     -30.492  -7.134 -17.473  1.00  0.00     0.000 C 
BRANCH  23  24
HETATM   24  C   UNK A   1     -30.912  -5.720 -17.131  1.00  0.00     0.000 C 
BRANCH  24  25
HETATM   25  C   UNK A   1     -32.407  -5.681 -16.885  1.00  0.00     0.000 C 
BRANCH  25  26
HETATM   26  C   UNK A   1     -32.811  -4.305 -16.393  1.00  0.00     0.000 C 
BRANCH  26  27
HETATM   27  C   UNK A   1     -34.141  -4.388 -15.669  1.00  0.00     0.000 C 
BRANCH  27  28
HETATM   28  C   UNK A   1     -34.081  -3.577 -14.388  1.00  0.00     0.000 C 
BRANCH  28  29
HETATM   29  C   UNK A   1     -33.828  -4.497 -13.207  1.00  0.00     0.000 C 
BRANCH  29  30
HETATM   30  C   UNK A   1     -33.310  -3.694 -12.026  1.00  0.00    -0.000 C 
BRANCH  30  31
HETATM   31  C   UNK A   1     -34.152  -3.971 -10.791  1.00  0.00    -0.005 C 
HETATM   32  C   UNK A   1     -34.122  -5.448 -10.460  1.00  0.00     0.005 C 
ENDBRANCH  30  31
ENDBRANCH  29  30
ENDBRANCH  28  29
ENDBRANCH  27  28
ENDBRANCH  26  27
ENDBRANCH  25  26
ENDBRANCH  24  25
ENDBRANCH  23  24
ENDBRANCH  22  23
ENDBRANCH  21  22
ENDBRANCH  20  21
ENDBRANCH  19  20
ENDBRANCH  18  19
BRANCH  18  33
HETATM   33  O   UNK A   1     -24.500  -7.478 -18.931  1.00  0.00    -0.393 OA
HETATM   34  H   UNK A   1     -23.562  -7.515 -18.662  1.00  0.00     0.210 HD
ENDBRANCH  18  33
ENDBRANCH  17  18
BRANCH  17  35
HETATM   35  O   UNK A   1     -24.818  -8.122 -16.147  1.00  0.00    -0.391 OA
HETATM   36  H   UNK A   1     -25.318  -8.176 -15.309  1.00  0.00     0.210 HD
ENDBRANCH  17  35
ENDBRANCH  16  17
BRANCH  16  37
HETATM   37  C   UNK A   1     -26.888  -6.672 -15.356  1.00  0.00     0.191 C 
BRANCH  37  38
HETATM   38  O   UNK A   1     -28.006  -5.794 -15.375  1.00  0.00    -0.399 OA
HETATM   39  H   UNK A   1     -27.763  -5.030 -15.927  1.00  0.00     0.209 HD
ENDBRANCH  37  38
ENDBRANCH  16  37
ENDBRANCH  13  16
ENDBRANCH  11  12
ENDBRANCH  10  11
ENDBRANCH   9  10
ENDBRANCH   8   9
ENDBRANCH   7   8
ENDBRANCH   6   7
ENDBRANCH   5   6
ENDBRANCH   4   5
ENDBRANCH   3   4
ENDBRANCH   2   3
ENDBRANCH   1   2
BRANCH   1  40
HETATM   40  C   UNK A   0     -21.744  -7.675  -4.709  1.00  0.00     0.000 C 
BRANCH  40  41
HETATM   41  C   UNK A   0     -20.427  -7.947  -4.008  1.00  0.00     0.000 C 
BRANCH  41  42
HETATM   42  C   UNK A   0     -20.521  -7.529  -2.553  1.00  0.00     0.000 C 
BRANCH  42  43
HETATM   43  C   UNK A   0     -21.931  -7.756  -2.042  1.00  0.00     0.000 C 
BRANCH  43  44
HETATM   44  C   UNK A   0     -22.255  -6.746  -0.959  1.00  0.00     0.000 C 
BRANCH  44  45
HETATM   45  C   UNK A   0     -22.663  -7.467   0.311  1.00  0.00     0.000 C 
BRANCH  45  46
HETATM   46  C   UNK A   0     -22.090  -8.871   0.312  1.00  0.00     0.000 C 
BRANCH  46  47
HETATM   47  C   UNK A   0     -21.047  -9.001   1.406  1.00  0.00     0.000 C 
BRANCH  47  48
HETATM   48  C   UNK A   0     -20.417 -10.379   1.355  1.00  0.00     0.000 C 
BRANCH  48  49
HETATM   49  C   UNK A   0     -20.213 -10.800  -0.088  1.00  0.00     0.000 C 
BRANCH  49  50
HETATM   50  C   UNK A   0     -19.984 -12.298  -0.161  1.00  0.00     0.000 C 
BRANCH  50  51
HETATM   51  C   UNK A   0     -18.752 -12.670   0.642  1.00  0.00     0.000 C 
BRANCH  51  52
HETATM   52  C   UNK A   0     -17.527 -12.016   0.033  1.00  0.00     0.000 C 
BRANCH  52  53
HETATM   53  C   UNK A   0     -16.295 -12.403   0.820  1.00  0.00     0.000 C 
BRANCH  53  54
HETATM   54  C   UNK A   0     -15.186 -12.859  -0.119  1.00  0.00     0.000 C 
BRANCH  54  55
HETATM   55  C   UNK A   0     -15.569 -12.600  -1.570  1.00  0.00     0.002 C 
BRANCH  55  56
HETATM   56  C   UNK A   0     -15.297 -13.830  -2.430  1.00  0.00     0.027 C 
BRANCH  56  57
HETATM   57  C   UNK A   0     -13.811 -14.078  -2.595  1.00  0.00     0.178 C 
BRANCH  57  58
HETATM   58  O   UNK A   0     -13.217 -13.014  -3.388  1.00  0.00    -0.321 OA
BRANCH  58  59
HETATM   59  C   UNK A   0     -13.416 -13.176  -4.734  1.00  0.00     0.258 C 
HETATM   60  O   UNK A   0     -13.275 -14.253  -5.341  1.00  0.00    -0.265 OA
BRANCH  59  61
HETATM   61  C   UNK A   0     -13.838 -11.898  -5.421  1.00  0.00     0.111 C 
BRANCH  61  62
HETATM   62  C   UNK A   0     -15.343 -11.701  -5.301  1.00  0.00     0.010 C 
BRANCH  62  63
HETATM   63  C   UNK A   0     -15.802 -10.395  -5.941  1.00  0.00     0.000 C 
BRANCH  63  64
HETATM   64  C   UNK A   0     -17.143  -9.961  -5.360  1.00  0.00     0.000 C 
BRANCH  64  65
HETATM   65  C   UNK A   0     -17.011  -9.679  -3.871  1.00  0.00     0.000 C 
BRANCH  65  66
HETATM   66  C   UNK A   0     -18.118 -10.383  -3.098  1.00  0.00     0.004 C 
BRANCH  66  67
HETATM   67  C   UNK A   0     -18.733 -11.486  -3.946  1.00  0.00     0.027 C 
BRANCH  67  68
HETATM   68  C   UNK A   0     -20.161 -11.711  -3.566  1.00  0.00    -0.030 C 
HETATM   69  C   UNK A   0     -21.171 -11.390  -4.385  1.00  0.00    -0.027 C 
BRANCH  69  70
HETATM   70  C   UNK A   0     -22.605 -11.600  -4.015  1.00  0.00     0.053 C 
BRANCH  70  71
HETATM   71  C   UNK A   0     -22.906 -11.104  -2.639  1.00  0.00    -0.027 C 
HETATM   72  C   UNK A   0     -23.745 -11.744  -1.810  1.00  0.00    -0.030 C 
BRANCH  72  73
HETATM   73  C   UNK A   0     -24.036 -11.240  -0.435  1.00  0.00     0.027 C 
BRANCH  73  74
HETATM   74  C   UNK A   0     -23.618 -12.262   0.615  1.00  0.00     0.004 C 
BRANCH  74  75
HETATM   75  C   UNK A   0     -23.410 -13.625  -0.029  1.00  0.00    -0.000 C 
BRANCH  75  76
HETATM   76  C   UNK A   0     -23.093 -14.670   1.031  1.00  0.00    -0.005 C 
HETATM   77  C   UNK A   0     -22.341 -14.039   2.185  1.00  0.00     0.005 C 
ENDBRANCH  75  76
ENDBRANCH  74  75
ENDBRANCH  73  74
ENDBRANCH  72  73
ENDBRANCH  70  71
ENDBRANCH  69  70
ENDBRANCH  67  68
ENDBRANCH  66  67
ENDBRANCH  65  66
ENDBRANCH  64  65
ENDBRANCH  63  64
ENDBRANCH  62  63
ENDBRANCH  61  62
ENDBRANCH  59  61
ENDBRANCH  58  59
ENDBRANCH  57  58
ENDBRANCH  56  57
ENDBRANCH  55  56
ENDBRANCH  54  55
ENDBRANCH  53  54
ENDBRANCH  52  53
ENDBRANCH  51  52
ENDBRANCH  50  51
ENDBRANCH  49  50
ENDBRANCH  48  49
ENDBRANCH  47  48
ENDBRANCH  46  47
ENDBRANCH  45  46
ENDBRANCH  44  45
ENDBRANCH  43  44
ENDBRANCH  42  43
ENDBRANCH  41  42
ENDBRANCH  40  41
ENDBRANCH   1  40
TORSDOF 65
ENDMDL
MODEL 5
REMARK VINA RESULT:      -5.7      2.126      4.165
REMARK WARNING: 32 MAX_TORS EXCEEDED!!!
REMARK  65 active torsions:
REMARK  status: ('A' for Active; 'I' for Inactive)
REMARK    1  A    between atoms: C_2  and  C_3 
REMARK    2  A    between atoms: C_3  and  C_4 
REMARK    3  A    between atoms: C_4  and  C_5 
REMARK    4  A    between atoms: C_5  and  C_6 
REMARK    5  A    between atoms: C_6  and  C_7 
REMARK    6  A    between atoms: C_7  and  C_8 
REMARK    7  A    between atoms: C_8  and  C_9 
REMARK    8  A    between atoms: C_9  and  C_10 
REMARK    9  A    between atoms: C_10  and  C_11 
REMARK   10  A    between atoms: C_11  and  C_12 
REMARK   11  A    between atoms: C_12  and  C_13 
REMARK   12  A    between atoms: C_13  and  C_14 
REMARK   13  A    between atoms: C_14  and  C_15 
REMARK   14  A    between atoms: C_15  and  C_16 
REMARK   15  A    between atoms: C_15  and  O_22 
REMARK   16  A    between atoms: C_16  and  C_17 
REMARK   17  A    between atoms: C_16  and  O_21 
REMARK   18  A    between atoms: C_17  and  C_18 
REMARK   19  A    between atoms: C_17  and  N_20 
REMARK   20  A    between atoms: C_18  and  O_19 
REMARK       I    between atoms: N_20  and  C_27 
REMARK   21  A    between atoms: C_27  and  C_29 
REMARK   22  A    between atoms: C_29  and  C_30 
REMARK   23  A    between atoms: C_30  and  C_31 
REMARK   24  A    between atoms: C_31  and  C_32 
REMARK   25  A    between atoms: C_32  and  C_33 
REMARK   26  A    between atoms: C_33  and  C_34 
REMARK   27  A    between atoms: C_34  and  C_35 
REMARK   28  A    between atoms: C_35  and  C_36 
REMARK   29  A    between atoms: C_36  and  C_37 
REMARK   30  A    between atoms: C_37  and  C_38 
REMARK   31  A    between atoms: C_38  and  C_39 
REMARK   32  A    between atoms: C_39  and  C_40 
REMARK   33  A    between atoms: C_40  and  C_41 
REMARK   34  A    between atoms: C_41  and  C_42 
REMARK   35  A    between atoms: C_42  and  C_43 
REMARK   36  A    between atoms: C_43  and  C_44 
REMARK   37  A    between atoms: C_44  and  C_45 
REMARK   38  A    between atoms: C_45  and  C_46 
REMARK   39  A    between atoms: C_46  and  C_47 
REMARK   40  A    between atoms: C_47  and  C_48 
REMARK   41  A    between atoms: C_48  and  C_49 
REMARK   42  A    between atoms: C_49  and  C_50 
REMARK   43  A    between atoms: C_50  and  C_51 
REMARK   44  A    between atoms: C_51  and  C_52 
REMARK   45  A    between atoms: C_52  and  C_53 
REMARK   46  A    between atoms: C_53  and  C_54 
REMARK   47  A    between atoms: C_54  and  C_55 
REMARK   48  A    between atoms: C_55  and  C_56 
REMARK   49  A    between atoms: C_56  and  C_57 
REMARK   50  A    between atoms: C_57  and  O_58 
REMARK   51  A    between atoms: O_58  and  C_59 
REMARK   52  A    between atoms: C_59  and  C_61 
REMARK   53  A    between atoms: C_61  and  C_62 
REMARK   54  A    between atoms: C_62  and  C_63 
REMARK   55  A    between atoms: C_63  and  C_64 
REMARK   56  A    between atoms: C_64  and  C_65 
REMARK   57  A    between atoms: C_65  and  C_66 
REMARK   58  A    between atoms: C_66  and  C_67 
REMARK   59  A    between atoms: C_67  and  C_68 
REMARK   60  A    between atoms: C_69  and  C_70 
REMARK   61  A    between atoms: C_70  and  C_71 
REMARK   62  A    between atoms: C_72  and  C_73 
REMARK   63  A    between atoms: C_73  and  C_74 
REMARK   64  A    between atoms: C_74  and  C_75 
REMARK   65  A    between atoms: C_75  and  C_76 
ROOT
HETATM    1  C   UNK A   0     -22.091  -6.310  -1.931  1.00  0.00     0.000 C 
ENDROOT
BRANCH   1   2
HETATM    2  C   UNK A   0     -21.056  -7.070  -2.736  1.00  0.00     0.000 C 
BRANCH   2   3
HETATM    3  C   UNK A   0     -21.713  -7.719  -3.939  1.00  0.00     0.000 C 
BRANCH   3   4
HETATM    4  C   UNK A   0     -21.230  -7.054  -5.212  1.00  0.00     0.000 C 
BRANCH   4   5
HETATM    5  C   UNK A   0     -22.204  -5.969  -5.629  1.00  0.00     0.000 C 
BRANCH   5   6
HETATM    6  C   UNK A   0     -21.456  -4.832  -6.298  1.00  0.00     0.000 C 
BRANCH   6   7
HETATM    7  C   UNK A   0     -20.015  -4.814  -5.824  1.00  0.00     0.000 C 
BRANCH   7   8
HETATM    8  C   UNK A   0     -19.085  -4.556  -6.995  1.00  0.00     0.000 C 
BRANCH   8   9
HETATM    9  C   UNK A   0     -19.886  -4.082  -8.197  1.00  0.00     0.000 C 
BRANCH   9  10
HETATM   10  C   UNK A   0     -20.069  -5.219  -9.179  1.00  0.00     0.009 C 
BRANCH  10  11
HETATM   11  C   UNK A   0     -19.935  -4.741 -10.621  1.00  0.00     0.103 C 
BRANCH  11  12
HETATM   12  C   UNK A   0     -20.987  -3.674 -10.858  1.00  0.00     0.218 C 
HETATM   13  N   UNK A   1     -22.290  -4.136 -10.789  1.00  0.00    -0.352 N 
HETATM   14  H   UNK A   1     -22.476  -5.105 -10.541  1.00  0.00     0.163 HD
HETATM   15  O   UNK A   0     -20.693  -2.544 -11.200  1.00  0.00    -0.274 OA
BRANCH  13  16
HETATM   16  C   UNK A   1     -23.417  -3.224 -11.018  1.00  0.00     0.139 C 
BRANCH  16  17
HETATM   17  C   UNK A   1     -24.240  -3.628 -12.254  1.00  0.00     0.171 C 
BRANCH  17  18
HETATM   18  C   UNK A   1     -23.580  -3.249 -13.590  1.00  0.00     0.149 C 
BRANCH  18  19
HETATM   19  C   UNK A   1     -23.984  -4.171 -14.734  1.00  0.00     0.034 C 
BRANCH  19  20
HETATM   20  C   UNK A   1     -24.790  -5.357 -14.255  1.00  0.00     0.002 C 
BRANCH  20  21
HETATM   21  C   UNK A   1     -24.949  -6.394 -15.329  1.00  0.00     0.000 C 
BRANCH  21  22
HETATM   22  C   UNK A   1     -26.217  -6.091 -16.105  1.00  0.00     0.000 C 
BRANCH  22  23
HETATM   23  C   UNK A   1     -27.276  -7.101 -15.726  1.00  0.00     0.000 C 
BRANCH  23  24
HETATM   24  C   UNK A   1     -28.515  -6.386 -15.230  1.00  0.00     0.000 C 
BRANCH  24  25
HETATM   25  C   UNK A   1     -29.540  -6.317 -16.344  1.00  0.00     0.000 C 
BRANCH  25  26
HETATM   26  C   UNK A   1     -29.395  -7.524 -17.250  1.00  0.00     0.000 C 
BRANCH  26  27
HETATM   27  C   UNK A   1     -29.576  -7.105 -18.696  1.00  0.00     0.000 C 
BRANCH  27  28
HETATM   28  C   UNK A   1     -28.542  -6.058 -19.063  1.00  0.00     0.000 C 
BRANCH  28  29
HETATM   29  C   UNK A   1     -27.196  -6.720 -19.297  1.00  0.00     0.000 C 
BRANCH  29  30
HETATM   30  C   UNK A   1     -27.270  -7.627 -20.513  1.00  0.00    -0.000 C 
BRANCH  30  31
HETATM   31  C   UNK A   1     -25.893  -7.778 -21.141  1.00  0.00    -0.005 C 
HETATM   32  C   UNK A   1     -25.070  -6.530 -20.899  1.00  0.00     0.005 C 
ENDBRANCH  30  31
ENDBRANCH  29  30
ENDBRANCH  28  29
ENDBRANCH  27  28
ENDBRANCH  26  27
ENDBRANCH  25  26
ENDBRANCH  24  25
ENDBRANCH  23  24
ENDBRANCH  22  23
ENDBRANCH  21  22
ENDBRANCH  20  21
ENDBRANCH  19  20
ENDBRANCH  18  19
BRANCH  18  33
HETATM   33  O   UNK A   1     -22.163  -3.336 -13.510  1.00  0.00    -0.393 OA
HETATM   34  H   UNK A   1     -21.754  -2.729 -14.154  1.00  0.00     0.210 HD
ENDBRANCH  18  33
ENDBRANCH  17  18
BRANCH  17  35
HETATM   35  O   UNK A   1     -25.515  -2.991 -12.088  1.00  0.00    -0.391 OA
HETATM   36  H   UNK A   1     -25.866  -2.688 -12.949  1.00  0.00     0.210 HD
ENDBRANCH  17  35
ENDBRANCH  16  17
BRANCH  16  37
HETATM   37  C   UNK A   1     -24.370  -3.143  -9.818  1.00  0.00     0.191 C 
BRANCH  37  38
HETATM   38  O   UNK A   1     -25.151  -4.320  -9.656  1.00  0.00    -0.399 OA
HETATM   39  H   UNK A   1     -24.571  -5.079  -9.845  1.00  0.00     0.209 HD
ENDBRANCH  37  38
ENDBRANCH  16  37
ENDBRANCH  13  16
ENDBRANCH  11  12
ENDBRANCH  10  11
ENDBRANCH   9  10
ENDBRANCH   8   9
ENDBRANCH   7   8
ENDBRANCH   6   7
ENDBRANCH   5   6
ENDBRANCH   4   5
ENDBRANCH   3   4
ENDBRANCH   2   3
ENDBRANCH   1   2
BRANCH   1  40
HETATM   40  C   UNK A   0     -22.420  -7.075  -0.663  1.00  0.00     0.000 C 
BRANCH  40  41
HETATM   41  C   UNK A   0     -21.319  -8.075  -0.365  1.00  0.00     0.000 C 
BRANCH  41  42
HETATM   42  C   UNK A   0     -21.919  -9.452  -0.154  1.00  0.00     0.000 C 
BRANCH  42  43
HETATM   43  C   UNK A   0     -23.428  -9.347  -0.052  1.00  0.00     0.000 C 
BRANCH  43  44
HETATM   44  C   UNK A   0     -24.039 -10.734  -0.006  1.00  0.00     0.000 C 
BRANCH  44  45
HETATM   45  C   UNK A   0     -22.963 -11.761   0.285  1.00  0.00     0.000 C 
BRANCH  45  46
HETATM   46  C   UNK A   0     -23.388 -13.117  -0.245  1.00  0.00     0.000 C 
BRANCH  46  47
HETATM   47  C   UNK A   0     -23.289 -13.132  -1.758  1.00  0.00     0.000 C 
BRANCH  47  48
HETATM   48  C   UNK A   0     -21.857 -12.868  -2.183  1.00  0.00     0.000 C 
BRANCH  48  49
HETATM   49  C   UNK A   0     -21.829 -11.815  -3.274  1.00  0.00     0.000 C 
BRANCH  49  50
HETATM   50  C   UNK A   0     -20.991 -12.303  -4.440  1.00  0.00     0.000 C 
BRANCH  50  51
HETATM   51  C   UNK A   0     -20.228 -13.551  -4.039  1.00  0.00     0.000 C 
BRANCH  51  52
HETATM   52  C   UNK A   0     -18.739 -13.264  -4.040  1.00  0.00     0.000 C 
BRANCH  52  53
HETATM   53  C   UNK A   0     -17.997 -14.409  -4.693  1.00  0.00     0.000 C 
BRANCH  53  54
HETATM   54  C   UNK A   0     -16.675 -14.661  -3.981  1.00  0.00     0.000 C 
BRANCH  54  55
HETATM   55  C   UNK A   0     -16.220 -13.413  -3.236  1.00  0.00     0.002 C 
BRANCH  55  56
HETATM   56  C   UNK A   0     -14.911 -13.671  -2.495  1.00  0.00     0.027 C 
BRANCH  56  57
HETATM   57  C   UNK A   0     -14.134 -14.815  -3.115  1.00  0.00     0.178 C 
BRANCH  57  58
HETATM   58  O   UNK A   0     -13.142 -14.293  -4.040  1.00  0.00    -0.321 OA
BRANCH  58  59
HETATM   59  C   UNK A   0     -13.290 -14.779  -5.313  1.00  0.00     0.258 C 
HETATM   60  O   UNK A   0     -13.452 -15.980  -5.592  1.00  0.00    -0.265 OA
BRANCH  59  61
HETATM   61  C   UNK A   0     -13.242 -13.693  -6.363  1.00  0.00     0.111 C 
BRANCH  61  62
HETATM   62  C   UNK A   0     -13.708 -12.367  -5.777  1.00  0.00     0.010 C 
BRANCH  62  63
HETATM   63  C   UNK A   0     -15.069 -11.947  -6.322  1.00  0.00     0.000 C 
BRANCH  63  64
HETATM   64  C   UNK A   0     -15.415 -10.537  -5.858  1.00  0.00     0.000 C 
BRANCH  64  65
HETATM   65  C   UNK A   0     -16.883 -10.451  -5.468  1.00  0.00     0.000 C 
BRANCH  65  66
HETATM   66  C   UNK A   0     -17.023  -9.962  -4.033  1.00  0.00     0.004 C 
BRANCH  66  67
HETATM   67  C   UNK A   0     -18.455  -9.530  -3.760  1.00  0.00     0.027 C 
BRANCH  67  68
HETATM   68  C   UNK A   0     -18.833  -9.814  -2.342  1.00  0.00    -0.030 C 
HETATM   69  C   UNK A   0     -18.473 -10.947  -1.726  1.00  0.00    -0.027 C 
BRANCH  69  70
HETATM   70  C   UNK A   0     -18.851 -11.250  -0.311  1.00  0.00     0.053 C 
BRANCH  70  71
HETATM   71  C   UNK A   0     -19.248 -12.679  -0.132  1.00  0.00    -0.027 C 
HETATM   72  C   UNK A   0     -18.402 -13.695  -0.359  1.00  0.00    -0.030 C 
BRANCH  72  73
HETATM   73  C   UNK A   0     -18.810 -15.120  -0.172  1.00  0.00     0.027 C 
BRANCH  73  74
HETATM   74  C   UNK A   0     -19.307 -15.358   1.247  1.00  0.00     0.004 C 
BRANCH  74  75
HETATM   75  C   UNK A   0     -20.817 -15.179   1.315  1.00  0.00    -0.000 C 
BRANCH  75  76
HETATM   76  C   UNK A   0     -21.324 -15.462   2.722  1.00  0.00    -0.005 C 
HETATM   77  C   UNK A   0     -22.676 -14.812   2.936  1.00  0.00     0.005 C 
ENDBRANCH  75  76
ENDBRANCH  74  75
ENDBRANCH  73  74
ENDBRANCH  72  73
ENDBRANCH  70  71
ENDBRANCH  69  70
ENDBRANCH  67  68
ENDBRANCH  66  67
ENDBRANCH  65  66
ENDBRANCH  64  65
ENDBRANCH  63  64
ENDBRANCH  62  63
ENDBRANCH  61  62
ENDBRANCH  59  61
ENDBRANCH  58  59
ENDBRANCH  57  58
ENDBRANCH  56  57
ENDBRANCH  55  56
ENDBRANCH  54  55
ENDBRANCH  53  54
ENDBRANCH  52  53
ENDBRANCH  51  52
ENDBRANCH  50  51
ENDBRANCH  49  50
ENDBRANCH  48  49
ENDBRANCH  47  48
ENDBRANCH  46  47
ENDBRANCH  45  46
ENDBRANCH  44  45
ENDBRANCH  43  44
ENDBRANCH  42  43
ENDBRANCH  41  42
ENDBRANCH  40  41
ENDBRANCH   1  40
TORSDOF 65
ENDMDL
MODEL 6
REMARK VINA RESULT:      -5.6      1.791      4.501
REMARK WARNING: 32 MAX_TORS EXCEEDED!!!
REMARK  65 active torsions:
REMARK  status: ('A' for Active; 'I' for Inactive)
REMARK    1  A    between atoms: C_2  and  C_3 
REMARK    2  A    between atoms: C_3  and  C_4 
REMARK    3  A    between atoms: C_4  and  C_5 
REMARK    4  A    between atoms: C_5  and  C_6 
REMARK    5  A    between atoms: C_6  and  C_7 
REMARK    6  A    between atoms: C_7  and  C_8 
REMARK    7  A    between atoms: C_8  and  C_9 
REMARK    8  A    between atoms: C_9  and  C_10 
REMARK    9  A    between atoms: C_10  and  C_11 
REMARK   10  A    between atoms: C_11  and  C_12 
REMARK   11  A    between atoms: C_12  and  C_13 
REMARK   12  A    between atoms: C_13  and  C_14 
REMARK   13  A    between atoms: C_14  and  C_15 
REMARK   14  A    between atoms: C_15  and  C_16 
REMARK   15  A    between atoms: C_15  and  O_22 
REMARK   16  A    between atoms: C_16  and  C_17 
REMARK   17  A    between atoms: C_16  and  O_21 
REMARK   18  A    between atoms: C_17  and  C_18 
REMARK   19  A    between atoms: C_17  and  N_20 
REMARK   20  A    between atoms: C_18  and  O_19 
REMARK       I    between atoms: N_20  and  C_27 
REMARK   21  A    between atoms: C_27  and  C_29 
REMARK   22  A    between atoms: C_29  and  C_30 
REMARK   23  A    between atoms: C_30  and  C_31 
REMARK   24  A    between atoms: C_31  and  C_32 
REMARK   25  A    between atoms: C_32  and  C_33 
REMARK   26  A    between atoms: C_33  and  C_34 
REMARK   27  A    between atoms: C_34  and  C_35 
REMARK   28  A    between atoms: C_35  and  C_36 
REMARK   29  A    between atoms: C_36  and  C_37 
REMARK   30  A    between atoms: C_37  and  C_38 
REMARK   31  A    between atoms: C_38  and  C_39 
REMARK   32  A    between atoms: C_39  and  C_40 
REMARK   33  A    between atoms: C_40  and  C_41 
REMARK   34  A    between atoms: C_41  and  C_42 
REMARK   35  A    between atoms: C_42  and  C_43 
REMARK   36  A    between atoms: C_43  and  C_44 
REMARK   37  A    between atoms: C_44  and  C_45 
REMARK   38  A    between atoms: C_45  and  C_46 
REMARK   39  A    between atoms: C_46  and  C_47 
REMARK   40  A    between atoms: C_47  and  C_48 
REMARK   41  A    between atoms: C_48  and  C_49 
REMARK   42  A    between atoms: C_49  and  C_50 
REMARK   43  A    between atoms: C_50  and  C_51 
REMARK   44  A    between atoms: C_51  and  C_52 
REMARK   45  A    between atoms: C_52  and  C_53 
REMARK   46  A    between atoms: C_53  and  C_54 
REMARK   47  A    between atoms: C_54  and  C_55 
REMARK   48  A    between atoms: C_55  and  C_56 
REMARK   49  A    between atoms: C_56  and  C_57 
REMARK   50  A    between atoms: C_57  and  O_58 
REMARK   51  A    between atoms: O_58  and  C_59 
REMARK   52  A    between atoms: C_59  and  C_61 
REMARK   53  A    between atoms: C_61  and  C_62 
REMARK   54  A    between atoms: C_62  and  C_63 
REMARK   55  A    between atoms: C_63  and  C_64 
REMARK   56  A    between atoms: C_64  and  C_65 
REMARK   57  A    between atoms: C_65  and  C_66 
REMARK   58  A    between atoms: C_66  and  C_67 
REMARK   59  A    between atoms: C_67  and  C_68 
REMARK   60  A    between atoms: C_69  and  C_70 
REMARK   61  A    between atoms: C_70  and  C_71 
REMARK   62  A    between atoms: C_72  and  C_73 
REMARK   63  A    between atoms: C_73  and  C_74 
REMARK   64  A    between atoms: C_74  and  C_75 
REMARK   65  A    between atoms: C_75  and  C_76 
ROOT
HETATM    1  C   UNK A   0     -22.004  -6.319  -2.039  1.00  0.00     0.000 C 
ENDROOT
BRANCH   1   2
HETATM    2  C   UNK A   0     -20.977  -7.109  -2.827  1.00  0.00     0.000 C 
BRANCH   2   3
HETATM    3  C   UNK A   0     -21.638  -7.761  -4.026  1.00  0.00     0.000 C 
BRANCH   3   4
HETATM    4  C   UNK A   0     -21.202  -7.063  -5.299  1.00  0.00     0.000 C 
BRANCH   4   5
HETATM    5  C   UNK A   0     -22.192  -5.969  -5.651  1.00  0.00     0.000 C 
BRANCH   5   6
HETATM    6  C   UNK A   0     -21.472  -4.823  -6.338  1.00  0.00     0.000 C 
BRANCH   6   7
HETATM    7  C   UNK A   0     -20.006  -4.828  -5.948  1.00  0.00     0.000 C 
BRANCH   7   8
HETATM    8  C   UNK A   0     -19.145  -4.508  -7.156  1.00  0.00     0.000 C 
BRANCH   8   9
HETATM    9  C   UNK A   0     -20.026  -4.075  -8.318  1.00  0.00     0.000 C 
BRANCH   9  10
HETATM   10  C   UNK A   0     -20.160  -5.206  -9.315  1.00  0.00     0.009 C 
BRANCH  10  11
HETATM   11  C   UNK A   0     -20.042  -4.704 -10.750  1.00  0.00     0.103 C 
BRANCH  11  12
HETATM   12  C   UNK A   0     -21.114  -3.652 -10.966  1.00  0.00     0.218 C 
HETATM   13  N   UNK A   1     -22.407  -4.144 -10.934  1.00  0.00    -0.352 N 
HETATM   14  H   UNK A   1     -22.576  -5.126 -10.723  1.00  0.00     0.163 HD
HETATM   15  O   UNK A   0     -20.840  -2.505 -11.263  1.00  0.00    -0.274 OA
BRANCH  13  16
HETATM   16  C   UNK A   1     -23.550  -3.250 -11.148  1.00  0.00     0.139 C 
BRANCH  16  17
HETATM   17  C   UNK A   1     -24.365  -3.646 -12.393  1.00  0.00     0.171 C 
BRANCH  17  18
HETATM   18  C   UNK A   1     -23.683  -3.281 -13.721  1.00  0.00     0.149 C 
BRANCH  18  19
HETATM   19  C   UNK A   1     -24.068  -4.216 -14.862  1.00  0.00     0.034 C 
BRANCH  19  20
HETATM   20  C   UNK A   1     -24.827  -5.430 -14.374  1.00  0.00     0.002 C 
BRANCH  20  21
HETATM   21  C   UNK A   1     -24.915  -6.495 -15.429  1.00  0.00     0.000 C 
BRANCH  21  22
HETATM   22  C   UNK A   1     -26.226  -6.326 -16.174  1.00  0.00     0.000 C 
BRANCH  22  23
HETATM   23  C   UNK A   1     -27.294  -7.130 -15.470  1.00  0.00     0.000 C 
BRANCH  23  24
HETATM   24  C   UNK A   1     -28.488  -6.248 -15.171  1.00  0.00     0.000 C 
BRANCH  24  25
HETATM   25  C   UNK A   1     -29.469  -6.314 -16.325  1.00  0.00     0.000 C 
BRANCH  25  26
HETATM   26  C   UNK A   1     -29.192  -7.546 -17.164  1.00  0.00     0.000 C 
BRANCH  26  27
HETATM   27  C   UNK A   1     -29.599  -7.291 -18.602  1.00  0.00     0.000 C 
BRANCH  27  28
HETATM   28  C   UNK A   1     -28.987  -5.991 -19.088  1.00  0.00     0.000 C 
BRANCH  28  29
HETATM   29  C   UNK A   1     -27.472  -6.099 -19.081  1.00  0.00     0.000 C 
BRANCH  29  30
HETATM   30  C   UNK A   1     -27.002  -6.862 -20.307  1.00  0.00    -0.000 C 
BRANCH  30  31
HETATM   31  C   UNK A   1     -25.534  -6.570 -20.578  1.00  0.00    -0.005 C 
HETATM   32  C   UNK A   1     -24.670  -7.223 -19.520  1.00  0.00     0.005 C 
ENDBRANCH  30  31
ENDBRANCH  29  30
ENDBRANCH  28  29
ENDBRANCH  27  28
ENDBRANCH  26  27
ENDBRANCH  25  26
ENDBRANCH  24  25
ENDBRANCH  23  24
ENDBRANCH  22  23
ENDBRANCH  21  22
ENDBRANCH  20  21
ENDBRANCH  19  20
ENDBRANCH  18  19
BRANCH  18  33
HETATM   33  O   UNK A   1     -22.268  -3.366 -13.618  1.00  0.00    -0.393 OA
HETATM   34  H   UNK A   1     -21.944  -4.150 -14.101  1.00  0.00     0.210 HD
ENDBRANCH  18  33
ENDBRANCH  17  18
BRANCH  17  35
HETATM   35  O   UNK A   1     -25.632  -2.990 -12.244  1.00  0.00    -0.391 OA
HETATM   36  H   UNK A   1     -26.201  -3.155 -13.022  1.00  0.00     0.210 HD
ENDBRANCH  17  35
ENDBRANCH  16  17
BRANCH  16  37
HETATM   37  C   UNK A   1     -24.506  -3.208  -9.948  1.00  0.00     0.191 C 
BRANCH  37  38
HETATM   38  O   UNK A   1     -24.074  -4.032  -8.873  1.00  0.00    -0.399 OA
HETATM   39  H   UNK A   1     -23.897  -4.916  -9.241  1.00  0.00     0.209 HD
ENDBRANCH  37  38
ENDBRANCH  16  37
ENDBRANCH  13  16
ENDBRANCH  11  12
ENDBRANCH  10  11
ENDBRANCH   9  10
ENDBRANCH   8   9
ENDBRANCH   7   8
ENDBRANCH   6   7
ENDBRANCH   5   6
ENDBRANCH   4   5
ENDBRANCH   3   4
ENDBRANCH   2   3
ENDBRANCH   1   2
BRANCH   1  40
HETATM   40  C   UNK A   0     -22.332  -7.045  -0.749  1.00  0.00     0.000 C 
BRANCH  40  41
HETATM   41  C   UNK A   0     -21.239  -8.048  -0.429  1.00  0.00     0.000 C 
BRANCH  41  42
HETATM   42  C   UNK A   0     -21.839  -9.263   0.252  1.00  0.00     0.000 C 
BRANCH  42  43
HETATM   43  C   UNK A   0     -23.337  -9.299   0.016  1.00  0.00     0.000 C 
BRANCH  43  44
HETATM   44  C   UNK A   0     -23.826 -10.734   0.033  1.00  0.00     0.000 C 
BRANCH  44  45
HETATM   45  C   UNK A   0     -22.643 -11.682   0.024  1.00  0.00     0.000 C 
BRANCH  45  46
HETATM   46  C   UNK A   0     -23.087 -13.056  -0.439  1.00  0.00     0.000 C 
BRANCH  46  47
HETATM   47  C   UNK A   0     -23.262 -13.061  -1.946  1.00  0.00     0.000 C 
BRANCH  47  48
HETATM   48  C   UNK A   0     -22.084 -12.369  -2.603  1.00  0.00     0.000 C 
BRANCH  48  49
HETATM   49  C   UNK A   0     -22.503 -11.802  -3.946  1.00  0.00     0.000 C 
BRANCH  49  50
HETATM   50  C   UNK A   0     -21.274 -11.427  -4.753  1.00  0.00     0.000 C 
BRANCH  50  51
HETATM   51  C   UNK A   0     -20.676 -12.669  -5.387  1.00  0.00     0.000 C 
BRANCH  51  52
HETATM   52  C   UNK A   0     -19.413 -13.064  -4.646  1.00  0.00     0.000 C 
BRANCH  52  53
HETATM   53  C   UNK A   0     -18.300 -13.325  -5.635  1.00  0.00     0.000 C 
BRANCH  53  54
HETATM   54  C   UNK A   0     -17.199 -14.156  -4.990  1.00  0.00     0.000 C 
BRANCH  54  55
HETATM   55  C   UNK A   0     -16.860 -13.617  -3.606  1.00  0.00     0.002 C 
BRANCH  55  56
HETATM   56  C   UNK A   0     -15.620 -14.306  -3.044  1.00  0.00     0.027 C 
BRANCH  56  57
HETATM   57  C   UNK A   0     -14.787 -14.938  -4.141  1.00  0.00     0.178 C 
BRANCH  57  58
HETATM   58  O   UNK A   0     -13.656 -14.080  -4.458  1.00  0.00    -0.321 OA
BRANCH  58  59
HETATM   59  C   UNK A   0     -13.324 -14.104  -5.788  1.00  0.00     0.258 C 
HETATM   60  O   UNK A   0     -12.976 -15.125  -6.407  1.00  0.00    -0.265 OA
BRANCH  59  61
HETATM   61  C   UNK A   0     -13.429 -12.746  -6.441  1.00  0.00     0.111 C 
BRANCH  61  62
HETATM   62  C   UNK A   0     -13.982 -11.724  -5.457  1.00  0.00     0.010 C 
BRANCH  62  63
HETATM   63  C   UNK A   0     -15.315 -11.146  -5.922  1.00  0.00     0.000 C 
BRANCH  63  64
HETATM   64  C   UNK A   0     -15.710  -9.956  -5.055  1.00  0.00     0.000 C 
BRANCH  64  65
HETATM   65  C   UNK A   0     -17.192 -10.014  -4.717  1.00  0.00     0.000 C 
BRANCH  65  66
HETATM   66  C   UNK A   0     -17.411  -9.697  -3.243  1.00  0.00     0.004 C 
BRANCH  66  67
HETATM   67  C   UNK A   0     -18.871  -9.902  -2.871  1.00  0.00     0.027 C 
BRANCH  67  68
HETATM   68  C   UNK A   0     -18.992 -10.755  -1.651  1.00  0.00    -0.030 C 
HETATM   69  C   UNK A   0     -17.971 -11.494  -1.198  1.00  0.00    -0.027 C 
BRANCH  69  70
HETATM   70  C   UNK A   0     -18.080 -12.360   0.016  1.00  0.00     0.053 C 
BRANCH  70  71
HETATM   71  C   UNK A   0     -16.785 -13.026   0.347  1.00  0.00    -0.027 C 
HETATM   72  C   UNK A   0     -16.678 -14.352   0.517  1.00  0.00    -0.030 C 
BRANCH  72  73
HETATM   73  C   UNK A   0     -15.376 -15.006   0.845  1.00  0.00     0.027 C 
BRANCH  73  74
HETATM   74  C   UNK A   0     -14.264 -13.971   0.950  1.00  0.00     0.004 C 
BRANCH  74  75
HETATM   75  C   UNK A   0     -12.955 -14.641   1.343  1.00  0.00    -0.000 C 
BRANCH  75  76
HETATM   76  C   UNK A   0     -11.837 -14.215   0.401  1.00  0.00    -0.005 C 
HETATM   77  C   UNK A   0     -10.607 -13.815   1.191  1.00  0.00     0.005 C 
ENDBRANCH  75  76
ENDBRANCH  74  75
ENDBRANCH  73  74
ENDBRANCH  72  73
ENDBRANCH  70  71
ENDBRANCH  69  70
ENDBRANCH  67  68
ENDBRANCH  66  67
ENDBRANCH  65  66
ENDBRANCH  64  65
ENDBRANCH  63  64
ENDBRANCH  62  63
ENDBRANCH  61  62
ENDBRANCH  59  61
ENDBRANCH  58  59
ENDBRANCH  57  58
ENDBRANCH  56  57
ENDBRANCH  55  56
ENDBRANCH  54  55
ENDBRANCH  53  54
ENDBRANCH  52  53
ENDBRANCH  51  52
ENDBRANCH  50  51
ENDBRANCH  49  50
ENDBRANCH  48  49
ENDBRANCH  47  48
ENDBRANCH  46  47
ENDBRANCH  45  46
ENDBRANCH  44  45
ENDBRANCH  43  44
ENDBRANCH  42  43
ENDBRANCH  41  42
ENDBRANCH  40  41
ENDBRANCH   1  40
TORSDOF 65
ENDMDL
MODEL 7
REMARK VINA RESULT:      -5.5      2.186      4.573
REMARK WARNING: 32 MAX_TORS EXCEEDED!!!
REMARK  65 active torsions:
REMARK  status: ('A' for Active; 'I' for Inactive)
REMARK    1  A    between atoms: C_2  and  C_3 
REMARK    2  A    between atoms: C_3  and  C_4 
REMARK    3  A    between atoms: C_4  and  C_5 
REMARK    4  A    between atoms: C_5  and  C_6 
REMARK    5  A    between atoms: C_6  and  C_7 
REMARK    6  A    between atoms: C_7  and  C_8 
REMARK    7  A    between atoms: C_8  and  C_9 
REMARK    8  A    between atoms: C_9  and  C_10 
REMARK    9  A    between atoms: C_10  and  C_11 
REMARK   10  A    between atoms: C_11  and  C_12 
REMARK   11  A    between atoms: C_12  and  C_13 
REMARK   12  A    between atoms: C_13  and  C_14 
REMARK   13  A    between atoms: C_14  and  C_15 
REMARK   14  A    between atoms: C_15  and  C_16 
REMARK   15  A    between atoms: C_15  and  O_22 
REMARK   16  A    between atoms: C_16  and  C_17 
REMARK   17  A    between atoms: C_16  and  O_21 
REMARK   18  A    between atoms: C_17  and  C_18 
REMARK   19  A    between atoms: C_17  and  N_20 
REMARK   20  A    between atoms: C_18  and  O_19 
REMARK       I    between atoms: N_20  and  C_27 
REMARK   21  A    between atoms: C_27  and  C_29 
REMARK   22  A    between atoms: C_29  and  C_30 
REMARK   23  A    between atoms: C_30  and  C_31 
REMARK   24  A    between atoms: C_31  and  C_32 
REMARK   25  A    between atoms: C_32  and  C_33 
REMARK   26  A    between atoms: C_33  and  C_34 
REMARK   27  A    between atoms: C_34  and  C_35 
REMARK   28  A    between atoms: C_35  and  C_36 
REMARK   29  A    between atoms: C_36  and  C_37 
REMARK   30  A    between atoms: C_37  and  C_38 
REMARK   31  A    between atoms: C_38  and  C_39 
REMARK   32  A    between atoms: C_39  and  C_40 
REMARK   33  A    between atoms: C_40  and  C_41 
REMARK   34  A    between atoms: C_41  and  C_42 
REMARK   35  A    between atoms: C_42  and  C_43 
REMARK   36  A    between atoms: C_43  and  C_44 
REMARK   37  A    between atoms: C_44  and  C_45 
REMARK   38  A    between atoms: C_45  and  C_46 
REMARK   39  A    between atoms: C_46  and  C_47 
REMARK   40  A    between atoms: C_47  and  C_48 
REMARK   41  A    between atoms: C_48  and  C_49 
REMARK   42  A    between atoms: C_49  and  C_50 
REMARK   43  A    between atoms: C_50  and  C_51 
REMARK   44  A    between atoms: C_51  and  C_52 
REMARK   45  A    between atoms: C_52  and  C_53 
REMARK   46  A    between atoms: C_53  and  C_54 
REMARK   47  A    between atoms: C_54  and  C_55 
REMARK   48  A    between atoms: C_55  and  C_56 
REMARK   49  A    between atoms: C_56  and  C_57 
REMARK   50  A    between atoms: C_57  and  O_58 
REMARK   51  A    between atoms: O_58  and  C_59 
REMARK   52  A    between atoms: C_59  and  C_61 
REMARK   53  A    between atoms: C_61  and  C_62 
REMARK   54  A    between atoms: C_62  and  C_63 
REMARK   55  A    between atoms: C_63  and  C_64 
REMARK   56  A    between atoms: C_64  and  C_65 
REMARK   57  A    between atoms: C_65  and  C_66 
REMARK   58  A    between atoms: C_66  and  C_67 
REMARK   59  A    between atoms: C_67  and  C_68 
REMARK   60  A    between atoms: C_69  and  C_70 
REMARK   61  A    between atoms: C_70  and  C_71 
REMARK   62  A    between atoms: C_72  and  C_73 
REMARK   63  A    between atoms: C_73  and  C_74 
REMARK   64  A    between atoms: C_74  and  C_75 
REMARK   65  A    between atoms: C_75  and  C_76 
ROOT
HETATM    1  C   UNK A   0     -22.244  -6.677  -1.545  1.00  0.00     0.000 C 
ENDROOT
BRANCH   1   2
HETATM    2  C   UNK A   0     -21.521  -6.283  -2.817  1.00  0.00     0.000 C 
BRANCH   2   3
HETATM    3  C   UNK A   0     -22.353  -6.670  -4.025  1.00  0.00     0.000 C 
BRANCH   3   4
HETATM    4  C   UNK A   0     -21.525  -6.533  -5.287  1.00  0.00     0.000 C 
BRANCH   4   5
HETATM    5  C   UNK A   0     -22.159  -5.512  -6.212  1.00  0.00     0.000 C 
BRANCH   5   6
HETATM    6  C   UNK A   0     -21.251  -4.304  -6.348  1.00  0.00     0.000 C 
BRANCH   6   7
HETATM    7  C   UNK A   0     -19.818  -4.700  -6.046  1.00  0.00     0.000 C 
BRANCH   7   8
HETATM    8  C   UNK A   0     -18.935  -4.412  -7.247  1.00  0.00     0.000 C 
BRANCH   8   9
HETATM    9  C   UNK A   0     -19.789  -3.946  -8.416  1.00  0.00     0.000 C 
BRANCH   9  10
HETATM   10  C   UNK A   0     -20.083  -5.110  -9.339  1.00  0.00     0.009 C 
BRANCH  10  11
HETATM   11  C   UNK A   0     -20.060  -4.684 -10.802  1.00  0.00     0.103 C 
BRANCH  11  12
HETATM   12  C   UNK A   0     -21.144  -3.640 -11.001  1.00  0.00     0.218 C 
HETATM   13  N   UNK A   1     -22.431  -4.149 -10.993  1.00  0.00    -0.352 N 
HETATM   14  H   UNK A   1     -22.589  -5.137 -10.809  1.00  0.00     0.163 HD
HETATM   15  O   UNK A   0     -20.881  -2.482 -11.266  1.00  0.00    -0.274 OA
BRANCH  13  16
HETATM   16  C   UNK A   1     -23.583  -3.263 -11.195  1.00  0.00     0.139 C 
BRANCH  16  17
HETATM   17  C   UNK A   1     -24.382  -3.638 -12.456  1.00  0.00     0.171 C 
BRANCH  17  18
HETATM   18  C   UNK A   1     -23.670  -3.278 -13.770  1.00  0.00     0.149 C 
BRANCH  18  19
HETATM   19  C   UNK A   1     -24.024  -4.222 -14.914  1.00  0.00     0.034 C 
BRANCH  19  20
HETATM   20  C   UNK A   1     -24.844  -5.403 -14.446  1.00  0.00     0.002 C 
BRANCH  20  21
HETATM   21  C   UNK A   1     -24.886  -6.495 -15.476  1.00  0.00     0.000 C 
BRANCH  21  22
HETATM   22  C   UNK A   1     -26.178  -6.364 -16.262  1.00  0.00     0.000 C 
BRANCH  22  23
HETATM   23  C   UNK A   1     -27.268  -7.121 -15.540  1.00  0.00     0.000 C 
BRANCH  23  24
HETATM   24  C   UNK A   1     -28.615  -6.503 -15.848  1.00  0.00     0.000 C 
BRANCH  24  25
HETATM   25  C   UNK A   1     -29.292  -7.289 -16.954  1.00  0.00     0.000 C 
BRANCH  25  26
HETATM   26  C   UNK A   1     -29.809  -6.340 -18.016  1.00  0.00     0.000 C 
BRANCH  26  27
HETATM   27  C   UNK A   1     -28.648  -5.769 -18.806  1.00  0.00     0.000 C 
BRANCH  27  28
HETATM   28  C   UNK A   1     -27.922  -6.884 -19.535  1.00  0.00     0.000 C 
BRANCH  28  29
HETATM   29  C   UNK A   1     -26.761  -6.312 -20.328  1.00  0.00     0.000 C 
BRANCH  29  30
HETATM   30  C   UNK A   1     -25.859  -7.435 -20.810  1.00  0.00    -0.000 C 
BRANCH  30  31
HETATM   31  C   UNK A   1     -24.517  -7.375 -20.099  1.00  0.00    -0.005 C 
HETATM   32  C   UNK A   1     -23.506  -8.241 -20.820  1.00  0.00     0.005 C 
ENDBRANCH  30  31
ENDBRANCH  29  30
ENDBRANCH  28  29
ENDBRANCH  27  28
ENDBRANCH  26  27
ENDBRANCH  25  26
ENDBRANCH  24  25
ENDBRANCH  23  24
ENDBRANCH  22  23
ENDBRANCH  21  22
ENDBRANCH  20  21
ENDBRANCH  19  20
ENDBRANCH  18  19
BRANCH  18  33
HETATM   33  O   UNK A   1     -22.257  -3.357 -13.632  1.00  0.00    -0.393 OA
HETATM   34  H   UNK A   1     -21.920  -2.559 -13.183  1.00  0.00     0.210 HD
ENDBRANCH  18  33
ENDBRANCH  17  18
BRANCH  17  35
HETATM   35  O   UNK A   1     -25.639  -2.959 -12.326  1.00  0.00    -0.391 OA
HETATM   36  H   UNK A   1     -26.346  -3.585 -12.072  1.00  0.00     0.210 HD
ENDBRANCH  17  35
ENDBRANCH  16  17
BRANCH  16  37
HETATM   37  C   UNK A   1     -24.549  -3.263 -10.002  1.00  0.00     0.191 C 
BRANCH  37  38
HETATM   38  O   UNK A   1     -23.907  -3.582  -8.775  1.00  0.00    -0.399 OA
HETATM   39  H   UNK A   1     -23.912  -2.776  -8.229  1.00  0.00     0.209 HD
ENDBRANCH  37  38
ENDBRANCH  16  37
ENDBRANCH  13  16
ENDBRANCH  11  12
ENDBRANCH  10  11
ENDBRANCH   9  10
ENDBRANCH   8   9
ENDBRANCH   7   8
ENDBRANCH   6   7
ENDBRANCH   5   6
ENDBRANCH   4   5
ENDBRANCH   3   4
ENDBRANCH   2   3
ENDBRANCH   1   2
BRANCH   1  40
HETATM   40  C   UNK A   0     -21.567  -7.881  -0.919  1.00  0.00     0.000 C 
BRANCH  40  41
HETATM   41  C   UNK A   0     -20.296  -8.210  -1.680  1.00  0.00     0.000 C 
BRANCH  41  42
HETATM   42  C   UNK A   0     -20.234  -9.699  -1.959  1.00  0.00     0.000 C 
BRANCH  42  43
HETATM   43  C   UNK A   0     -20.991 -10.016  -3.235  1.00  0.00     0.000 C 
BRANCH  43  44
HETATM   44  C   UNK A   0     -20.059  -9.910  -4.426  1.00  0.00     0.000 C 
BRANCH  44  45
HETATM   45  C   UNK A   0     -19.727 -11.295  -4.945  1.00  0.00     0.000 C 
BRANCH  45  46
HETATM   46  C   UNK A   0     -20.599 -11.619  -6.142  1.00  0.00     0.000 C 
BRANCH  46  47
HETATM   47  C   UNK A   0     -19.775 -12.326  -7.202  1.00  0.00     0.000 C 
BRANCH  47  48
HETATM   48  C   UNK A   0     -19.447 -13.734  -6.745  1.00  0.00     0.000 C 
BRANCH  48  49
HETATM   49  C   UNK A   0     -18.297 -14.288  -7.566  1.00  0.00     0.000 C 
BRANCH  49  50
HETATM   50  C   UNK A   0     -17.310 -14.994  -6.658  1.00  0.00     0.000 C 
BRANCH  50  51
HETATM   51  C   UNK A   0     -18.000 -16.135  -5.934  1.00  0.00     0.000 C 
BRANCH  51  52
HETATM   52  C   UNK A   0     -16.996 -16.876  -5.071  1.00  0.00     0.000 C 
BRANCH  52  53
HETATM   53  C   UNK A   0     -15.705 -16.092  -5.000  1.00  0.00     0.000 C 
BRANCH  53  54
HETATM   54  C   UNK A   0     -15.091 -16.204  -3.611  1.00  0.00     0.000 C 
BRANCH  54  55
HETATM   55  C   UNK A   0     -13.690 -15.607  -3.593  1.00  0.00     0.002 C 
BRANCH  55  56
HETATM   56  C   UNK A   0     -13.703 -14.211  -2.976  1.00  0.00     0.027 C 
BRANCH  56  57
HETATM   57  C   UNK A   0     -13.312 -13.151  -3.985  1.00  0.00     0.178 C 
BRANCH  57  58
HETATM   58  O   UNK A   0     -14.434 -12.873  -4.869  1.00  0.00    -0.321 OA
BRANCH  58  59
HETATM   59  C   UNK A   0     -14.048 -12.625  -6.160  1.00  0.00     0.258 C 
HETATM   60  O   UNK A   0     -12.956 -12.970  -6.646  1.00  0.00    -0.265 OA
BRANCH  59  61
HETATM   61  C   UNK A   0     -15.099 -11.882  -6.952  1.00  0.00     0.111 C 
BRANCH  61  62
HETATM   62  C   UNK A   0     -16.286 -11.535  -6.064  1.00  0.00     0.010 C 
BRANCH  62  63
HETATM   63  C   UNK A   0     -16.439 -10.029  -5.878  1.00  0.00     0.000 C 
BRANCH  63  64
HETATM   64  C   UNK A   0     -15.577  -9.545  -4.718  1.00  0.00     0.000 C 
BRANCH  64  65
HETATM   65  C   UNK A   0     -16.307  -9.738  -3.397  1.00  0.00     0.000 C 
BRANCH  65  66
HETATM   66  C   UNK A   0     -15.639 -10.836  -2.578  1.00  0.00     0.004 C 
BRANCH  66  67
HETATM   67  C   UNK A   0     -16.448 -11.123  -1.323  1.00  0.00     0.027 C 
BRANCH  67  68
HETATM   68  C   UNK A   0     -17.484 -12.167  -1.588  1.00  0.00    -0.030 C 
HETATM   69  C   UNK A   0     -17.433 -12.958  -2.668  1.00  0.00    -0.027 C 
BRANCH  69  70
HETATM   70  C   UNK A   0     -18.467 -14.000  -2.951  1.00  0.00     0.053 C 
BRANCH  70  71
HETATM   71  C   UNK A   0     -19.735 -13.748  -2.204  1.00  0.00    -0.027 C 
HETATM   72  C   UNK A   0     -20.190 -14.579  -1.254  1.00  0.00    -0.030 C 
BRANCH  72  73
HETATM   73  C   UNK A   0     -21.458 -14.314  -0.511  1.00  0.00     0.027 C 
BRANCH  73  74
HETATM   74  C   UNK A   0     -22.000 -12.931  -0.844  1.00  0.00     0.004 C 
BRANCH  74  75
HETATM   75  C   UNK A   0     -22.588 -12.280   0.399  1.00  0.00    -0.000 C 
BRANCH  75  76
HETATM   76  C   UNK A   0     -23.563 -11.176   0.011  1.00  0.00    -0.005 C 
HETATM   77  C   UNK A   0     -23.877 -11.248  -1.470  1.00  0.00     0.005 C 
ENDBRANCH  75  76
ENDBRANCH  74  75
ENDBRANCH  73  74
ENDBRANCH  72  73
ENDBRANCH  70  71
ENDBRANCH  69  70
ENDBRANCH  67  68
ENDBRANCH  66  67
ENDBRANCH  65  66
ENDBRANCH  64  65
ENDBRANCH  63  64
ENDBRANCH  62  63
ENDBRANCH  61  62
ENDBRANCH  59  61
ENDBRANCH  58  59
ENDBRANCH  57  58
ENDBRANCH  56  57
ENDBRANCH  55  56
ENDBRANCH  54  55
ENDBRANCH  53  54
ENDBRANCH  52  53
ENDBRANCH  51  52
ENDBRANCH  50  51
ENDBRANCH  49  50
ENDBRANCH  48  49
ENDBRANCH  47  48
ENDBRANCH  46  47
ENDBRANCH  45  46
ENDBRANCH  44  45
ENDBRANCH  43  44
ENDBRANCH  42  43
ENDBRANCH  41  42
ENDBRANCH  40  41
ENDBRANCH   1  40
TORSDOF 65
ENDMDL
MODEL 8
REMARK VINA RESULT:      -5.4      5.321      9.843
REMARK WARNING: 32 MAX_TORS EXCEEDED!!!
REMARK  65 active torsions:
REMARK  status: ('A' for Active; 'I' for Inactive)
REMARK    1  A    between atoms: C_2  and  C_3 
REMARK    2  A    between atoms: C_3  and  C_4 
REMARK    3  A    between atoms: C_4  and  C_5 
REMARK    4  A    between atoms: C_5  and  C_6 
REMARK    5  A    between atoms: C_6  and  C_7 
REMARK    6  A    between atoms: C_7  and  C_8 
REMARK    7  A    between atoms: C_8  and  C_9 
REMARK    8  A    between atoms: C_9  and  C_10 
REMARK    9  A    between atoms: C_10  and  C_11 
REMARK   10  A    between atoms: C_11  and  C_12 
REMARK   11  A    between atoms: C_12  and  C_13 
REMARK   12  A    between atoms: C_13  and  C_14 
REMARK   13  A    between atoms: C_14  and  C_15 
REMARK   14  A    between atoms: C_15  and  C_16 
REMARK   15  A    between atoms: C_15  and  O_22 
REMARK   16  A    between atoms: C_16  and  C_17 
REMARK   17  A    between atoms: C_16  and  O_21 
REMARK   18  A    between atoms: C_17  and  C_18 
REMARK   19  A    between atoms: C_17  and  N_20 
REMARK   20  A    between atoms: C_18  and  O_19 
REMARK       I    between atoms: N_20  and  C_27 
REMARK   21  A    between atoms: C_27  and  C_29 
REMARK   22  A    between atoms: C_29  and  C_30 
REMARK   23  A    between atoms: C_30  and  C_31 
REMARK   24  A    between atoms: C_31  and  C_32 
REMARK   25  A    between atoms: C_32  and  C_33 
REMARK   26  A    between atoms: C_33  and  C_34 
REMARK   27  A    between atoms: C_34  and  C_35 
REMARK   28  A    between atoms: C_35  and  C_36 
REMARK   29  A    between atoms: C_36  and  C_37 
REMARK   30  A    between atoms: C_37  and  C_38 
REMARK   31  A    between atoms: C_38  and  C_39 
REMARK   32  A    between atoms: C_39  and  C_40 
REMARK   33  A    between atoms: C_40  and  C_41 
REMARK   34  A    between atoms: C_41  and  C_42 
REMARK   35  A    between atoms: C_42  and  C_43 
REMARK   36  A    between atoms: C_43  and  C_44 
REMARK   37  A    between atoms: C_44  and  C_45 
REMARK   38  A    between atoms: C_45  and  C_46 
REMARK   39  A    between atoms: C_46  and  C_47 
REMARK   40  A    between atoms: C_47  and  C_48 
REMARK   41  A    between atoms: C_48  and  C_49 
REMARK   42  A    between atoms: C_49  and  C_50 
REMARK   43  A    between atoms: C_50  and  C_51 
REMARK   44  A    between atoms: C_51  and  C_52 
REMARK   45  A    between atoms: C_52  and  C_53 
REMARK   46  A    between atoms: C_53  and  C_54 
REMARK   47  A    between atoms: C_54  and  C_55 
REMARK   48  A    between atoms: C_55  and  C_56 
REMARK   49  A    between atoms: C_56  and  C_57 
REMARK   50  A    between atoms: C_57  and  O_58 
REMARK   51  A    between atoms: O_58  and  C_59 
REMARK   52  A    between atoms: C_59  and  C_61 
REMARK   53  A    between atoms: C_61  and  C_62 
REMARK   54  A    between atoms: C_62  and  C_63 
REMARK   55  A    between atoms: C_63  and  C_64 
REMARK   56  A    between atoms: C_64  and  C_65 
REMARK   57  A    between atoms: C_65  and  C_66 
REMARK   58  A    between atoms: C_66  and  C_67 
REMARK   59  A    between atoms: C_67  and  C_68 
REMARK   60  A    between atoms: C_69  and  C_70 
REMARK   61  A    between atoms: C_70  and  C_71 
REMARK   62  A    between atoms: C_72  and  C_73 
REMARK   63  A    between atoms: C_73  and  C_74 
REMARK   64  A    between atoms: C_74  and  C_75 
REMARK   65  A    between atoms: C_75  and  C_76 
ROOT
HETATM    1  C   UNK A   0     -22.882  -3.345 -12.380  1.00  0.00     0.000 C 
ENDROOT
BRANCH   1   2
HETATM    2  C   UNK A   0     -24.245  -3.691 -12.946  1.00  0.00     0.000 C 
BRANCH   2   3
HETATM    3  C   UNK A   0     -24.215  -5.082 -13.551  1.00  0.00     0.000 C 
BRANCH   3   4
HETATM    4  C   UNK A   0     -25.006  -5.099 -14.844  1.00  0.00     0.000 C 
BRANCH   4   5
HETATM    5  C   UNK A   0     -25.142  -6.523 -15.346  1.00  0.00     0.000 C 
BRANCH   5   6
HETATM    6  C   UNK A   0     -26.279  -6.611 -16.348  1.00  0.00     0.000 C 
BRANCH   6   7
HETATM    7  C   UNK A   0     -27.607  -6.651 -15.617  1.00  0.00     0.000 C 
BRANCH   7   8
HETATM    8  C   UNK A   0     -28.688  -7.197 -16.532  1.00  0.00     0.000 C 
BRANCH   8   9
HETATM    9  C   UNK A   0     -28.752  -6.372 -17.807  1.00  0.00     0.000 C 
BRANCH   9  10
HETATM   10  C   UNK A   0     -30.194  -6.138 -18.202  1.00  0.00     0.009 C 
BRANCH  10  11
HETATM   11  C   UNK A   0     -30.666  -4.745 -17.799  1.00  0.00     0.103 C 
BRANCH  11  12
HETATM   12  C   UNK A   0     -31.521  -4.885 -16.553  1.00  0.00     0.218 C 
HETATM   13  N   UNK A   1     -32.873  -4.678 -16.765  1.00  0.00    -0.352 N 
HETATM   14  H   UNK A   1     -33.222  -4.505 -17.705  1.00  0.00     0.163 HD
HETATM   15  O   UNK A   0     -31.031  -5.043 -15.450  1.00  0.00    -0.274 OA
BRANCH  13  16
HETATM   16  C   UNK A   1     -33.823  -4.758 -15.650  1.00  0.00     0.139 C 
BRANCH  16  17
HETATM   17  C   UNK A   1     -34.764  -3.541 -15.609  1.00  0.00     0.171 C 
BRANCH  17  18
HETATM   18  C   UNK A   1     -34.386  -2.431 -16.602  1.00  0.00     0.149 C 
BRANCH  18  19
HETATM   19  C   UNK A   1     -35.530  -1.460 -16.870  1.00  0.00     0.034 C 
BRANCH  19  20
HETATM   20  C   UNK A   1     -35.245  -0.078 -16.327  1.00  0.00     0.002 C 
BRANCH  20  21
HETATM   21  C   UNK A   1     -35.889   0.138 -14.987  1.00  0.00     0.000 C 
BRANCH  21  22
HETATM   22  C   UNK A   1     -34.963   0.994 -14.142  1.00  0.00     0.000 C 
BRANCH  22  23
HETATM   23  C   UNK A   1     -34.836   0.370 -12.772  1.00  0.00     0.000 C 
BRANCH  23  24
HETATM   24  C   UNK A   1     -36.071  -0.450 -12.463  1.00  0.00     0.000 C 
BRANCH  24  25
HETATM   25  C   UNK A   1     -35.747  -1.467 -11.387  1.00  0.00     0.000 C 
BRANCH  25  26
HETATM   26  C   UNK A   1     -34.244  -1.589 -11.230  1.00  0.00     0.000 C 
BRANCH  26  27
HETATM   27  C   UNK A   1     -33.904  -2.879 -10.510  1.00  0.00     0.000 C 
BRANCH  27  28
HETATM   28  C   UNK A   1     -32.910  -3.680 -11.329  1.00  0.00     0.000 C 
BRANCH  28  29
HETATM   29  C   UNK A   1     -33.531  -5.001 -11.746  1.00  0.00     0.000 C 
BRANCH  29  30
HETATM   30  C   UNK A   1     -34.768  -5.279 -10.910  1.00  0.00    -0.000 C 
BRANCH  30  31
HETATM   31  C   UNK A   1     -34.446  -6.278  -9.809  1.00  0.00    -0.005 C 
HETATM   32  C   UNK A   1     -34.791  -7.681 -10.263  1.00  0.00     0.005 C 
ENDBRANCH  30  31
ENDBRANCH  29  30
ENDBRANCH  28  29
ENDBRANCH  27  28
ENDBRANCH  26  27
ENDBRANCH  25  26
ENDBRANCH  24  25
ENDBRANCH  23  24
ENDBRANCH  22  23
ENDBRANCH  21  22
ENDBRANCH  20  21
ENDBRANCH  19  20
ENDBRANCH  18  19
BRANCH  18  33
HETATM   33  O   UNK A   1     -34.037  -2.970 -17.871  1.00  0.00    -0.393 OA
HETATM   34  H   UNK A   1     -33.325  -3.629 -17.770  1.00  0.00     0.210 HD
ENDBRANCH  18  33
ENDBRANCH  17  18
BRANCH  17  35
HETATM   35  O   UNK A   1     -34.728  -3.078 -14.251  1.00  0.00    -0.391 OA
HETATM   36  H   UNK A   1     -35.306  -3.625 -13.683  1.00  0.00     0.210 HD
ENDBRANCH  17  35
ENDBRANCH  16  17
BRANCH  16  37
HETATM   37  C   UNK A   1     -34.686  -6.026 -15.694  1.00  0.00     0.191 C 
BRANCH  37  38
HETATM   38  O   UNK A   1     -35.578  -6.123 -14.591  1.00  0.00    -0.399 OA
HETATM   39  H   UNK A   1     -36.451  -6.365 -14.947  1.00  0.00     0.209 HD
ENDBRANCH  37  38
ENDBRANCH  16  37
ENDBRANCH  13  16
ENDBRANCH  11  12
ENDBRANCH  10  11
ENDBRANCH   9  10
ENDBRANCH   8   9
ENDBRANCH   7   8
ENDBRANCH   6   7
ENDBRANCH   5   6
ENDBRANCH   4   5
ENDBRANCH   3   4
ENDBRANCH   2   3
ENDBRANCH   1   2
BRANCH   1  40
HETATM   40  C   UNK A   0     -22.426  -4.437 -11.432  1.00  0.00     0.000 C 
BRANCH  40  41
HETATM   41  C   UNK A   0     -23.249  -4.389 -10.158  1.00  0.00     0.000 C 
BRANCH  41  42
HETATM   42  C   UNK A   0     -22.455  -3.711  -9.058  1.00  0.00     0.000 C 
BRANCH  42  43
HETATM   43  C   UNK A   0     -21.067  -4.318  -8.974  1.00  0.00     0.000 C 
BRANCH  43  44
HETATM   44  C   UNK A   0     -20.474  -4.061  -7.603  1.00  0.00     0.000 C 
BRANCH  44  45
HETATM   45  C   UNK A   0     -21.219  -4.870  -6.560  1.00  0.00     0.000 C 
BRANCH  45  46
HETATM   46  C   UNK A   0     -20.939  -6.347  -6.757  1.00  0.00     0.000 C 
BRANCH  46  47
HETATM   47  C   UNK A   0     -20.755  -7.021  -5.410  1.00  0.00     0.000 C 
BRANCH  47  48
HETATM   48  C   UNK A   0     -21.259  -6.111  -4.306  1.00  0.00     0.000 C 
BRANCH  48  49
HETATM   49  C   UNK A   0     -21.647  -6.937  -3.094  1.00  0.00     0.000 C 
BRANCH  49  50
HETATM   50  C   UNK A   0     -22.045  -6.022  -1.953  1.00  0.00     0.000 C 
BRANCH  50  51
HETATM   51  C   UNK A   0     -22.382  -6.846  -0.725  1.00  0.00     0.000 C 
BRANCH  51  52
HETATM   52  C   UNK A   0     -22.229  -8.322  -1.041  1.00  0.00     0.000 C 
BRANCH  52  53
HETATM   53  C   UNK A   0     -21.472  -9.009   0.073  1.00  0.00     0.000 C 
BRANCH  53  54
HETATM   54  C   UNK A   0     -21.960 -10.441   0.243  1.00  0.00     0.000 C 
BRANCH  54  55
HETATM   55  C   UNK A   0     -20.816 -11.351   0.671  1.00  0.00     0.002 C 
BRANCH  55  56
HETATM   56  C   UNK A   0     -21.280 -12.802   0.756  1.00  0.00     0.027 C 
BRANCH  56  57
HETATM   57  C   UNK A   0     -20.202 -13.761   0.293  1.00  0.00     0.178 C 
BRANCH  57  58
HETATM   58  O   UNK A   0     -20.738 -14.655  -0.720  1.00  0.00    -0.321 OA
BRANCH  58  59
HETATM   59  C   UNK A   0     -20.158 -14.479  -1.949  1.00  0.00     0.258 C 
HETATM   60  O   UNK A   0     -18.931 -14.422  -2.145  1.00  0.00    -0.265 OA
BRANCH  59  61
HETATM   61  C   UNK A   0     -21.172 -14.366  -3.064  1.00  0.00     0.111 C 
BRANCH  61  62
HETATM   62  C   UNK A   0     -22.537 -13.990  -2.504  1.00  0.00     0.010 C 
BRANCH  62  63
HETATM   63  C   UNK A   0     -22.869 -12.521  -2.744  1.00  0.00     0.000 C 
BRANCH  63  64
HETATM   64  C   UNK A   0     -21.973 -11.945  -3.834  1.00  0.00     0.000 C 
BRANCH  64  65
HETATM   65  C   UNK A   0     -21.341 -10.641  -3.368  1.00  0.00     0.000 C 
BRANCH  65  66
HETATM   66  C   UNK A   0     -19.874 -10.858  -3.021  1.00  0.00     0.004 C 
BRANCH  66  67
HETATM   67  C   UNK A   0     -19.179  -9.522  -2.811  1.00  0.00     0.027 C 
BRANCH  67  68
HETATM   68  C   UNK A   0     -18.120  -9.308  -3.843  1.00  0.00    -0.030 C 
HETATM   69  C   UNK A   0     -18.217  -9.823  -5.075  1.00  0.00    -0.027 C 
BRANCH  69  70
HETATM   70  C   UNK A   0     -17.161  -9.626  -6.116  1.00  0.00     0.053 C 
BRANCH  70  71
HETATM   71  C   UNK A   0     -15.988 -10.524  -5.899  1.00  0.00    -0.027 C 
HETATM   72  C   UNK A   0     -16.121 -11.822  -5.585  1.00  0.00    -0.030 C 
BRANCH  72  73
HETATM   73  C   UNK A   0     -14.940 -12.711  -5.374  1.00  0.00     0.027 C 
BRANCH  73  74
HETATM   74  C   UNK A   0     -14.108 -12.231  -4.192  1.00  0.00     0.004 C 
BRANCH  74  75
HETATM   75  C   UNK A   0     -14.784 -12.610  -2.882  1.00  0.00    -0.000 C 
BRANCH  75  76
HETATM   76  C   UNK A   0     -15.518 -11.411  -2.296  1.00  0.00    -0.005 C 
HETATM   77  C   UNK A   0     -16.632 -11.873  -1.378  1.00  0.00     0.005 C 
ENDBRANCH  75  76
ENDBRANCH  74  75
ENDBRANCH  73  74
ENDBRANCH  72  73
ENDBRANCH  70  71
ENDBRANCH  69  70
ENDBRANCH  67  68
ENDBRANCH  66  67
ENDBRANCH  65  66
ENDBRANCH  64  65
ENDBRANCH  63  64
ENDBRANCH  62  63
ENDBRANCH  61  62
ENDBRANCH  59  61
ENDBRANCH  58  59
ENDBRANCH  57  58
ENDBRANCH  56  57
ENDBRANCH  55  56
ENDBRANCH  54  55
ENDBRANCH  53  54
ENDBRANCH  52  53
ENDBRANCH  51  52
ENDBRANCH  50  51
ENDBRANCH  49  50
ENDBRANCH  48  49
ENDBRANCH  47  48
ENDBRANCH  46  47
ENDBRANCH  45  46
ENDBRANCH  44  45
ENDBRANCH  43  44
ENDBRANCH  42  43
ENDBRANCH  41  42
ENDBRANCH  40  41
ENDBRANCH   1  40
TORSDOF 65
ENDMDL
MODEL 9
REMARK VINA RESULT:      -5.4      2.452      5.099
REMARK WARNING: 32 MAX_TORS EXCEEDED!!!
REMARK  65 active torsions:
REMARK  status: ('A' for Active; 'I' for Inactive)
REMARK    1  A    between atoms: C_2  and  C_3 
REMARK    2  A    between atoms: C_3  and  C_4 
REMARK    3  A    between atoms: C_4  and  C_5 
REMARK    4  A    between atoms: C_5  and  C_6 
REMARK    5  A    between atoms: C_6  and  C_7 
REMARK    6  A    between atoms: C_7  and  C_8 
REMARK    7  A    between atoms: C_8  and  C_9 
REMARK    8  A    between atoms: C_9  and  C_10 
REMARK    9  A    between atoms: C_10  and  C_11 
REMARK   10  A    between atoms: C_11  and  C_12 
REMARK   11  A    between atoms: C_12  and  C_13 
REMARK   12  A    between atoms: C_13  and  C_14 
REMARK   13  A    between atoms: C_14  and  C_15 
REMARK   14  A    between atoms: C_15  and  C_16 
REMARK   15  A    between atoms: C_15  and  O_22 
REMARK   16  A    between atoms: C_16  and  C_17 
REMARK   17  A    between atoms: C_16  and  O_21 
REMARK   18  A    between atoms: C_17  and  C_18 
REMARK   19  A    between atoms: C_17  and  N_20 
REMARK   20  A    between atoms: C_18  and  O_19 
REMARK       I    between atoms: N_20  and  C_27 
REMARK   21  A    between atoms: C_27  and  C_29 
REMARK   22  A    between atoms: C_29  and  C_30 
REMARK   23  A    between atoms: C_30  and  C_31 
REMARK   24  A    between atoms: C_31  and  C_32 
REMARK   25  A    between atoms: C_32  and  C_33 
REMARK   26  A    between atoms: C_33  and  C_34 
REMARK   27  A    between atoms: C_34  and  C_35 
REMARK   28  A    between atoms: C_35  and  C_36 
REMARK   29  A    between atoms: C_36  and  C_37 
REMARK   30  A    between atoms: C_37  and  C_38 
REMARK   31  A    between atoms: C_38  and  C_39 
REMARK   32  A    between atoms: C_39  and  C_40 
REMARK   33  A    between atoms: C_40  and  C_41 
REMARK   34  A    between atoms: C_41  and  C_42 
REMARK   35  A    between atoms: C_42  and  C_43 
REMARK   36  A    between atoms: C_43  and  C_44 
REMARK   37  A    between atoms: C_44  and  C_45 
REMARK   38  A    between atoms: C_45  and  C_46 
REMARK   39  A    between atoms: C_46  and  C_47 
REMARK   40  A    between atoms: C_47  and  C_48 
REMARK   41  A    between atoms: C_48  and  C_49 
REMARK   42  A    between atoms: C_49  and  C_50 
REMARK   43  A    between atoms: C_50  and  C_51 
REMARK   44  A    between atoms: C_51  and  C_52 
REMARK   45  A    between atoms: C_52  and  C_53 
REMARK   46  A    between atoms: C_53  and  C_54 
REMARK   47  A    between atoms: C_54  and  C_55 
REMARK   48  A    between atoms: C_55  and  C_56 
REMARK   49  A    between atoms: C_56  and  C_57 
REMARK   50  A    between atoms: C_57  and  O_58 
REMARK   51  A    between atoms: O_58  and  C_59 
REMARK   52  A    between atoms: C_59  and  C_61 
REMARK   53  A    between atoms: C_61  and  C_62 
REMARK   54  A    between atoms: C_62  and  C_63 
REMARK   55  A    between atoms: C_63  and  C_64 
REMARK   56  A    between atoms: C_64  and  C_65 
REMARK   57  A    between atoms: C_65  and  C_66 
REMARK   58  A    between atoms: C_66  and  C_67 
REMARK   59  A    between atoms: C_67  and  C_68 
REMARK   60  A    between atoms: C_69  and  C_70 
REMARK   61  A    between atoms: C_70  and  C_71 
REMARK   62  A    between atoms: C_72  and  C_73 
REMARK   63  A    between atoms: C_73  and  C_74 
REMARK   64  A    between atoms: C_74  and  C_75 
REMARK   65  A    between atoms: C_75  and  C_76 
ROOT
HETATM    1  C   UNK A   0     -20.629  -6.294  -6.269  1.00  0.00     0.000 C 
ENDROOT
BRANCH   1   2
HETATM    2  C   UNK A   0     -19.720  -5.089  -6.125  1.00  0.00     0.000 C 
BRANCH   2   3
HETATM    3  C   UNK A   0     -20.012  -4.088  -7.225  1.00  0.00     0.000 C 
BRANCH   3   4
HETATM    4  C   UNK A   0     -21.485  -3.728  -7.216  1.00  0.00     0.000 C 
BRANCH   4   5
HETATM    5  C   UNK A   0     -21.991  -3.591  -8.639  1.00  0.00     0.000 C 
BRANCH   5   6
HETATM    6  C   UNK A   0     -21.597  -4.813  -9.447  1.00  0.00     0.000 C 
BRANCH   6   7
HETATM    7  C   UNK A   0     -20.756  -4.394 -10.638  1.00  0.00     0.000 C 
BRANCH   7   8
HETATM    8  C   UNK A   0     -21.039  -2.945 -10.991  1.00  0.00     0.000 C 
BRANCH   8   9
HETATM    9  C   UNK A   0     -22.305  -2.855 -11.828  1.00  0.00     0.000 C 
BRANCH   9  10
HETATM   10  C   UNK A   0     -22.364  -4.011 -12.804  1.00  0.00     0.009 C 
BRANCH  10  11
HETATM   11  C   UNK A   0     -23.729  -4.690 -12.788  1.00  0.00     0.103 C 
BRANCH  11  12
HETATM   12  C   UNK A   0     -24.276  -4.673 -14.203  1.00  0.00     0.218 C 
HETATM   13  N   UNK A   1     -24.915  -5.841 -14.579  1.00  0.00    -0.352 N 
HETATM   14  H   UNK A   1     -25.032  -6.598 -13.909  1.00  0.00     0.163 HD
HETATM   15  O   UNK A   0     -24.055  -3.752 -14.967  1.00  0.00    -0.274 OA
BRANCH  13  16
HETATM   16  C   UNK A   1     -25.477  -5.982 -15.927  1.00  0.00     0.139 C 
BRANCH  16  17
HETATM   17  C   UNK A   1     -24.626  -6.911 -16.810  1.00  0.00     0.171 C 
BRANCH  17  18
HETATM   18  C   UNK A   1     -25.173  -7.083 -18.237  1.00  0.00     0.149 C 
BRANCH  18  19
HETATM   19  C   UNK A   1     -24.088  -7.431 -19.250  1.00  0.00     0.034 C 
BRANCH  19  20
HETATM   20  C   UNK A   1     -24.505  -7.108 -20.667  1.00  0.00     0.002 C 
BRANCH  20  21
HETATM   21  C   UNK A   1     -25.321  -8.213 -21.273  1.00  0.00     0.000 C 
BRANCH  21  22
HETATM   22  C   UNK A   1     -26.765  -7.754 -21.357  1.00  0.00     0.000 C 
BRANCH  22  23
HETATM   23  C   UNK A   1     -27.670  -8.945 -21.143  1.00  0.00     0.000 C 
BRANCH  23  24
HETATM   24  C   UNK A   1     -28.795  -8.574 -20.200  1.00  0.00     0.000 C 
BRANCH  24  25
HETATM   25  C   UNK A   1     -28.586  -7.162 -19.692  1.00  0.00     0.000 C 
BRANCH  25  26
HETATM   26  C   UNK A   1     -29.195  -7.016 -18.312  1.00  0.00     0.000 C 
BRANCH  26  27
HETATM   27  C   UNK A   1     -30.535  -7.725 -18.263  1.00  0.00     0.000 C 
BRANCH  27  28
HETATM   28  C   UNK A   1     -31.544  -6.869 -17.522  1.00  0.00     0.000 C 
BRANCH  28  29
HETATM   29  C   UNK A   1     -30.899  -5.562 -17.097  1.00  0.00     0.000 C 
BRANCH  29  30
HETATM   30  C   UNK A   1     -31.945  -4.640 -16.495  1.00  0.00    -0.000 C 
BRANCH  30  31
HETATM   31  C   UNK A   1     -32.294  -3.530 -17.474  1.00  0.00    -0.005 C 
HETATM   32  C   UNK A   1     -33.739  -3.115 -17.297  1.00  0.00     0.005 C 
ENDBRANCH  30  31
ENDBRANCH  29  30
ENDBRANCH  28  29
ENDBRANCH  27  28
ENDBRANCH  26  27
ENDBRANCH  25  26
ENDBRANCH  24  25
ENDBRANCH  23  24
ENDBRANCH  22  23
ENDBRANCH  21  22
ENDBRANCH  20  21
ENDBRANCH  19  20
ENDBRANCH  18  19
BRANCH  18  33
HETATM   33  O   UNK A   1     -25.767  -5.881 -18.711  1.00  0.00    -0.393 OA
HETATM   34  H   UNK A   1     -25.407  -5.654 -19.588  1.00  0.00     0.210 HD
ENDBRANCH  18  33
ENDBRANCH  17  18
BRANCH  17  35
HETATM   35  O   UNK A   1     -24.570  -8.160 -16.106  1.00  0.00    -0.391 OA
HETATM   36  H   UNK A   1     -25.423  -8.633 -16.171  1.00  0.00     0.210 HD
ENDBRANCH  17  35
ENDBRANCH  16  17
BRANCH  16  37
HETATM   37  C   UNK A   1     -26.915  -6.519 -15.919  1.00  0.00     0.191 C 
BRANCH  37  38
HETATM   38  O   UNK A   1     -27.106  -7.563 -14.973  1.00  0.00    -0.399 OA
HETATM   39  H   UNK A   1     -26.460  -7.425 -14.257  1.00  0.00     0.209 HD
ENDBRANCH  37  38
ENDBRANCH  16  37
ENDBRANCH  13  16
ENDBRANCH  11  12
ENDBRANCH  10  11
ENDBRANCH   9  10
ENDBRANCH   8   9
ENDBRANCH   7   8
ENDBRANCH   6   7
ENDBRANCH   5   6
ENDBRANCH   4   5
ENDBRANCH   3   4
ENDBRANCH   2   3
ENDBRANCH   1   2
BRANCH   1  40
HETATM   40  C   UNK A   0     -20.099  -7.441  -5.430  1.00  0.00     0.000 C 
BRANCH  40  41
HETATM   41  C   UNK A   0     -21.229  -8.053  -4.623  1.00  0.00     0.000 C 
BRANCH  41  42
HETATM   42  C   UNK A   0     -21.965  -6.968  -3.862  1.00  0.00     0.000 C 
BRANCH  42  43
HETATM   43  C   UNK A   0     -21.266  -6.699  -2.543  1.00  0.00     0.000 C 
BRANCH  43  44
HETATM   44  C   UNK A   0     -22.279  -6.258  -1.504  1.00  0.00     0.000 C 
BRANCH  44  45
HETATM   45  C   UNK A   0     -22.456  -7.345  -0.463  1.00  0.00     0.000 C 
BRANCH  45  46
HETATM   46  C   UNK A   0     -21.222  -8.226  -0.425  1.00  0.00     0.000 C 
BRANCH  46  47
HETATM   47  C   UNK A   0     -21.633  -9.686  -0.392  1.00  0.00     0.000 C 
BRANCH  47  48
HETATM   48  C   UNK A   0     -21.739 -10.222  -1.807  1.00  0.00     0.000 C 
BRANCH  48  49
HETATM   49  C   UNK A   0     -23.042 -10.982  -1.973  1.00  0.00     0.000 C 
BRANCH  49  50
HETATM   50  C   UNK A   0     -23.659 -11.251  -0.614  1.00  0.00     0.000 C 
BRANCH  50  51
HETATM   51  C   UNK A   0     -23.708 -12.745  -0.358  1.00  0.00     0.000 C 
BRANCH  51  52
HETATM   52  C   UNK A   0     -23.265 -13.035   1.064  1.00  0.00     0.000 C 
BRANCH  52  53
HETATM   53  C   UNK A   0     -22.054 -13.941   1.048  1.00  0.00     0.000 C 
BRANCH  53  54
HETATM   54  C   UNK A   0     -20.841 -13.197   0.507  1.00  0.00     0.000 C 
BRANCH  54  55
HETATM   55  C   UNK A   0     -20.218 -13.958  -0.656  1.00  0.00     0.002 C 
BRANCH  55  56
HETATM   56  C   UNK A   0     -19.356 -13.033  -1.510  1.00  0.00     0.027 C 
BRANCH  56  57
HETATM   57  C   UNK A   0     -18.604 -12.028  -0.662  1.00  0.00     0.178 C 
BRANCH  57  58
HETATM   58  O   UNK A   0     -17.197 -12.026  -1.030  1.00  0.00    -0.321 OA
BRANCH  58  59
HETATM   59  C   UNK A   0     -16.872 -11.010  -1.891  1.00  0.00     0.258 C 
HETATM   60  O   UNK A   0     -17.606 -10.036  -2.139  1.00  0.00    -0.265 OA
BRANCH  59  61
HETATM   61  C   UNK A   0     -15.509 -11.189  -2.518  1.00  0.00     0.111 C 
BRANCH  61  62
HETATM   62  C   UNK A   0     -15.160 -12.667  -2.618  1.00  0.00     0.010 C 
BRANCH  62  63
HETATM   63  C   UNK A   0     -13.838 -12.895  -3.344  1.00  0.00     0.000 C 
BRANCH  63  64
HETATM   64  C   UNK A   0     -13.892 -14.185  -4.155  1.00  0.00     0.000 C 
BRANCH  64  65
HETATM   65  C   UNK A   0     -13.510 -13.918  -5.603  1.00  0.00     0.000 C 
BRANCH  65  66
HETATM   66  C   UNK A   0     -13.468 -12.419  -5.872  1.00  0.00     0.004 C 
BRANCH  66  67
HETATM   67  C   UNK A   0     -14.501 -12.042  -6.922  1.00  0.00     0.027 C 
BRANCH  67  68
HETATM   68  C   UNK A   0     -15.776 -11.603  -6.277  1.00  0.00    -0.030 C 
HETATM   69  C   UNK A   0     -16.043 -10.312  -6.042  1.00  0.00    -0.027 C 
BRANCH  69  70
HETATM   70  C   UNK A   0     -17.309  -9.859  -5.388  1.00  0.00     0.053 C 
BRANCH  70  71
HETATM   71  C   UNK A   0     -18.481 -10.687  -5.803  1.00  0.00    -0.027 C 
HETATM   72  C   UNK A   0     -19.399 -11.127  -4.929  1.00  0.00    -0.030 C 
BRANCH  72  73
HETATM   73  C   UNK A   0     -20.569 -11.952  -5.356  1.00  0.00     0.027 C 
BRANCH  73  74
HETATM   74  C   UNK A   0     -20.709 -11.943  -6.873  1.00  0.00     0.004 C 
BRANCH  74  75
HETATM   75  C   UNK A   0     -20.693 -13.365  -7.413  1.00  0.00    -0.000 C 
BRANCH  75  76
HETATM   76  C   UNK A   0     -19.749 -13.472  -8.602  1.00  0.00    -0.005 C 
HETATM   77  C   UNK A   0     -18.336 -13.113  -8.187  1.00  0.00     0.005 C 
ENDBRANCH  75  76
ENDBRANCH  74  75
ENDBRANCH  73  74
ENDBRANCH  72  73
ENDBRANCH  70  71
ENDBRANCH  69  70
ENDBRANCH  67  68
ENDBRANCH  66  67
ENDBRANCH  65  66
ENDBRANCH  64  65
ENDBRANCH  63  64
ENDBRANCH  62  63
ENDBRANCH  61  62
ENDBRANCH  59  61
ENDBRANCH  58  59
ENDBRANCH  57  58
ENDBRANCH  56  57
ENDBRANCH  55  56
ENDBRANCH  54  55
ENDBRANCH  53  54
ENDBRANCH  52  53
ENDBRANCH  51  52
ENDBRANCH  50  51
ENDBRANCH  49  50
ENDBRANCH  48  49
ENDBRANCH  47  48
ENDBRANCH  46  47
ENDBRANCH  45  46
ENDBRANCH  44  45
ENDBRANCH  43  44
ENDBRANCH  42  43
ENDBRANCH  41  42
ENDBRANCH  40  41
ENDBRANCH   1  40
TORSDOF 65
ENDMDL
