MODEL 1
REMARK VINA RESULT:      -5.9      0.000      0.000
REMARK  11 active torsions:
REMARK  status: ('A' for Active; 'I' for Inactive)
REMARK    1  A    between atoms: C_2  and  C_3 
REMARK    2  A    between atoms: C_3  and  C_4 
REMARK    3  A    between atoms: C_4  and  C_5 
REMARK    4  A    between atoms: C_5  and  C_6 
REMARK    5  A    between atoms: C_6  and  C_7 
REMARK    6  A    between atoms: C_7  and  C_8 
REMARK    7  A    between atoms: C_8  and  C_9 
REMARK    8  A    between atoms: C_9  and  C_10 
REMARK    9  A    between atoms: C_10  and  C_11 
REMARK   10  A    between atoms: C_11  and  C_12 
REMARK   11  A    between atoms: C_12  and  O_13 
ROOT
HETATM    1  C   UNL     1     -35.850  -1.143 -11.527  1.00  0.00     0.000 C 
ENDROOT
BRANCH   1   2
HETATM    2  C   UNL     1     -34.762  -2.051 -12.094  1.00  0.00     0.000 C 
BRANCH   2   3
HETATM    3  C   UNL     1     -33.796  -2.490 -10.999  1.00  0.00     0.000 C 
BRANCH   3   4
HETATM    4  C   UNL     1     -32.789  -3.507 -11.533  1.00  0.00     0.000 C 
BRANCH   4   5
HETATM    5  C   UNL     1     -33.409  -4.901 -11.594  1.00  0.00    -0.000 C 
BRANCH   5   6
HETATM    6  C   UNL     1     -34.302  -5.160 -10.384  1.00  0.00    -0.005 C 
HETATM    7  C   UNL     1     -34.553  -6.648 -10.200  1.00  0.00     0.005 C 
ENDBRANCH   5   6
ENDBRANCH   4   5
ENDBRANCH   3   4
ENDBRANCH   2   3
ENDBRANCH   1   2
BRANCH   1   8
HETATM    8  C   UNL     1     -36.145   0.011 -12.480  1.00  0.00     0.000 C 
BRANCH   8   9
HETATM    9  C   UNL     1     -34.862   0.538 -13.116  1.00  0.00     0.000 C 
BRANCH   9  10
HETATM   10  C   UNL     1     -35.124   1.038 -14.535  1.00  0.00     0.002 C 
BRANCH  10  11
HETATM   11  C   UNL     1     -36.265   0.266 -15.187  1.00  0.00     0.026 C 
BRANCH  11  12
HETATM   12  C   UNL     1     -35.740  -0.774 -16.166  1.00  0.00     0.164 C 
BRANCH  12  13
HETATM   13  O   UNL     1     -36.475  -0.709 -17.380  1.00  0.00    -0.401 OA
HETATM   14  H   UNL     1     -36.983   0.119 -17.370  1.00  0.00     0.209 HD
ENDBRANCH  12  13
ENDBRANCH  11  12
ENDBRANCH  10  11
ENDBRANCH   9  10
ENDBRANCH   8   9
ENDBRANCH   1   8
TORSDOF 11
ENDMDL
MODEL 2
REMARK VINA RESULT:      -5.7     11.413     13.404
REMARK  11 active torsions:
REMARK  status: ('A' for Active; 'I' for Inactive)
REMARK    1  A    between atoms: C_2  and  C_3 
REMARK    2  A    between atoms: C_3  and  C_4 
REMARK    3  A    between atoms: C_4  and  C_5 
REMARK    4  A    between atoms: C_5  and  C_6 
REMARK    5  A    between atoms: C_6  and  C_7 
REMARK    6  A    between atoms: C_7  and  C_8 
REMARK    7  A    between atoms: C_8  and  C_9 
REMARK    8  A    between atoms: C_9  and  C_10 
REMARK    9  A    between atoms: C_10  and  C_11 
REMARK   10  A    between atoms: C_11  and  C_12 
REMARK   11  A    between atoms: C_12  and  O_13 
ROOT
HETATM    1  C   UNL     1     -19.979  -4.875 -10.467  1.00  0.00     0.000 C 
ENDROOT
BRANCH   1   2
HETATM    2  C   UNL     1     -20.200  -5.034  -8.966  1.00  0.00     0.000 C 
BRANCH   2   3
HETATM    3  C   UNL     1     -20.311  -3.674  -8.285  1.00  0.00     0.000 C 
BRANCH   3   4
HETATM    4  C   UNL     1     -21.542  -3.613  -7.383  1.00  0.00     0.000 C 
BRANCH   4   5
HETATM    5  C   UNL     1     -22.634  -4.549  -7.894  1.00  0.00    -0.000 C 
BRANCH   5   6
HETATM    6  C   UNL     1     -23.650  -3.795  -8.749  1.00  0.00    -0.005 C 
HETATM    7  C   UNL     1     -24.294  -4.718  -9.770  1.00  0.00     0.005 C 
ENDBRANCH   5   6
ENDBRANCH   4   5
ENDBRANCH   3   4
ENDBRANCH   2   3
ENDBRANCH   1   2
BRANCH   1   8
HETATM    8  C   UNL     1     -20.473  -3.514 -10.948  1.00  0.00     0.000 C 
BRANCH   8   9
HETATM    9  C   UNL     1     -21.621  -3.668 -11.942  1.00  0.00     0.000 C 
BRANCH   9  10
HETATM   10  C   UNL     1     -22.528  -2.440 -11.920  1.00  0.00     0.002 C 
BRANCH  10  11
HETATM   11  C   UNL     1     -23.667  -2.580 -12.922  1.00  0.00     0.026 C 
BRANCH  11  12
HETATM   12  C   UNL     1     -23.138  -2.791 -14.334  1.00  0.00     0.164 C 
BRANCH  12  13
HETATM   13  O   UNL     1     -23.822  -3.874 -14.949  1.00  0.00    -0.401 OA
HETATM   14  H   UNL     1     -24.744  -3.848 -14.644  1.00  0.00     0.209 HD
ENDBRANCH  12  13
ENDBRANCH  11  12
ENDBRANCH  10  11
ENDBRANCH   9  10
ENDBRANCH   8   9
ENDBRANCH   1   8
TORSDOF 11
ENDMDL
MODEL 3
REMARK VINA RESULT:      -5.6      3.244      7.018
REMARK  11 active torsions:
REMARK  status: ('A' for Active; 'I' for Inactive)
REMARK    1  A    between atoms: C_2  and  C_3 
REMARK    2  A    between atoms: C_3  and  C_4 
REMARK    3  A    between atoms: C_4  and  C_5 
REMARK    4  A    between atoms: C_5  and  C_6 
REMARK    5  A    between atoms: C_6  and  C_7 
REMARK    6  A    between atoms: C_7  and  C_8 
REMARK    7  A    between atoms: C_8  and  C_9 
REMARK    8  A    between atoms: C_9  and  C_10 
REMARK    9  A    between atoms: C_10  and  C_11 
REMARK   10  A    between atoms: C_11  and  C_12 
REMARK   11  A    between atoms: C_12  and  O_13 
ROOT
HETATM    1  C   UNL     1     -33.335  -3.022 -11.580  1.00  0.00     0.000 C 
ENDROOT
BRANCH   1   2
HETATM    2  C   UNL     1     -34.432  -2.724 -12.598  1.00  0.00     0.000 C 
BRANCH   2   3
HETATM    3  C   UNL     1     -35.371  -1.638 -12.083  1.00  0.00     0.000 C 
BRANCH   3   4
HETATM    4  C   UNL     1     -34.867  -0.250 -12.473  1.00  0.00     0.000 C 
BRANCH   4   5
HETATM    5  C   UNL     1     -35.777   0.380 -13.525  1.00  0.00    -0.000 C 
BRANCH   5   6
HETATM    6  C   UNL     1     -35.084   0.446 -14.884  1.00  0.00    -0.005 C 
HETATM    7  C   UNL     1     -35.614  -0.629 -15.819  1.00  0.00     0.005 C 
ENDBRANCH   5   6
ENDBRANCH   4   5
ENDBRANCH   3   4
ENDBRANCH   2   3
ENDBRANCH   1   2
BRANCH   1   8
HETATM    8  C   UNL     1     -33.862  -3.912 -10.458  1.00  0.00     0.000 C 
BRANCH   8   9
HETATM    9  C   UNL     1     -34.703  -5.056 -11.017  1.00  0.00     0.000 C 
BRANCH   9  10
HETATM   10  C   UNL     1     -34.041  -6.404 -10.738  1.00  0.00     0.002 C 
BRANCH  10  11
HETATM   11  C   UNL     1     -34.885  -7.244  -9.787  1.00  0.00     0.026 C 
BRANCH  11  12
HETATM   12  C   UNL     1     -34.225  -8.584  -9.498  1.00  0.00     0.164 C 
BRANCH  12  13
HETATM   13  O   UNL     1     -33.266  -8.876 -10.506  1.00  0.00    -0.401 OA
HETATM   14  H   UNL     1     -32.387  -8.697 -10.134  1.00  0.00     0.209 HD
ENDBRANCH  12  13
ENDBRANCH  11  12
ENDBRANCH  10  11
ENDBRANCH   9  10
ENDBRANCH   8   9
ENDBRANCH   1   8
TORSDOF 11
ENDMDL
MODEL 4
REMARK VINA RESULT:      -5.6     12.163     14.062
REMARK  11 active torsions:
REMARK  status: ('A' for Active; 'I' for Inactive)
REMARK    1  A    between atoms: C_2  and  C_3 
REMARK    2  A    between atoms: C_3  and  C_4 
REMARK    3  A    between atoms: C_4  and  C_5 
REMARK    4  A    between atoms: C_5  and  C_6 
REMARK    5  A    between atoms: C_6  and  C_7 
REMARK    6  A    between atoms: C_7  and  C_8 
REMARK    7  A    between atoms: C_8  and  C_9 
REMARK    8  A    between atoms: C_9  and  C_10 
REMARK    9  A    between atoms: C_10  and  C_11 
REMARK   10  A    between atoms: C_11  and  C_12 
REMARK   11  A    between atoms: C_12  and  O_13 
ROOT
HETATM    1  C   UNL     1     -20.020  -4.717 -10.451  1.00  0.00     0.000 C 
ENDROOT
BRANCH   1   2
HETATM    2  C   UNL     1     -19.907  -4.464  -8.950  1.00  0.00     0.000 C 
BRANCH   2   3
HETATM    3  C   UNL     1     -21.287  -4.376  -8.308  1.00  0.00     0.000 C 
BRANCH   3   4
HETATM    4  C   UNL     1     -21.201  -3.773  -6.908  1.00  0.00     0.000 C 
BRANCH   4   5
HETATM    5  C   UNL     1     -20.390  -4.674  -5.979  1.00  0.00    -0.000 C 
BRANCH   5   6
HETATM    6  C   UNL     1     -21.199  -5.898  -5.555  1.00  0.00    -0.005 C 
HETATM    7  C   UNL     1     -20.318  -7.135  -5.483  1.00  0.00     0.005 C 
ENDBRANCH   5   6
ENDBRANCH   4   5
ENDBRANCH   3   4
ENDBRANCH   2   3
ENDBRANCH   1   2
BRANCH   1   8
HETATM    8  C   UNL     1     -20.641  -3.518 -11.160  1.00  0.00     0.000 C 
BRANCH   8   9
HETATM    9  C   UNL     1     -21.893  -3.925 -11.930  1.00  0.00     0.000 C 
BRANCH   9  10
HETATM   10  C   UNL     1     -23.084  -3.055 -11.532  1.00  0.00     0.002 C 
BRANCH  10  11
HETATM   11  C   UNL     1     -23.972  -2.758 -12.733  1.00  0.00     0.026 C 
BRANCH  11  12
HETATM   12  C   UNL     1     -23.171  -2.756 -14.027  1.00  0.00     0.164 C 
BRANCH  12  13
HETATM   13  O   UNL     1     -23.721  -3.700 -14.936  1.00  0.00    -0.401 OA
HETATM   14  H   UNL     1     -23.193  -3.664 -15.750  1.00  0.00     0.209 HD
ENDBRANCH  12  13
ENDBRANCH  11  12
ENDBRANCH  10  11
ENDBRANCH   9  10
ENDBRANCH   8   9
ENDBRANCH   1   8
TORSDOF 11
ENDMDL
MODEL 5
REMARK VINA RESULT:      -5.5     12.043     13.948
REMARK  11 active torsions:
REMARK  status: ('A' for Active; 'I' for Inactive)
REMARK    1  A    between atoms: C_2  and  C_3 
REMARK    2  A    between atoms: C_3  and  C_4 
REMARK    3  A    between atoms: C_4  and  C_5 
REMARK    4  A    between atoms: C_5  and  C_6 
REMARK    5  A    between atoms: C_6  and  C_7 
REMARK    6  A    between atoms: C_7  and  C_8 
REMARK    7  A    between atoms: C_8  and  C_9 
REMARK    8  A    between atoms: C_9  and  C_10 
REMARK    9  A    between atoms: C_10  and  C_11 
REMARK   10  A    between atoms: C_11  and  C_12 
REMARK   11  A    between atoms: C_12  and  O_13 
ROOT
HETATM    1  C   UNL     1     -22.405  -4.355  -9.051  1.00  0.00     0.000 C 
ENDROOT
BRANCH   1   2
HETATM    2  C   UNL     1     -22.310  -4.167  -7.539  1.00  0.00     0.000 C 
BRANCH   2   3
HETATM    3  C   UNL     1     -20.898  -3.765  -7.129  1.00  0.00     0.000 C 
BRANCH   3   4
HETATM    4  C   UNL     1     -20.367  -4.680  -6.027  1.00  0.00     0.000 C 
BRANCH   4   5
HETATM    5  C   UNL     1     -20.155  -6.097  -6.555  1.00  0.00    -0.000 C 
BRANCH   5   6
HETATM    6  C   UNL     1     -20.640  -7.138  -5.549  1.00  0.00    -0.005 C 
HETATM    7  C   UNL     1     -22.007  -6.767  -4.998  1.00  0.00     0.005 C 
ENDBRANCH   5   6
ENDBRANCH   4   5
ENDBRANCH   3   4
ENDBRANCH   2   3
ENDBRANCH   1   2
BRANCH   1   8
HETATM    8  C   UNL     1     -21.026  -4.270  -9.696  1.00  0.00     0.000 C 
BRANCH   8   9
HETATM    9  C   UNL     1     -21.069  -3.430 -10.970  1.00  0.00     0.000 C 
BRANCH   9  10
HETATM   10  C   UNL     1     -22.179  -3.912 -11.902  1.00  0.00     0.002 C 
BRANCH  10  11
HETATM   11  C   UNL     1     -22.927  -2.737 -12.519  1.00  0.00     0.026 C 
BRANCH  11  12
HETATM   12  C   UNL     1     -24.427  -2.994 -12.556  1.00  0.00     0.164 C 
BRANCH  12  13
HETATM   13  O   UNL     1     -24.917  -3.181 -11.236  1.00  0.00    -0.401 OA
HETATM   14  H   UNL     1     -25.789  -2.757 -11.185  1.00  0.00     0.209 HD
ENDBRANCH  12  13
ENDBRANCH  11  12
ENDBRANCH  10  11
ENDBRANCH   9  10
ENDBRANCH   8   9
ENDBRANCH   1   8
TORSDOF 11
ENDMDL
MODEL 6
REMARK VINA RESULT:      -5.4     13.223     15.966
REMARK  11 active torsions:
REMARK  status: ('A' for Active; 'I' for Inactive)
REMARK    1  A    between atoms: C_2  and  C_3 
REMARK    2  A    between atoms: C_3  and  C_4 
REMARK    3  A    between atoms: C_4  and  C_5 
REMARK    4  A    between atoms: C_5  and  C_6 
REMARK    5  A    between atoms: C_6  and  C_7 
REMARK    6  A    between atoms: C_7  and  C_8 
REMARK    7  A    between atoms: C_8  and  C_9 
REMARK    8  A    between atoms: C_9  and  C_10 
REMARK    9  A    between atoms: C_10  and  C_11 
REMARK   10  A    between atoms: C_11  and  C_12 
REMARK   11  A    between atoms: C_12  and  O_13 
ROOT
HETATM    1  C   UNL     1     -21.754  -3.986  -7.323  1.00  0.00     0.000 C 
ENDROOT
BRANCH   1   2
HETATM    2  C   UNL     1     -21.881  -4.079  -8.841  1.00  0.00     0.000 C 
BRANCH   2   3
HETATM    3  C   UNL     1     -20.516  -4.284  -9.489  1.00  0.00     0.000 C 
BRANCH   3   4
HETATM    4  C   UNL     1     -20.618  -4.220 -11.012  1.00  0.00     0.000 C 
BRANCH   4   5
HETATM    5  C   UNL     1     -21.362  -2.962 -11.452  1.00  0.00    -0.000 C 
BRANCH   5   6
HETATM    6  C   UNL     1     -22.460  -3.296 -12.460  1.00  0.00    -0.005 C 
HETATM    7  C   UNL     1     -23.836  -3.018 -11.877  1.00  0.00     0.005 C 
ENDBRANCH   5   6
ENDBRANCH   4   5
ENDBRANCH   3   4
ENDBRANCH   2   3
ENDBRANCH   1   2
BRANCH   1   8
HETATM    8  C   UNL     1     -20.331  -4.304  -6.876  1.00  0.00     0.000 C 
BRANCH   8   9
HETATM    9  C   UNL     1     -20.320  -4.903  -5.472  1.00  0.00     0.000 C 
BRANCH   9  10
HETATM   10  C   UNL     1     -20.805  -6.351  -5.495  1.00  0.00     0.002 C 
BRANCH  10  11
HETATM   11  C   UNL     1     -22.034  -6.532  -4.613  1.00  0.00     0.026 C 
BRANCH  11  12
HETATM   12  C   UNL     1     -21.651  -6.632  -3.144  1.00  0.00     0.164 C 
BRANCH  12  13
HETATM   13  O   UNL     1     -22.509  -5.811  -2.364  1.00  0.00    -0.401 OA
HETATM   14  H   UNL     1     -22.418  -6.088  -1.438  1.00  0.00     0.209 HD
ENDBRANCH  12  13
ENDBRANCH  11  12
ENDBRANCH  10  11
ENDBRANCH   9  10
ENDBRANCH   8   9
ENDBRANCH   1   8
TORSDOF 11
ENDMDL
MODEL 7
REMARK VINA RESULT:      -5.4     11.610     13.419
REMARK  11 active torsions:
REMARK  status: ('A' for Active; 'I' for Inactive)
REMARK    1  A    between atoms: C_2  and  C_3 
REMARK    2  A    between atoms: C_3  and  C_4 
REMARK    3  A    between atoms: C_4  and  C_5 
REMARK    4  A    between atoms: C_5  and  C_6 
REMARK    5  A    between atoms: C_6  and  C_7 
REMARK    6  A    between atoms: C_7  and  C_8 
REMARK    7  A    between atoms: C_8  and  C_9 
REMARK    8  A    between atoms: C_9  and  C_10 
REMARK    9  A    between atoms: C_10  and  C_11 
REMARK   10  A    between atoms: C_11  and  C_12 
REMARK   11  A    between atoms: C_12  and  O_13 
ROOT
HETATM    1  C   UNL     1     -23.310  -3.703  -9.321  1.00  0.00     0.000 C 
ENDROOT
BRANCH   1   2
HETATM    2  C   UNL     1     -22.693  -4.339  -8.078  1.00  0.00     0.000 C 
BRANCH   2   3
HETATM    3  C   UNL     1     -21.366  -3.673  -7.729  1.00  0.00     0.000 C 
BRANCH   3   4
HETATM    4  C   UNL     1     -20.287  -4.718  -7.451  1.00  0.00     0.000 C 
BRANCH   4   5
HETATM    5  C   UNL     1     -19.914  -4.731  -5.970  1.00  0.00    -0.000 C 
BRANCH   5   6
HETATM    6  C   UNL     1     -20.766  -5.735  -5.197  1.00  0.00    -0.005 C 
HETATM    7  C   UNL     1     -20.307  -7.159  -5.466  1.00  0.00     0.005 C 
ENDBRANCH   5   6
ENDBRANCH   4   5
ENDBRANCH   3   4
ENDBRANCH   2   3
ENDBRANCH   1   2
BRANCH   1   8
HETATM    8  C   UNL     1     -23.142  -4.609 -10.536  1.00  0.00     0.000 C 
BRANCH   8   9
HETATM    9  C   UNL     1     -22.187  -3.990 -11.553  1.00  0.00     0.000 C 
BRANCH   9  10
HETATM   10  C   UNL     1     -22.706  -2.636 -12.032  1.00  0.00     0.002 C 
BRANCH  10  11
HETATM   11  C   UNL     1     -23.880  -2.805 -12.988  1.00  0.00     0.026 C 
BRANCH  11  12
HETATM   12  C   UNL     1     -23.712  -1.940 -14.229  1.00  0.00     0.164 C 
BRANCH  12  13
HETATM   13  O   UNL     1     -24.822  -1.063 -14.360  1.00  0.00    -0.401 OA
HETATM   14  H   UNL     1     -24.542  -0.318 -14.918  1.00  0.00     0.209 HD
ENDBRANCH  12  13
ENDBRANCH  11  12
ENDBRANCH  10  11
ENDBRANCH   9  10
ENDBRANCH   8   9
ENDBRANCH   1   8
TORSDOF 11
ENDMDL
MODEL 8
REMARK VINA RESULT:      -5.2     13.253     15.263
REMARK  11 active torsions:
REMARK  status: ('A' for Active; 'I' for Inactive)
REMARK    1  A    between atoms: C_2  and  C_3 
REMARK    2  A    between atoms: C_3  and  C_4 
REMARK    3  A    between atoms: C_4  and  C_5 
REMARK    4  A    between atoms: C_5  and  C_6 
REMARK    5  A    between atoms: C_6  and  C_7 
REMARK    6  A    between atoms: C_7  and  C_8 
REMARK    7  A    between atoms: C_8  and  C_9 
REMARK    8  A    between atoms: C_9  and  C_10 
REMARK    9  A    between atoms: C_10  and  C_11 
REMARK   10  A    between atoms: C_11  and  C_12 
REMARK   11  A    between atoms: C_12  and  O_13 
ROOT
HETATM    1  C   UNL     1     -21.124  -5.961  -6.528  1.00  0.00     0.000 C 
ENDROOT
BRANCH   1   2
HETATM    2  C   UNL     1     -21.942  -6.353  -5.301  1.00  0.00     0.000 C 
BRANCH   2   3
HETATM    3  C   UNL     1     -21.036  -6.846  -4.179  1.00  0.00     0.000 C 
BRANCH   3   4
HETATM    4  C   UNL     1     -21.481  -6.286  -2.830  1.00  0.00     0.000 C 
BRANCH   4   5
HETATM    5  C   UNL     1     -21.543  -7.391  -1.778  1.00  0.00    -0.000 C 
BRANCH   5   6
HETATM    6  C   UNL     1     -22.457  -6.998  -0.620  1.00  0.00    -0.005 C 
HETATM    7  C   UNL     1     -22.748  -8.193   0.274  1.00  0.00     0.005 C 
ENDBRANCH   5   6
ENDBRANCH   4   5
ENDBRANCH   3   4
ENDBRANCH   2   3
ENDBRANCH   1   2
BRANCH   1   8
HETATM    8  C   UNL     1     -20.728  -4.489  -6.470  1.00  0.00     0.000 C 
BRANCH   8   9
HETATM    9  C   UNL     1     -21.575  -3.656  -7.427  1.00  0.00     0.000 C 
BRANCH   9  10
HETATM   10  C   UNL     1     -22.085  -4.510  -8.586  1.00  0.00     0.002 C 
BRANCH  10  11
HETATM   11  C   UNL     1     -22.886  -3.672  -9.575  1.00  0.00     0.026 C 
BRANCH  11  12
HETATM   12  C   UNL     1     -24.318  -4.173  -9.693  1.00  0.00     0.164 C 
BRANCH  12  13
HETATM   13  O   UNL     1     -25.224  -3.095  -9.504  1.00  0.00    -0.401 OA
HETATM   14  H   UNL     1     -26.105  -3.475  -9.358  1.00  0.00     0.209 HD
ENDBRANCH  12  13
ENDBRANCH  11  12
ENDBRANCH  10  11
ENDBRANCH   9  10
ENDBRANCH   8   9
ENDBRANCH   1   8
TORSDOF 11
ENDMDL
MODEL 9
REMARK VINA RESULT:      -5.2      3.635      6.853
REMARK  11 active torsions:
REMARK  status: ('A' for Active; 'I' for Inactive)
REMARK    1  A    between atoms: C_2  and  C_3 
REMARK    2  A    between atoms: C_3  and  C_4 
REMARK    3  A    between atoms: C_4  and  C_5 
REMARK    4  A    between atoms: C_5  and  C_6 
REMARK    5  A    between atoms: C_6  and  C_7 
REMARK    6  A    between atoms: C_7  and  C_8 
REMARK    7  A    between atoms: C_8  and  C_9 
REMARK    8  A    between atoms: C_9  and  C_10 
REMARK    9  A    between atoms: C_10  and  C_11 
REMARK   10  A    between atoms: C_11  and  C_12 
REMARK   11  A    between atoms: C_12  and  O_13 
ROOT
HETATM    1  C   UNL     1     -33.302  -3.309 -11.921  1.00  0.00     0.000 C 
ENDROOT
BRANCH   1   2
HETATM    2  C   UNL     1     -34.544  -3.239 -12.805  1.00  0.00     0.000 C 
BRANCH   2   3
HETATM    3  C   UNL     1     -34.852  -1.798 -13.197  1.00  0.00     0.000 C 
BRANCH   3   4
HETATM    4  C   UNL     1     -34.915  -0.898 -11.964  1.00  0.00     0.000 C 
BRANCH   4   5
HETATM    5  C   UNL     1     -36.120   0.037 -12.038  1.00  0.00    -0.000 C 
BRANCH   5   6
HETATM    6  C   UNL     1     -36.729   0.259 -10.655  1.00  0.00    -0.005 C 
HETATM    7  C   UNL     1     -36.775  -1.040  -9.865  1.00  0.00     0.005 C 
ENDBRANCH   5   6
ENDBRANCH   4   5
ENDBRANCH   3   4
ENDBRANCH   2   3
ENDBRANCH   1   2
BRANCH   1   8
HETATM    8  C   UNL     1     -33.576  -4.129 -10.664  1.00  0.00     0.000 C 
BRANCH   8   9
HETATM    9  C   UNL     1     -33.785  -5.602 -11.006  1.00  0.00     0.000 C 
BRANCH   9  10
HETATM   10  C   UNL     1     -34.670  -6.281  -9.963  1.00  0.00     0.002 C 
BRANCH  10  11
HETATM   11  C   UNL     1     -34.968  -7.724 -10.352  1.00  0.00     0.026 C 
BRANCH  11  12
HETATM   12  C   UNL     1     -34.060  -8.695  -9.612  1.00  0.00     0.164 C 
BRANCH  12  13
HETATM   13  O   UNL     1     -33.276  -9.428 -10.544  1.00  0.00    -0.401 OA
HETATM   14  H   UNL     1     -32.355  -9.136 -10.445  1.00  0.00     0.209 HD
ENDBRANCH  12  13
ENDBRANCH  11  12
ENDBRANCH  10  11
ENDBRANCH   9  10
ENDBRANCH   8   9
ENDBRANCH   1   8
TORSDOF 11
ENDMDL
