MODEL 1
REMARK VINA RESULT:      -5.7      0.000      0.000
REMARK  3 active torsions:
REMARK  status: ('A' for Active; 'I' for Inactive)
REMARK    1  A    between atoms: C_3  and  C_4 
REMARK    2  A    between atoms: C_5  and  C_6 
REMARK    3  A    between atoms: C_6  and  O_8 
ROOT
HETATM    1  C   UNL     1     -34.238  -5.831 -10.749  1.00  0.00     0.006 C 
HETATM    2  C   UNL     1     -34.548  -6.696  -9.769  1.00  0.00     0.081 C 
ENDROOT
BRANCH   2   3
HETATM    3  C   UNL     1     -34.440  -8.147 -10.032  1.00  0.00     0.165 C 
HETATM    4  O   UNL     1     -33.890  -8.945  -9.293  1.00  0.00    -0.647 OA
BRANCH   3   5
HETATM    5  O   UNL     1     -35.021  -8.505 -11.192  1.00  0.00    -0.773 OA
HETATM    6  H   UNL     1     -35.148  -9.460 -11.334  1.00  0.00     0.167 HD
ENDBRANCH   3   5
ENDBRANCH   2   3
BRANCH   1   7
HETATM    7  C   UNL     1     -34.310  -4.393 -10.594  1.00  0.00    -0.004 C 
HETATM    8  C   UNL     1     -33.334  -3.568 -11.001  1.00  0.00    -0.031 C 
HETATM    9  C   UNL     1     -33.405  -2.081 -10.842  1.00  0.00     0.036 C 
ENDBRANCH   1   7
TORSDOF 3
ENDMDL
MODEL 2
REMARK VINA RESULT:      -5.3     12.166     13.008
REMARK  3 active torsions:
REMARK  status: ('A' for Active; 'I' for Inactive)
REMARK    1  A    between atoms: C_3  and  C_4 
REMARK    2  A    between atoms: C_5  and  C_6 
REMARK    3  A    between atoms: C_6  and  O_8 
ROOT
HETATM    1  C   UNL     1     -22.118  -3.423 -12.401  1.00  0.00     0.006 C 
HETATM    2  C   UNL     1     -23.168  -2.636 -12.689  1.00  0.00     0.081 C 
ENDROOT
BRANCH   2   3
HETATM    3  C   UNL     1     -23.441  -2.293 -14.100  1.00  0.00     0.165 C 
HETATM    4  O   UNL     1     -22.846  -2.764 -15.054  1.00  0.00    -0.647 OA
BRANCH   3   5
HETATM    5  O   UNL     1     -24.433  -1.391 -14.229  1.00  0.00    -0.773 OA
HETATM    6  H   UNL     1     -24.668  -1.135 -15.139  1.00  0.00     0.167 HD
ENDBRANCH   3   5
ENDBRANCH   2   3
BRANCH   1   7
HETATM    7  C   UNL     1     -21.764  -3.818 -11.054  1.00  0.00    -0.004 C 
HETATM    8  C   UNL     1     -20.526  -4.200 -10.708  1.00  0.00    -0.031 C 
HETATM    9  C   UNL     1     -20.157  -4.608  -9.316  1.00  0.00     0.036 C 
ENDBRANCH   1   7
TORSDOF 3
ENDMDL
MODEL 3
REMARK VINA RESULT:      -5.2     11.226     12.103
REMARK  3 active torsions:
REMARK  status: ('A' for Active; 'I' for Inactive)
REMARK    1  A    between atoms: C_3  and  C_4 
REMARK    2  A    between atoms: C_5  and  C_6 
REMARK    3  A    between atoms: C_6  and  O_8 
ROOT
HETATM    1  C   UNL     1     -24.132  -2.981 -12.429  1.00  0.00     0.006 C 
HETATM    2  C   UNL     1     -23.009  -2.905 -13.163  1.00  0.00     0.081 C 
ENDROOT
BRANCH   2   3
HETATM    3  C   UNL     1     -23.111  -2.568 -14.598  1.00  0.00     0.165 C 
HETATM    4  O   UNL     1     -23.905  -1.770 -15.066  1.00  0.00    -0.647 OA
BRANCH   3   5
HETATM    5  O   UNL     1     -22.222  -3.242 -15.352  1.00  0.00    -0.773 OA
HETATM    6  H   UNL     1     -22.103  -4.184 -15.138  1.00  0.00     0.167 HD
ENDBRANCH   3   5
ENDBRANCH   2   3
BRANCH   1   7
HETATM    7  C   UNL     1     -24.141  -3.303 -11.018  1.00  0.00    -0.004 C 
HETATM    8  C   UNL     1     -23.035  -3.653 -10.344  1.00  0.00    -0.031 C 
HETATM    9  C   UNL     1     -23.042  -3.986  -8.885  1.00  0.00     0.036 C 
ENDBRANCH   1   7
TORSDOF 3
ENDMDL
MODEL 4
REMARK VINA RESULT:      -5.1     11.329     12.061
REMARK  3 active torsions:
REMARK  status: ('A' for Active; 'I' for Inactive)
REMARK    1  A    between atoms: C_3  and  C_4 
REMARK    2  A    between atoms: C_5  and  C_6 
REMARK    3  A    between atoms: C_6  and  O_8 
ROOT
HETATM    1  C   UNL     1     -22.475  -3.952  -9.164  1.00  0.00     0.006 C 
HETATM    2  C   UNL     1     -23.811  -4.008  -9.037  1.00  0.00     0.081 C 
ENDROOT
BRANCH   2   3
HETATM    3  C   UNL     1     -24.657  -3.350 -10.055  1.00  0.00     0.165 C 
HETATM    4  O   UNL     1     -24.250  -2.922 -11.121  1.00  0.00    -0.647 OA
BRANCH   3   5
HETATM    5  O   UNL     1     -25.947  -3.268  -9.679  1.00  0.00    -0.773 OA
HETATM    6  H   UNL     1     -26.286  -2.375  -9.490  1.00  0.00     0.167 HD
ENDBRANCH   3   5
ENDBRANCH   2   3
BRANCH   1   7
HETATM    7  C   UNL     1     -21.559  -4.563  -8.225  1.00  0.00    -0.004 C 
HETATM    8  C   UNL     1     -21.199  -3.977  -7.073  1.00  0.00    -0.031 C 
HETATM    9  C   UNL     1     -20.252  -4.606  -6.100  1.00  0.00     0.036 C 
ENDBRANCH   1   7
TORSDOF 3
ENDMDL
MODEL 5
REMARK VINA RESULT:      -5.1     11.895     12.695
REMARK  3 active torsions:
REMARK  status: ('A' for Active; 'I' for Inactive)
REMARK    1  A    between atoms: C_3  and  C_4 
REMARK    2  A    between atoms: C_5  and  C_6 
REMARK    3  A    between atoms: C_6  and  O_8 
ROOT
HETATM    1  C   UNL     1     -22.235  -4.046 -11.704  1.00  0.00     0.006 C 
HETATM    2  C   UNL     1     -22.476  -3.065 -12.591  1.00  0.00     0.081 C 
ENDROOT
BRANCH   2   3
HETATM    3  C   UNL     1     -23.708  -3.123 -13.406  1.00  0.00     0.165 C 
HETATM    4  O   UNL     1     -24.828  -2.892 -12.984  1.00  0.00    -0.647 OA
BRANCH   3   5
HETATM    5  O   UNL     1     -23.464  -3.461 -14.686  1.00  0.00    -0.773 OA
HETATM    6  H   UNL     1     -24.223  -3.424 -15.294  1.00  0.00     0.167 HD
ENDBRANCH   3   5
ENDBRANCH   2   3
BRANCH   1   7
HETATM    7  C   UNL     1     -21.061  -4.083 -10.858  1.00  0.00    -0.004 C 
HETATM    8  C   UNL     1     -21.128  -4.225  -9.526  1.00  0.00    -0.031 C 
HETATM    9  C   UNL     1     -19.916  -4.264  -8.649  1.00  0.00     0.036 C 
ENDBRANCH   1   7
TORSDOF 3
ENDMDL
MODEL 6
REMARK VINA RESULT:      -5.0      4.010      5.313
REMARK  3 active torsions:
REMARK  status: ('A' for Active; 'I' for Inactive)
REMARK    1  A    between atoms: C_3  and  C_4 
REMARK    2  A    between atoms: C_5  and  C_6 
REMARK    3  A    between atoms: C_6  and  O_8 
ROOT
HETATM    1  C   UNL     1     -33.652  -3.840 -11.437  1.00  0.00     0.006 C 
HETATM    2  C   UNL     1     -34.788  -3.240 -11.832  1.00  0.00     0.081 C 
ENDROOT
BRANCH   2   3
HETATM    3  C   UNL     1     -34.722  -1.869 -12.380  1.00  0.00     0.165 C 
HETATM    4  O   UNL     1     -34.476  -0.872 -11.723  1.00  0.00    -0.647 OA
BRANCH   3   5
HETATM    5  O   UNL     1     -34.967  -1.830 -13.704  1.00  0.00    -0.773 OA
HETATM    6  H   UNL     1     -34.187  -1.842 -14.287  1.00  0.00     0.167 HD
ENDBRANCH   3   5
ENDBRANCH   2   3
BRANCH   1   7
HETATM    7  C   UNL     1     -33.608  -5.178 -10.888  1.00  0.00    -0.004 C 
HETATM    8  C   UNL     1     -34.709  -5.858 -10.536  1.00  0.00    -0.031 C 
HETATM    9  C   UNL     1     -34.666  -7.241  -9.968  1.00  0.00     0.036 C 
ENDBRANCH   1   7
TORSDOF 3
ENDMDL
MODEL 7
REMARK VINA RESULT:      -4.8     12.465     13.240
REMARK  3 active torsions:
REMARK  status: ('A' for Active; 'I' for Inactive)
REMARK    1  A    between atoms: C_3  and  C_4 
REMARK    2  A    between atoms: C_5  and  C_6 
REMARK    3  A    between atoms: C_6  and  O_8 
ROOT
HETATM    1  C   UNL     1     -22.302  -3.734 -10.004  1.00  0.00     0.006 C 
HETATM    2  C   UNL     1     -21.745  -3.481 -11.201  1.00  0.00     0.081 C 
ENDROOT
BRANCH   2   3
HETATM    3  C   UNL     1     -22.620  -3.114 -12.335  1.00  0.00     0.165 C 
HETATM    4  O   UNL     1     -23.735  -2.636 -12.222  1.00  0.00    -0.647 OA
BRANCH   3   5
HETATM    5  O   UNL     1     -22.049  -3.365 -13.529  1.00  0.00    -0.773 OA
HETATM    6  H   UNL     1     -21.810  -2.588 -14.064  1.00  0.00     0.167 HD
ENDBRANCH   3   5
ENDBRANCH   2   3
BRANCH   1   7
HETATM    7  C   UNL     1     -21.536  -4.100  -8.832  1.00  0.00    -0.004 C 
HETATM    8  C   UNL     1     -20.196  -4.157  -8.825  1.00  0.00    -0.031 C 
HETATM    9  C   UNL     1     -19.402  -4.536  -7.615  1.00  0.00     0.036 C 
ENDBRANCH   1   7
TORSDOF 3
ENDMDL
MODEL 8
REMARK VINA RESULT:      -4.8      9.309      9.820
REMARK  3 active torsions:
REMARK  status: ('A' for Active; 'I' for Inactive)
REMARK    1  A    between atoms: C_3  and  C_4 
REMARK    2  A    between atoms: C_5  and  C_6 
REMARK    3  A    between atoms: C_6  and  O_8 
ROOT
HETATM    1  C   UNL     1     -27.716  -6.870 -15.788  1.00  0.00     0.006 C 
HETATM    2  C   UNL     1     -26.630  -6.472 -16.473  1.00  0.00     0.081 C 
ENDROOT
BRANCH   2   3
HETATM    3  C   UNL     1     -25.291  -6.699 -15.891  1.00  0.00     0.165 C 
HETATM    4  O   UNL     1     -24.704  -7.767 -15.902  1.00  0.00    -0.647 OA
BRANCH   3   5
HETATM    5  O   UNL     1     -24.774  -5.586 -15.336  1.00  0.00    -0.773 OA
HETATM    6  H   UNL     1     -24.298  -4.986 -15.937  1.00  0.00     0.167 HD
ENDBRANCH   3   5
ENDBRANCH   2   3
BRANCH   1   7
HETATM    7  C   UNL     1     -29.069  -6.695 -16.269  1.00  0.00    -0.004 C 
HETATM    8  C   UNL     1     -29.550  -7.341 -17.341  1.00  0.00    -0.031 C 
HETATM    9  C   UNL     1     -30.950  -7.162 -17.841  1.00  0.00     0.036 C 
ENDBRANCH   1   7
TORSDOF 3
ENDMDL
MODEL 9
REMARK VINA RESULT:      -4.7      6.659      7.826
REMARK  3 active torsions:
REMARK  status: ('A' for Active; 'I' for Inactive)
REMARK    1  A    between atoms: C_3  and  C_4 
REMARK    2  A    between atoms: C_5  and  C_6 
REMARK    3  A    between atoms: C_6  and  O_8 
ROOT
HETATM    1  C   UNL     1     -36.980   1.046  -8.615  1.00  0.00     0.006 C 
HETATM    2  C   UNL     1     -37.121  -0.202  -9.093  1.00  0.00     0.081 C 
ENDROOT
BRANCH   2   3
HETATM    3  C   UNL     1     -36.883  -0.451 -10.531  1.00  0.00     0.165 C 
HETATM    4  O   UNL     1     -35.822  -0.259 -11.099  1.00  0.00    -0.647 OA
BRANCH   3   5
HETATM    5  O   UNL     1     -37.976  -0.919 -11.162  1.00  0.00    -0.773 OA
HETATM    6  H   UNL     1     -37.836  -1.663 -11.774  1.00  0.00     0.167 HD
ENDBRANCH   3   5
ENDBRANCH   2   3
BRANCH   1   7
HETATM    7  C   UNL     1     -37.189   1.394  -7.226  1.00  0.00    -0.004 C 
HETATM    8  C   UNL     1     -37.099   0.501  -6.229  1.00  0.00    -0.031 C 
HETATM    9  C   UNL     1     -37.315   0.859  -4.792  1.00  0.00     0.036 C 
ENDBRANCH   1   7
TORSDOF 3
ENDMDL
