MODEL 1
REMARK VINA RESULT:      -6.7      0.000      0.000
REMARK  9 active torsions:
REMARK  status: ('A' for Active; 'I' for Inactive)
REMARK    1  A    between atoms: C_2  and  C_7 
REMARK    2  A    between atoms: C_7  and  C_8 
REMARK    3  A    between atoms: C_8  and  N_9 
REMARK       I    between atoms: N_9  and  C_10 
REMARK    4  A    between atoms: C_10  and  C_12 
REMARK    5  A    between atoms: C_12  and  C_13 
REMARK    6  A    between atoms: C_12  and  N_18 
REMARK    7  A    between atoms: C_13  and  C_14 
REMARK    8  A    between atoms: C_14  and  C_15 
REMARK    9  A    between atoms: C_15  and  O_17 
ROOT
HETATM    1  N   UNL     1     -35.040  -0.703 -11.692  1.00  0.00    -0.359 N 
HETATM    2  C   UNL     1     -34.857  -2.042 -11.974  1.00  0.00     0.250 C 
HETATM    3  O   UNL     1     -35.429  -2.617 -12.897  1.00  0.00    -0.271 OA
HETATM    4  H   UNL     1     -34.423  -0.299 -10.996  1.00  0.00     0.162 HD
ENDROOT
BRANCH   2   5
HETATM    5  C   UNL     1     -33.883  -2.738 -10.988  1.00  0.00     0.309 C 
BRANCH   5   6
HETATM    6  C   UNL     1     -32.901  -3.647 -11.748  1.00  0.00     0.055 C 
BRANCH   6   7
HETATM    7  C   UNL     1     -32.955  -5.133 -11.387  1.00  0.00     0.112 C 
BRANCH   7   8
HETATM    8  C   UNL     1     -34.349  -5.715 -11.440  1.00  0.00     0.139 C 
HETATM    9  O   UNL     1     -34.926  -6.259 -10.513  1.00  0.00    -0.650 OA
BRANCH   8  10
HETATM   10  O   UNL     1     -34.921  -5.569 -12.657  1.00  0.00    -0.776 OA
HETATM   11  H   UNL     1     -35.128  -4.646 -12.895  1.00  0.00     0.167 HD
ENDBRANCH   8  10
ENDBRANCH   7   8
ENDBRANCH   6   7
ENDBRANCH   5   6
BRANCH   5  12
HETATM   12  N   UNL     1     -33.204  -1.700 -10.183  1.00  0.00     0.092 N 
HETATM   13  H   UNL     1     -33.784  -1.478  -9.371  1.00  0.00     0.313 HD
HETATM   14  H   UNL     1     -33.115  -0.841 -10.720  1.00  0.00     0.313 HD
ENDBRANCH   5  12
ENDBRANCH   2   5
BRANCH   1  15
HETATM   15  C   UNL     1     -35.908   0.142 -12.486  1.00  0.00     0.128 C 
BRANCH  15  16
HETATM   16  C   UNL     1     -35.179   0.757 -13.686  1.00  0.00     0.078 C 
BRANCH  16  17
HETATM   17  C   UNL     1     -35.594   0.120 -14.964  1.00  0.00     0.027 A 
HETATM   18  C   UNL     1     -36.577   0.431 -15.879  1.00  0.00     0.114 A 
HETATM   19  N   UNL     1     -36.567  -0.455 -16.925  1.00  0.00    -0.360 N 
HETATM   20  C   UNL     1     -35.604  -1.303 -16.655  1.00  0.00     0.180 A 
ATOM     21  HN  UNL     1     -37.178  -0.455 -17.742  1.00  0.00     0.166 HD
HETATM   22  N   UNL     1     -34.987  -1.000 -15.475  1.00  0.00    -0.355 N 
HETATM   23  H   UNL     1     -34.215  -1.509 -15.059  1.00  0.00     0.166 HD
ENDBRANCH  16  17
ENDBRANCH  15  16
ENDBRANCH   1  15
TORSDOF 9
ENDMDL
MODEL 2
REMARK VINA RESULT:      -6.3     11.841     14.786
REMARK  9 active torsions:
REMARK  status: ('A' for Active; 'I' for Inactive)
REMARK    1  A    between atoms: C_2  and  C_7 
REMARK    2  A    between atoms: C_7  and  C_8 
REMARK    3  A    between atoms: C_8  and  N_9 
REMARK       I    between atoms: N_9  and  C_10 
REMARK    4  A    between atoms: C_10  and  C_12 
REMARK    5  A    between atoms: C_12  and  C_13 
REMARK    6  A    between atoms: C_12  and  N_18 
REMARK    7  A    between atoms: C_13  and  C_14 
REMARK    8  A    between atoms: C_14  and  C_15 
REMARK    9  A    between atoms: C_15  and  O_17 
ROOT
HETATM    1  N   UNL     1     -22.678  -3.726  -8.376  1.00  0.00    -0.359 N 
HETATM    2  C   UNL     1     -22.697  -3.561  -9.746  1.00  0.00     0.250 C 
HETATM    3  O   UNL     1     -21.677  -3.463 -10.423  1.00  0.00    -0.271 OA
HETATM    4  H   UNL     1     -23.568  -3.929  -7.931  1.00  0.00     0.162 HD
ENDROOT
BRANCH   2   5
HETATM    5  C   UNL     1     -24.135  -3.483 -10.324  1.00  0.00     0.309 C 
BRANCH   5   6
HETATM    6  C   UNL     1     -24.147  -3.902 -11.804  1.00  0.00     0.055 C 
BRANCH   6   7
HETATM    7  C   UNL     1     -24.193  -2.758 -12.819  1.00  0.00     0.112 C 
BRANCH   7   8
HETATM    8  C   UNL     1     -23.147  -2.872 -13.904  1.00  0.00     0.139 C 
HETATM    9  O   UNL     1     -23.303  -2.567 -15.075  1.00  0.00    -0.650 OA
BRANCH   8  10
HETATM   10  O   UNL     1     -21.975  -3.361 -13.438  1.00  0.00    -0.776 OA
HETATM   11  H   UNL     1     -22.031  -3.755 -12.547  1.00  0.00     0.167 HD
ENDBRANCH   8  10
ENDBRANCH   7   8
ENDBRANCH   6   7
ENDBRANCH   5   6
BRANCH   5  12
HETATM   12  N   UNL     1     -25.027  -4.309  -9.482  1.00  0.00     0.092 N 
HETATM   13  H   UNL     1     -25.900  -4.474  -9.988  1.00  0.00     0.313 HD
HETATM   14  H   UNL     1     -25.273  -3.808  -8.632  1.00  0.00     0.313 HD
ENDBRANCH   5  12
ENDBRANCH   2   5
BRANCH   1  15
HETATM   15  C   UNL     1     -21.442  -3.825  -7.627  1.00  0.00     0.128 C 
BRANCH  15  16
HETATM   16  C   UNL     1     -20.817  -5.221  -7.721  1.00  0.00     0.078 C 
BRANCH  16  17
HETATM   17  C   UNL     1     -20.955  -5.970  -6.444  1.00  0.00     0.027 A 
HETATM   18  C   UNL     1     -20.983  -5.562  -5.127  1.00  0.00     0.114 A 
HETATM   19  N   UNL     1     -21.145  -6.634  -4.288  1.00  0.00    -0.360 N 
HETATM   20  C   UNL     1     -21.203  -7.684  -5.071  1.00  0.00     0.180 A 
ATOM     21  HN  UNL     1     -21.206  -6.618  -3.270  1.00  0.00     0.166 HD
HETATM   22  N   UNL     1     -21.089  -7.334  -6.386  1.00  0.00    -0.355 N 
HETATM   23  H   UNL     1     -21.109  -7.972  -7.174  1.00  0.00     0.166 HD
ENDBRANCH  16  17
ENDBRANCH  15  16
ENDBRANCH   1  15
TORSDOF 9
ENDMDL
MODEL 3
REMARK VINA RESULT:      -6.2     11.567     14.446
REMARK  9 active torsions:
REMARK  status: ('A' for Active; 'I' for Inactive)
REMARK    1  A    between atoms: C_2  and  C_7 
REMARK    2  A    between atoms: C_7  and  C_8 
REMARK    3  A    between atoms: C_8  and  N_9 
REMARK       I    between atoms: N_9  and  C_10 
REMARK    4  A    between atoms: C_10  and  C_12 
REMARK    5  A    between atoms: C_12  and  C_13 
REMARK    6  A    between atoms: C_12  and  N_18 
REMARK    7  A    between atoms: C_13  and  C_14 
REMARK    8  A    between atoms: C_14  and  C_15 
REMARK    9  A    between atoms: C_15  and  O_17 
ROOT
HETATM    1  N   UNL     1     -23.050  -4.469  -9.404  1.00  0.00    -0.359 N 
HETATM    2  C   UNL     1     -23.937  -3.886 -10.287  1.00  0.00     0.250 C 
HETATM    3  O   UNL     1     -24.817  -3.104  -9.935  1.00  0.00    -0.271 OA
HETATM    4  H   UNL     1     -22.283  -4.992  -9.812  1.00  0.00     0.162 HD
ENDROOT
BRANCH   2   5
HETATM    5  C   UNL     1     -23.719  -4.346 -11.752  1.00  0.00     0.309 C 
BRANCH   5   6
HETATM    6  C   UNL     1     -24.360  -3.349 -12.733  1.00  0.00     0.055 C 
BRANCH   6   7
HETATM    7  C   UNL     1     -23.457  -2.207 -13.207  1.00  0.00     0.112 C 
BRANCH   7   8
HETATM    8  C   UNL     1     -23.274  -2.166 -14.706  1.00  0.00     0.139 C 
HETATM    9  O   UNL     1     -22.538  -2.895 -15.351  1.00  0.00    -0.650 OA
BRANCH   8  10
HETATM   10  O   UNL     1     -24.032  -1.210 -15.290  1.00  0.00    -0.776 OA
HETATM   11  H   UNL     1     -24.000  -1.212 -16.265  1.00  0.00     0.167 HD
ENDBRANCH   8  10
ENDBRANCH   7   8
ENDBRANCH   6   7
ENDBRANCH   5   6
BRANCH   5  12
HETATM   12  N   UNL     1     -22.269  -4.528 -11.979  1.00  0.00     0.092 N 
HETATM   13  H   UNL     1     -21.940  -3.802 -12.619  1.00  0.00     0.313 HD
HETATM   14  H   UNL     1     -22.093  -5.419 -12.435  1.00  0.00     0.313 HD
ENDBRANCH   5  12
ENDBRANCH   2   5
BRANCH   1  15
HETATM   15  C   UNL     1     -23.073  -4.182  -7.984  1.00  0.00     0.128 C 
BRANCH  15  16
HETATM   16  C   UNL     1     -21.667  -3.951  -7.418  1.00  0.00     0.078 C 
BRANCH  16  17
HETATM   17  C   UNL     1     -21.104  -5.196  -6.830  1.00  0.00     0.027 A 
HETATM   18  C   UNL     1     -19.909  -5.857  -7.027  1.00  0.00     0.114 A 
HETATM   19  N   UNL     1     -19.834  -6.973  -6.235  1.00  0.00    -0.360 N 
HETATM   20  C   UNL     1     -20.964  -7.006  -5.571  1.00  0.00     0.180 A 
ATOM     21  HN  UNL     1     -19.062  -7.636  -6.173  1.00  0.00     0.166 HD
HETATM   22  N   UNL     1     -21.769  -5.954  -5.900  1.00  0.00    -0.355 N 
HETATM   23  H   UNL     1     -22.689  -5.766  -5.517  1.00  0.00     0.166 HD
ENDBRANCH  16  17
ENDBRANCH  15  16
ENDBRANCH   1  15
TORSDOF 9
ENDMDL
MODEL 4
REMARK VINA RESULT:      -6.1     12.471     15.707
REMARK  9 active torsions:
REMARK  status: ('A' for Active; 'I' for Inactive)
REMARK    1  A    between atoms: C_2  and  C_7 
REMARK    2  A    between atoms: C_7  and  C_8 
REMARK    3  A    between atoms: C_8  and  N_9 
REMARK       I    between atoms: N_9  and  C_10 
REMARK    4  A    between atoms: C_10  and  C_12 
REMARK    5  A    between atoms: C_12  and  C_13 
REMARK    6  A    between atoms: C_12  and  N_18 
REMARK    7  A    between atoms: C_13  and  C_14 
REMARK    8  A    between atoms: C_14  and  C_15 
REMARK    9  A    between atoms: C_15  and  O_17 
ROOT
HETATM    1  N   UNL     1     -22.146  -4.899  -6.755  1.00  0.00    -0.359 N 
HETATM    2  C   UNL     1     -21.621  -4.160  -7.796  1.00  0.00     0.250 C 
HETATM    3  O   UNL     1     -20.424  -3.903  -7.899  1.00  0.00    -0.271 OA
HETATM    4  H   UNL     1     -23.121  -5.166  -6.835  1.00  0.00     0.162 HD
ENDROOT
BRANCH   2   5
HETATM    5  C   UNL     1     -22.703  -3.671  -8.794  1.00  0.00     0.309 C 
BRANCH   5   6
HETATM    6  C   UNL     1     -22.509  -4.332 -10.170  1.00  0.00     0.055 C 
BRANCH   6   7
HETATM    7  C   UNL     1     -22.543  -3.386 -11.372  1.00  0.00     0.112 C 
BRANCH   7   8
HETATM    8  C   UNL     1     -23.941  -2.977 -11.779  1.00  0.00     0.139 C 
HETATM    9  O   UNL     1     -24.958  -3.209 -11.148  1.00  0.00    -0.650 OA
BRANCH   8  10
HETATM   10  O   UNL     1     -23.958  -2.302 -12.951  1.00  0.00    -0.776 OA
HETATM   11  H   UNL     1     -23.155  -2.419 -13.493  1.00  0.00     0.167 HD
ENDBRANCH   8  10
ENDBRANCH   7   8
ENDBRANCH   6   7
ENDBRANCH   5   6
BRANCH   5  12
HETATM   12  N   UNL     1     -24.036  -3.934  -8.210  1.00  0.00     0.092 N 
HETATM   13  H   UNL     1     -24.746  -3.814  -8.936  1.00  0.00     0.313 HD
HETATM   14  H   UNL     1     -24.244  -3.252  -7.485  1.00  0.00     0.313 HD
ENDBRANCH   5  12
ENDBRANCH   2   5
BRANCH   1  15
HETATM   15  C   UNL     1     -21.314  -5.456  -5.708  1.00  0.00     0.128 C 
BRANCH  15  16
HETATM   16  C   UNL     1     -21.824  -6.819  -5.227  1.00  0.00     0.078 C 
BRANCH  16  17
HETATM   17  C   UNL     1     -21.754  -6.938  -3.746  1.00  0.00     0.027 A 
HETATM   18  C   UNL     1     -21.120  -7.839  -2.916  1.00  0.00     0.114 A 
HETATM   19  N   UNL     1     -21.337  -7.525  -1.600  1.00  0.00    -0.360 N 
HETATM   20  C   UNL     1     -22.100  -6.459  -1.616  1.00  0.00     0.180 A 
ATOM     21  HN  UNL     1     -20.980  -8.017  -0.780  1.00  0.00     0.166 HD
HETATM   22  N   UNL     1     -22.383  -6.067  -2.893  1.00  0.00    -0.355 N 
HETATM   23  H   UNL     1     -22.951  -5.269  -3.158  1.00  0.00     0.166 HD
ENDBRANCH  16  17
ENDBRANCH  15  16
ENDBRANCH   1  15
TORSDOF 9
ENDMDL
MODEL 5
REMARK VINA RESULT:      -6.1     12.646     15.922
REMARK  9 active torsions:
REMARK  status: ('A' for Active; 'I' for Inactive)
REMARK    1  A    between atoms: C_2  and  C_7 
REMARK    2  A    between atoms: C_7  and  C_8 
REMARK    3  A    between atoms: C_8  and  N_9 
REMARK       I    between atoms: N_9  and  C_10 
REMARK    4  A    between atoms: C_10  and  C_12 
REMARK    5  A    between atoms: C_12  and  C_13 
REMARK    6  A    between atoms: C_12  and  N_18 
REMARK    7  A    between atoms: C_13  and  C_14 
REMARK    8  A    between atoms: C_14  and  C_15 
REMARK    9  A    between atoms: C_15  and  O_17 
ROOT
HETATM    1  N   UNL     1     -21.591  -5.076  -6.194  1.00  0.00    -0.359 N 
HETATM    2  C   UNL     1     -21.209  -4.479  -7.378  1.00  0.00     0.250 C 
HETATM    3  O   UNL     1     -20.039  -4.413  -7.748  1.00  0.00    -0.271 OA
HETATM    4  H   UNL     1     -22.588  -5.193  -6.047  1.00  0.00     0.162 HD
ENDROOT
BRANCH   2   5
HETATM    5  C   UNL     1     -22.404  -3.881  -8.165  1.00  0.00     0.309 C 
BRANCH   5   6
HETATM    6  C   UNL     1     -22.366  -4.335  -9.635  1.00  0.00     0.055 C 
BRANCH   6   7
HETATM    7  C   UNL     1     -23.715  -4.718 -10.248  1.00  0.00     0.112 C 
BRANCH   7   8
HETATM    8  C   UNL     1     -24.556  -3.527 -10.645  1.00  0.00     0.139 C 
HETATM    9  O   UNL     1     -24.397  -2.848 -11.646  1.00  0.00    -0.650 OA
BRANCH   8  10
HETATM   10  O   UNL     1     -25.542  -3.274  -9.753  1.00  0.00    -0.776 OA
HETATM   11  H   UNL     1     -26.163  -4.015  -9.621  1.00  0.00     0.167 HD
ENDBRANCH   8  10
ENDBRANCH   7   8
ENDBRANCH   6   7
ENDBRANCH   5   6
BRANCH   5  12
HETATM   12  N   UNL     1     -23.658  -4.257  -7.477  1.00  0.00     0.092 N 
HETATM   13  H   UNL     1     -23.472  -4.349  -6.476  1.00  0.00     0.313 HD
HETATM   14  H   UNL     1     -23.977  -5.167  -7.799  1.00  0.00     0.313 HD
ENDBRANCH   5  12
ENDBRANCH   2   5
BRANCH   1  15
HETATM   15  C   UNL     1     -20.637  -5.700  -5.300  1.00  0.00     0.128 C 
BRANCH  15  16
HETATM   16  C   UNL     1     -21.079  -7.103  -4.869  1.00  0.00     0.078 C 
BRANCH  16  17
HETATM   17  C   UNL     1     -21.481  -7.134  -3.438  1.00  0.00     0.027 A 
HETATM   18  C   UNL     1     -21.388  -8.111  -2.469  1.00  0.00     0.114 A 
HETATM   19  N   UNL     1     -21.888  -7.661  -1.274  1.00  0.00    -0.360 N 
HETATM   20  C   UNL     1     -22.293  -6.436  -1.505  1.00  0.00     0.180 A 
ATOM     21  HN  UNL     1     -21.935  -8.172  -0.392  1.00  0.00     0.166 HD
HETATM   22  N   UNL     1     -22.072  -6.071  -2.802  1.00  0.00    -0.355 N 
HETATM   23  H   UNL     1     -22.299  -5.173  -3.214  1.00  0.00     0.166 HD
ENDBRANCH  16  17
ENDBRANCH  15  16
ENDBRANCH   1  15
TORSDOF 9
ENDMDL
MODEL 6
REMARK VINA RESULT:      -6.1      1.911      2.287
REMARK  9 active torsions:
REMARK  status: ('A' for Active; 'I' for Inactive)
REMARK    1  A    between atoms: C_2  and  C_7 
REMARK    2  A    between atoms: C_7  and  C_8 
REMARK    3  A    between atoms: C_8  and  N_9 
REMARK       I    between atoms: N_9  and  C_10 
REMARK    4  A    between atoms: C_10  and  C_12 
REMARK    5  A    between atoms: C_12  and  C_13 
REMARK    6  A    between atoms: C_12  and  N_18 
REMARK    7  A    between atoms: C_13  and  C_14 
REMARK    8  A    between atoms: C_14  and  C_15 
REMARK    9  A    between atoms: C_15  and  O_17 
ROOT
HETATM    1  N   UNL     1     -34.686  -2.207 -11.833  1.00  0.00    -0.359 N 
HETATM    2  C   UNL     1     -35.043  -3.329 -11.113  1.00  0.00     0.250 C 
HETATM    3  O   UNL     1     -36.189  -3.539 -10.723  1.00  0.00    -0.271 OA
HETATM    4  H   UNL     1     -33.748  -2.195 -12.219  1.00  0.00     0.162 HD
ENDROOT
BRANCH   2   5
HETATM    5  C   UNL     1     -33.842  -4.269 -10.827  1.00  0.00     0.309 C 
BRANCH   5   6
HETATM    6  C   UNL     1     -34.237  -5.737 -11.061  1.00  0.00     0.055 C 
BRANCH   6   7
HETATM    7  C   UNL     1     -34.465  -6.573  -9.799  1.00  0.00     0.112 C 
BRANCH   7   8
HETATM    8  C   UNL     1     -34.415  -8.063 -10.045  1.00  0.00     0.139 C 
HETATM    9  O   UNL     1     -33.886  -8.885  -9.316  1.00  0.00    -0.650 OA
BRANCH   8  10
HETATM   10  O   UNL     1     -35.037  -8.415 -11.195  1.00  0.00    -0.776 OA
HETATM   11  H   UNL     1     -35.688  -7.763 -11.513  1.00  0.00     0.167 HD
ENDBRANCH   8  10
ENDBRANCH   7   8
ENDBRANCH   6   7
ENDBRANCH   5   6
BRANCH   5  12
HETATM   12  N   UNL     1     -32.698  -3.839 -11.661  1.00  0.00     0.092 N 
HETATM   13  H   UNL     1     -31.966  -3.469 -11.052  1.00  0.00     0.313 HD
HETATM   14  H   UNL     1     -32.977  -3.079 -12.276  1.00  0.00     0.313 HD
ENDBRANCH   5  12
ENDBRANCH   2   5
BRANCH   1  15
HETATM   15  C   UNL     1     -35.650  -1.194 -12.212  1.00  0.00     0.128 C 
BRANCH  15  16
HETATM   16  C   UNL     1     -34.977   0.078 -12.740  1.00  0.00     0.078 C 
BRANCH  16  17
HETATM   17  C   UNL     1     -35.627   0.565 -13.985  1.00  0.00     0.027 A 
HETATM   18  C   UNL     1     -36.710   0.108 -14.707  1.00  0.00     0.114 A 
HETATM   19  N   UNL     1     -36.944   0.909 -15.794  1.00  0.00    -0.360 N 
HETATM   20  C   UNL     1     -36.018   1.836 -15.750  1.00  0.00     0.180 A 
ATOM     21  HN  UNL     1     -37.683   0.807 -16.489  1.00  0.00     0.166 HD
HETATM   22  N   UNL     1     -35.193   1.669 -14.675  1.00  0.00    -0.355 N 
HETATM   23  H   UNL     1     -34.407   2.261 -14.431  1.00  0.00     0.166 HD
ENDBRANCH  16  17
ENDBRANCH  15  16
ENDBRANCH   1  15
TORSDOF 9
ENDMDL
MODEL 7
REMARK VINA RESULT:      -6.0     12.260     15.147
REMARK  9 active torsions:
REMARK  status: ('A' for Active; 'I' for Inactive)
REMARK    1  A    between atoms: C_2  and  C_7 
REMARK    2  A    between atoms: C_7  and  C_8 
REMARK    3  A    between atoms: C_8  and  N_9 
REMARK       I    between atoms: N_9  and  C_10 
REMARK    4  A    between atoms: C_10  and  C_12 
REMARK    5  A    between atoms: C_12  and  C_13 
REMARK    6  A    between atoms: C_12  and  N_18 
REMARK    7  A    between atoms: C_13  and  C_14 
REMARK    8  A    between atoms: C_14  and  C_15 
REMARK    9  A    between atoms: C_15  and  O_17 
ROOT
HETATM    1  N   UNL     1     -21.073  -4.130  -9.276  1.00  0.00    -0.359 N 
HETATM    2  C   UNL     1     -20.613  -4.482 -10.529  1.00  0.00     0.250 C 
HETATM    3  O   UNL     1     -19.516  -5.002 -10.719  1.00  0.00    -0.271 OA
HETATM    4  H   UNL     1     -22.040  -3.831  -9.216  1.00  0.00     0.162 HD
ENDROOT
BRANCH   2   5
HETATM    5  C   UNL     1     -21.611  -4.122 -11.661  1.00  0.00     0.309 C 
BRANCH   5   6
HETATM    6  C   UNL     1     -23.038  -4.556 -11.281  1.00  0.00     0.055 C 
BRANCH   6   7
HETATM    7  C   UNL     1     -24.085  -3.441 -11.246  1.00  0.00     0.112 C 
BRANCH   7   8
HETATM    8  C   UNL     1     -24.779  -3.306  -9.910  1.00  0.00     0.139 C 
HETATM    9  O   UNL     1     -25.978  -3.160  -9.745  1.00  0.00    -0.650 OA
BRANCH   8  10
HETATM   10  O   UNL     1     -23.911  -3.369  -8.873  1.00  0.00    -0.776 OA
HETATM   11  H   UNL     1     -23.318  -2.598  -8.800  1.00  0.00     0.167 HD
ENDBRANCH   8  10
ENDBRANCH   7   8
ENDBRANCH   6   7
ENDBRANCH   5   6
BRANCH   5  12
HETATM   12  N   UNL     1     -21.504  -2.675 -11.943  1.00  0.00     0.092 N 
HETATM   13  H   UNL     1     -22.155  -2.434 -12.693  1.00  0.00     0.313 HD
HETATM   14  H   UNL     1     -20.572  -2.451 -12.282  1.00  0.00     0.313 HD
ENDBRANCH   5  12
ENDBRANCH   2   5
BRANCH   1  15
HETATM   15  C   UNL     1     -20.302  -4.374  -8.074  1.00  0.00     0.128 C 
BRANCH  15  16
HETATM   16  C   UNL     1     -21.160  -4.280  -6.807  1.00  0.00     0.078 C 
BRANCH  16  17
HETATM   17  C   UNL     1     -21.090  -5.531  -6.006  1.00  0.00     0.027 A 
HETATM   18  C   UNL     1     -21.074  -5.762  -4.646  1.00  0.00     0.114 A 
HETATM   19  N   UNL     1     -21.016  -7.106  -4.382  1.00  0.00    -0.360 N 
HETATM   20  C   UNL     1     -20.985  -7.691  -5.554  1.00  0.00     0.180 A 
ATOM     21  HN  UNL     1     -21.001  -7.555  -3.466  1.00  0.00     0.166 HD
HETATM   22  N   UNL     1     -21.023  -6.780  -6.570  1.00  0.00    -0.355 N 
HETATM   23  H   UNL     1     -21.012  -6.993  -7.561  1.00  0.00     0.166 HD
ENDBRANCH  16  17
ENDBRANCH  15  16
ENDBRANCH   1  15
TORSDOF 9
ENDMDL
MODEL 8
REMARK VINA RESULT:      -6.0     11.873     13.643
REMARK  9 active torsions:
REMARK  status: ('A' for Active; 'I' for Inactive)
REMARK    1  A    between atoms: C_2  and  C_7 
REMARK    2  A    between atoms: C_7  and  C_8 
REMARK    3  A    between atoms: C_8  and  N_9 
REMARK       I    between atoms: N_9  and  C_10 
REMARK    4  A    between atoms: C_10  and  C_12 
REMARK    5  A    between atoms: C_12  and  C_13 
REMARK    6  A    between atoms: C_12  and  N_18 
REMARK    7  A    between atoms: C_13  and  C_14 
REMARK    8  A    between atoms: C_14  and  C_15 
REMARK    9  A    between atoms: C_15  and  O_17 
ROOT
HETATM    1  N   UNL     1     -22.189  -4.398  -9.174  1.00  0.00    -0.359 N 
HETATM    2  C   UNL     1     -22.206  -4.298  -7.798  1.00  0.00     0.250 C 
HETATM    3  O   UNL     1     -23.230  -4.417  -7.130  1.00  0.00    -0.271 OA
HETATM    4  H   UNL     1     -21.275  -4.416  -9.616  1.00  0.00     0.162 HD
ENDROOT
BRANCH   2   5
HETATM    5  C   UNL     1     -20.809  -3.991  -7.198  1.00  0.00     0.309 C 
BRANCH   5   6
HETATM    6  C   UNL     1     -20.611  -4.747  -5.872  1.00  0.00     0.055 C 
BRANCH   6   7
HETATM    7  C   UNL     1     -20.704  -6.272  -5.956  1.00  0.00     0.112 C 
BRANCH   7   8
HETATM    8  C   UNL     1     -21.659  -6.874  -4.952  1.00  0.00     0.139 C 
HETATM    9  O   UNL     1     -21.407  -7.802  -4.202  1.00  0.00    -0.650 OA
BRANCH   8  10
HETATM   10  O   UNL     1     -22.866  -6.262  -4.960  1.00  0.00    -0.776 OA
HETATM   11  H   UNL     1     -23.475  -6.586  -5.649  1.00  0.00     0.167 HD
ENDBRANCH   8  10
ENDBRANCH   7   8
ENDBRANCH   6   7
ENDBRANCH   5   6
BRANCH   5  12
HETATM   12  N   UNL     1     -19.779  -4.318  -8.208  1.00  0.00     0.092 N 
HETATM   13  H   UNL     1     -19.505  -5.297  -8.097  1.00  0.00     0.313 HD
HETATM   14  H   UNL     1     -18.943  -3.762  -8.052  1.00  0.00     0.313 HD
ENDBRANCH   5  12
ENDBRANCH   2   5
BRANCH   1  15
HETATM   15  C   UNL     1     -23.383  -4.681  -9.943  1.00  0.00     0.128 C 
BRANCH  15  16
HETATM   16  C   UNL     1     -24.000  -3.412 -10.542  1.00  0.00     0.078 C 
BRANCH  16  17
HETATM   17  C   UNL     1     -23.512  -3.166 -11.925  1.00  0.00     0.027 A 
HETATM   18  C   UNL     1     -22.345  -3.515 -12.573  1.00  0.00     0.114 A 
HETATM   19  N   UNL     1     -22.357  -3.071 -13.870  1.00  0.00    -0.360 N 
HETATM   20  C   UNL     1     -23.502  -2.450 -14.016  1.00  0.00     0.180 A 
ATOM     21  HN  UNL     1     -21.629  -3.197 -14.573  1.00  0.00     0.166 HD
HETATM   22  N   UNL     1     -24.236  -2.477 -12.865  1.00  0.00    -0.355 N 
HETATM   23  H   UNL     1     -25.154  -2.066 -12.735  1.00  0.00     0.166 HD
ENDBRANCH  16  17
ENDBRANCH  15  16
ENDBRANCH   1  15
TORSDOF 9
ENDMDL
MODEL 9
REMARK VINA RESULT:      -5.8     12.449     15.367
REMARK  9 active torsions:
REMARK  status: ('A' for Active; 'I' for Inactive)
REMARK    1  A    between atoms: C_2  and  C_7 
REMARK    2  A    between atoms: C_7  and  C_8 
REMARK    3  A    between atoms: C_8  and  N_9 
REMARK       I    between atoms: N_9  and  C_10 
REMARK    4  A    between atoms: C_10  and  C_12 
REMARK    5  A    between atoms: C_12  and  C_13 
REMARK    6  A    between atoms: C_12  and  N_18 
REMARK    7  A    between atoms: C_13  and  C_14 
REMARK    8  A    between atoms: C_14  and  C_15 
REMARK    9  A    between atoms: C_15  and  O_17 
ROOT
HETATM    1  N   UNL     1     -21.136  -4.366  -9.206  1.00  0.00    -0.359 N 
HETATM    2  C   UNL     1     -22.215  -3.898  -9.928  1.00  0.00     0.250 C 
HETATM    3  O   UNL     1     -23.303  -3.642  -9.419  1.00  0.00    -0.271 OA
HETATM    4  H   UNL     1     -20.250  -4.418  -9.698  1.00  0.00     0.162 HD
ENDROOT
BRANCH   2   5
HETATM    5  C   UNL     1     -21.913  -3.761 -11.444  1.00  0.00     0.309 C 
BRANCH   5   6
HETATM    6  C   UNL     1     -22.699  -2.585 -12.049  1.00  0.00     0.055 C 
BRANCH   6   7
HETATM    7  C   UNL     1     -23.716  -2.952 -13.132  1.00  0.00     0.112 C 
BRANCH   7   8
HETATM    8  C   UNL     1     -23.475  -2.249 -14.448  1.00  0.00     0.139 C 
HETATM    9  O   UNL     1     -22.655  -2.578 -15.288  1.00  0.00    -0.650 OA
BRANCH   8  10
HETATM   10  O   UNL     1     -24.287  -1.179 -14.615  1.00  0.00    -0.776 OA
HETATM   11  H   UNL     1     -25.193  -1.404 -14.896  1.00  0.00     0.167 HD
ENDBRANCH   8  10
ENDBRANCH   7   8
ENDBRANCH   6   7
ENDBRANCH   5   6
BRANCH   5  12
HETATM   12  N   UNL     1     -20.450  -3.632 -11.623  1.00  0.00     0.092 N 
HETATM   13  H   UNL     1     -20.261  -3.293 -12.569  1.00  0.00     0.313 HD
HETATM   14  H   UNL     1     -20.004  -4.543 -11.546  1.00  0.00     0.313 HD
ENDBRANCH   5  12
ENDBRANCH   2   5
BRANCH   1  15
HETATM   15  C   UNL     1     -21.196  -4.569  -7.773  1.00  0.00     0.128 C 
BRANCH  15  16
HETATM   16  C   UNL     1     -20.197  -5.629  -7.296  1.00  0.00     0.078 C 
BRANCH  16  17
HETATM   17  C   UNL     1     -20.605  -6.217  -5.992  1.00  0.00     0.027 A 
HETATM   18  C   UNL     1     -20.248  -7.383  -5.348  1.00  0.00     0.114 A 
HETATM   19  N   UNL     1     -20.887  -7.487  -4.139  1.00  0.00    -0.360 N 
HETATM   20  C   UNL     1     -21.632  -6.412  -4.046  1.00  0.00     0.180 A 
ATOM     21  HN  UNL     1     -20.800  -8.240  -3.457  1.00  0.00     0.166 HD
HETATM   22  N   UNL     1     -21.500  -5.614  -5.145  1.00  0.00    -0.355 N 
HETATM   23  H   UNL     1     -21.974  -4.730  -5.299  1.00  0.00     0.166 HD
ENDBRANCH  16  17
ENDBRANCH  15  16
ENDBRANCH   1  15
TORSDOF 9
ENDMDL
