MODEL 1
REMARK VINA RESULT:      -5.1      0.000      0.000
REMARK  6 active torsions:
REMARK  status: ('A' for Active; 'I' for Inactive)
REMARK    1  A    between atoms: C_1  and  C_2 
REMARK    2  A    between atoms: C_1  and  C_7 
REMARK    3  A    between atoms: C_2  and  C_3 
REMARK    4  A    between atoms: C_2  and  O_6 
REMARK    5  A    between atoms: C_3  and  O_5 
REMARK    6  A    between atoms: C_7  and  O_9 
ROOT
HETATM    1  C   UNL     1     -24.294  -2.755 -13.229  1.00  0.00     0.225 C 
ENDROOT
BRANCH   1   2
HETATM    2  C   UNL     1     -23.331  -2.612 -12.057  1.00  0.00     0.152 C 
BRANCH   2   3
HETATM    3  C   UNL     1     -22.409  -3.791 -11.969  1.00  0.00     0.142 C 
HETATM    4  O   UNL     1     -22.503  -4.663 -11.115  1.00  0.00    -0.650 OA
BRANCH   3   5
HETATM    5  O   UNL     1     -21.436  -3.781 -12.901  1.00  0.00    -0.776 OA
HETATM    6  H   UNL     1     -21.754  -3.683 -13.820  1.00  0.00     0.167 HD
ENDBRANCH   3   5
ENDBRANCH   2   3
ENDBRANCH   1   2
BRANCH   1   7
HETATM    7  C   UNL     1     -23.927  -1.840 -14.402  1.00  0.00     0.170 C 
HETATM    8  O   UNL     1     -22.985  -2.096 -15.147  1.00  0.00    -0.648 OA
BRANCH   7   9
HETATM    9  O   UNL     1     -24.702  -0.751 -14.571  1.00  0.00    -0.775 OA
HETATM   10  H   UNL     1     -24.489   0.014 -13.979  1.00  0.00     0.167 HD
ENDBRANCH   7   9
ENDBRANCH   1   7
BRANCH   1  11
HETATM   11  O   UNL     1     -24.218  -4.126 -13.652  1.00  0.00    -0.384 OA
HETATM   12  H   UNL     1     -25.107  -4.514 -13.502  1.00  0.00     0.210 HD
ENDBRANCH   1  11
TORSDOF 6
ENDMDL
MODEL 2
REMARK VINA RESULT:      -5.1      2.098      3.876
REMARK  6 active torsions:
REMARK  status: ('A' for Active; 'I' for Inactive)
REMARK    1  A    between atoms: C_1  and  C_2 
REMARK    2  A    between atoms: C_1  and  C_7 
REMARK    3  A    between atoms: C_2  and  C_3 
REMARK    4  A    between atoms: C_2  and  O_6 
REMARK    5  A    between atoms: C_3  and  O_5 
REMARK    6  A    between atoms: C_7  and  O_9 
ROOT
HETATM    1  C   UNL     1     -23.250  -3.904 -10.715  1.00  0.00     0.225 C 
ENDROOT
BRANCH   1   2
HETATM    2  C   UNL     1     -22.837  -2.705 -11.560  1.00  0.00     0.152 C 
BRANCH   2   3
HETATM    3  C   UNL     1     -23.301  -2.859 -12.978  1.00  0.00     0.142 C 
HETATM    4  O   UNL     1     -24.453  -2.663 -13.339  1.00  0.00    -0.650 OA
BRANCH   3   5
HETATM    5  O   UNL     1     -22.331  -3.272 -13.817  1.00  0.00    -0.776 OA
HETATM    6  H   UNL     1     -21.672  -2.587 -14.047  1.00  0.00     0.167 HD
ENDBRANCH   3   5
ENDBRANCH   2   3
ENDBRANCH   1   2
BRANCH   1   7
HETATM    7  C   UNL     1     -24.406  -3.578  -9.763  1.00  0.00     0.170 C 
HETATM    8  O   UNL     1     -25.497  -3.201 -10.183  1.00  0.00    -0.648 OA
BRANCH   7   9
HETATM    9  O   UNL     1     -24.156  -3.738  -8.449  1.00  0.00    -0.775 OA
HETATM   10  H   UNL     1     -24.931  -3.587  -7.851  1.00  0.00     0.167 HD
ENDBRANCH   7   9
ENDBRANCH   1   7
BRANCH   1  11
HETATM   11  O   UNL     1     -23.664  -4.927 -11.636  1.00  0.00    -0.384 OA
HETATM   12  H   UNL     1     -22.845  -5.292 -12.035  1.00  0.00     0.210 HD
ENDBRANCH   1  11
TORSDOF 6
ENDMDL
MODEL 3
REMARK VINA RESULT:      -5.0      2.169      2.964
REMARK  6 active torsions:
REMARK  status: ('A' for Active; 'I' for Inactive)
REMARK    1  A    between atoms: C_1  and  C_2 
REMARK    2  A    between atoms: C_1  and  C_7 
REMARK    3  A    between atoms: C_2  and  C_3 
REMARK    4  A    between atoms: C_2  and  O_6 
REMARK    5  A    between atoms: C_3  and  O_5 
REMARK    6  A    between atoms: C_7  and  O_9 
ROOT
HETATM    1  C   UNL     1     -24.069  -2.866 -12.203  1.00  0.00     0.225 C 
ENDROOT
BRANCH   1   2
HETATM    2  C   UNL     1     -23.887  -3.891 -11.092  1.00  0.00     0.152 C 
BRANCH   2   3
HETATM    3  C   UNL     1     -24.693  -3.524  -9.881  1.00  0.00     0.142 C 
HETATM    4  O   UNL     1     -25.847  -3.122  -9.932  1.00  0.00    -0.650 OA
BRANCH   3   5
HETATM    5  O   UNL     1     -24.009  -3.645  -8.727  1.00  0.00    -0.776 OA
HETATM    6  H   UNL     1     -23.037  -3.620  -8.825  1.00  0.00     0.167 HD
ENDBRANCH   3   5
ENDBRANCH   2   3
ENDBRANCH   1   2
BRANCH   1   7
HETATM    7  C   UNL     1     -23.175  -3.151 -13.415  1.00  0.00     0.170 C 
HETATM    8  O   UNL     1     -23.595  -3.045 -14.563  1.00  0.00    -0.648 OA
BRANCH   7   9
HETATM    9  O   UNL     1     -21.906  -3.514 -13.143  1.00  0.00    -0.775 OA
HETATM   10  H   UNL     1     -21.793  -4.442 -12.816  1.00  0.00     0.167 HD
ENDBRANCH   7   9
ENDBRANCH   1   7
BRANCH   1  11
HETATM   11  O   UNL     1     -25.448  -2.938 -12.601  1.00  0.00    -0.384 OA
HETATM   12  H   UNL     1     -25.970  -3.066 -11.780  1.00  0.00     0.210 HD
ENDBRANCH   1  11
TORSDOF 6
ENDMDL
MODEL 4
REMARK VINA RESULT:      -5.0      1.464      2.011
REMARK  6 active torsions:
REMARK  status: ('A' for Active; 'I' for Inactive)
REMARK    1  A    between atoms: C_1  and  C_2 
REMARK    2  A    between atoms: C_1  and  C_7 
REMARK    3  A    between atoms: C_2  and  C_3 
REMARK    4  A    between atoms: C_2  and  O_6 
REMARK    5  A    between atoms: C_3  and  O_5 
REMARK    6  A    between atoms: C_7  and  O_9 
ROOT
HETATM    1  C   UNL     1     -23.121  -3.356 -13.140  1.00  0.00     0.225 C 
ENDROOT
BRANCH   1   2
HETATM    2  C   UNL     1     -23.521  -2.659 -11.846  1.00  0.00     0.152 C 
BRANCH   2   3
HETATM    3  C   UNL     1     -24.302  -3.580 -10.956  1.00  0.00     0.142 C 
HETATM    4  O   UNL     1     -25.273  -3.227 -10.300  1.00  0.00    -0.650 OA
BRANCH   3   5
HETATM    5  O   UNL     1     -23.807  -4.833 -10.917  1.00  0.00    -0.776 OA
HETATM    6  H   UNL     1     -22.906  -4.903 -10.545  1.00  0.00     0.167 HD
ENDBRANCH   3   5
ENDBRANCH   2   3
ENDBRANCH   1   2
BRANCH   1   7
HETATM    7  C   UNL     1     -23.289  -2.452 -14.367  1.00  0.00     0.170 C 
HETATM    8  O   UNL     1     -22.621  -2.619 -15.384  1.00  0.00    -0.648 OA
BRANCH   7   9
HETATM    9  O   UNL     1     -24.214  -1.478 -14.264  1.00  0.00    -0.775 OA
HETATM   10  H   UNL     1     -24.267  -1.038 -13.379  1.00  0.00     0.167 HD
ENDBRANCH   7   9
ENDBRANCH   1   7
BRANCH   1  11
HETATM   11  O   UNL     1     -21.736  -3.714 -12.997  1.00  0.00    -0.384 OA
HETATM   12  H   UNL     1     -21.665  -4.226 -12.163  1.00  0.00     0.210 HD
ENDBRANCH   1  11
TORSDOF 6
ENDMDL
MODEL 5
REMARK VINA RESULT:      -4.7      1.480      3.596
REMARK  6 active torsions:
REMARK  status: ('A' for Active; 'I' for Inactive)
REMARK    1  A    between atoms: C_1  and  C_2 
REMARK    2  A    between atoms: C_1  and  C_7 
REMARK    3  A    between atoms: C_2  and  C_3 
REMARK    4  A    between atoms: C_2  and  O_6 
REMARK    5  A    between atoms: C_3  and  O_5 
REMARK    6  A    between atoms: C_7  and  O_9 
ROOT
HETATM    1  C   UNL     1     -22.955  -2.937 -12.012  1.00  0.00     0.225 C 
ENDROOT
BRANCH   1   2
HETATM    2  C   UNL     1     -23.829  -2.449 -13.160  1.00  0.00     0.152 C 
BRANCH   2   3
HETATM    3  C   UNL     1     -23.421  -3.081 -14.457  1.00  0.00     0.142 C 
HETATM    4  O   UNL     1     -22.587  -2.602 -15.213  1.00  0.00    -0.650 OA
BRANCH   3   5
HETATM    5  O   UNL     1     -24.093  -4.216 -14.733  1.00  0.00    -0.776 OA
HETATM    6  H   UNL     1     -24.980  -4.081 -15.120  1.00  0.00     0.167 HD
ENDBRANCH   3   5
ENDBRANCH   2   3
ENDBRANCH   1   2
BRANCH   1   7
HETATM    7  C   UNL     1     -23.773  -3.304 -10.769  1.00  0.00     0.170 C 
HETATM    8  O   UNL     1     -23.231  -3.637  -9.719  1.00  0.00    -0.648 OA
BRANCH   7   9
HETATM    9  O   UNL     1     -25.112  -3.228 -10.896  1.00  0.00    -0.775 OA
HETATM   10  H   UNL     1     -25.600  -2.969 -10.074  1.00  0.00     0.167 HD
ENDBRANCH   7   9
ENDBRANCH   1   7
BRANCH   1  11
HETATM   11  O   UNL     1     -22.269  -4.105 -12.493  1.00  0.00    -0.384 OA
HETATM   12  H   UNL     1     -22.385  -4.116 -13.468  1.00  0.00     0.210 HD
ENDBRANCH   1  11
TORSDOF 6
ENDMDL
MODEL 6
REMARK VINA RESULT:      -4.6      1.808      2.567
REMARK  6 active torsions:
REMARK  status: ('A' for Active; 'I' for Inactive)
REMARK    1  A    between atoms: C_1  and  C_2 
REMARK    2  A    between atoms: C_1  and  C_7 
REMARK    3  A    between atoms: C_2  and  C_3 
REMARK    4  A    between atoms: C_2  and  O_6 
REMARK    5  A    between atoms: C_3  and  O_5 
REMARK    6  A    between atoms: C_7  and  O_9 
ROOT
HETATM    1  C   UNL     1     -22.999  -3.882 -12.066  1.00  0.00     0.225 C 
ENDROOT
BRANCH   1   2
HETATM    2  C   UNL     1     -22.211  -3.580 -10.797  1.00  0.00     0.152 C 
BRANCH   2   3
HETATM    3  C   UNL     1     -20.736  -3.706 -11.034  1.00  0.00     0.142 C 
HETATM    4  O   UNL     1     -20.103  -4.735 -10.838  1.00  0.00    -0.650 OA
BRANCH   3   5
HETATM    5  O   UNL     1     -20.162  -2.561 -11.449  1.00  0.00    -0.776 OA
HETATM    6  H   UNL     1     -20.559  -2.174 -12.254  1.00  0.00     0.167 HD
ENDBRANCH   3   5
ENDBRANCH   2   3
ENDBRANCH   1   2
BRANCH   1   7
HETATM    7  C   UNL     1     -24.293  -3.066 -12.159  1.00  0.00     0.170 C 
HETATM    8  O   UNL     1     -25.136  -3.095 -11.266  1.00  0.00    -0.648 OA
BRANCH   7   9
HETATM    9  O   UNL     1     -24.442  -2.314 -13.267  1.00  0.00    -0.775 OA
HETATM   10  H   UNL     1     -23.668  -2.315 -13.884  1.00  0.00     0.167 HD
ENDBRANCH   7   9
ENDBRANCH   1   7
BRANCH   1  11
HETATM   11  O   UNL     1     -22.140  -3.541 -13.167  1.00  0.00    -0.384 OA
HETATM   12  H   UNL     1     -21.240  -3.422 -12.793  1.00  0.00     0.210 HD
ENDBRANCH   1  11
TORSDOF 6
ENDMDL
MODEL 7
REMARK VINA RESULT:      -4.6      2.648      3.619
REMARK  6 active torsions:
REMARK  status: ('A' for Active; 'I' for Inactive)
REMARK    1  A    between atoms: C_1  and  C_2 
REMARK    2  A    between atoms: C_1  and  C_7 
REMARK    3  A    between atoms: C_2  and  C_3 
REMARK    4  A    between atoms: C_2  and  O_6 
REMARK    5  A    between atoms: C_3  and  O_5 
REMARK    6  A    between atoms: C_7  and  O_9 
ROOT
HETATM    1  C   UNL     1     -23.277  -3.425  -9.937  1.00  0.00     0.225 C 
ENDROOT
BRANCH   1   2
HETATM    2  C   UNL     1     -22.498  -4.568 -10.576  1.00  0.00     0.152 C 
BRANCH   2   3
HETATM    3  C   UNL     1     -21.449  -4.050 -11.514  1.00  0.00     0.142 C 
HETATM    4  O   UNL     1     -20.285  -3.859 -11.190  1.00  0.00    -0.650 OA
BRANCH   3   5
HETATM    5  O   UNL     1     -21.921  -3.774 -12.745  1.00  0.00    -0.776 OA
HETATM    6  H   UNL     1     -22.892  -3.673 -12.796  1.00  0.00     0.167 HD
ENDBRANCH   3   5
ENDBRANCH   2   3
ENDBRANCH   1   2
BRANCH   1   7
HETATM    7  C   UNL     1     -24.674  -3.259 -10.544  1.00  0.00     0.170 C 
HETATM    8  O   UNL     1     -24.837  -3.116 -11.752  1.00  0.00    -0.648 OA
BRANCH   7   9
HETATM    9  O   UNL     1     -25.705  -3.289  -9.676  1.00  0.00    -0.775 OA
HETATM   10  H   UNL     1     -25.657  -2.627  -8.941  1.00  0.00     0.167 HD
ENDBRANCH   7   9
ENDBRANCH   1   7
BRANCH   1  11
HETATM   11  O   UNL     1     -23.397  -3.747  -8.541  1.00  0.00    -0.384 OA
HETATM   12  H   UNL     1     -22.484  -3.794  -8.186  1.00  0.00     0.210 HD
ENDBRANCH   1  11
TORSDOF 6
ENDMDL
MODEL 8
REMARK VINA RESULT:      -4.4      2.675      3.492
REMARK  6 active torsions:
REMARK  status: ('A' for Active; 'I' for Inactive)
REMARK    1  A    between atoms: C_1  and  C_2 
REMARK    2  A    between atoms: C_1  and  C_7 
REMARK    3  A    between atoms: C_2  and  C_3 
REMARK    4  A    between atoms: C_2  and  O_6 
REMARK    5  A    between atoms: C_3  and  O_5 
REMARK    6  A    between atoms: C_7  and  O_9 
ROOT
HETATM    1  C   UNL     1     -24.293  -3.280 -10.461  1.00  0.00     0.225 C 
ENDROOT
BRANCH   1   2
HETATM    2  C   UNL     1     -23.608  -4.551  -9.976  1.00  0.00     0.152 C 
BRANCH   2   3
HETATM    3  C   UNL     1     -22.959  -4.339  -8.641  1.00  0.00     0.142 C 
HETATM    4  O   UNL     1     -21.750  -4.391  -8.459  1.00  0.00    -0.650 OA
BRANCH   3   5
HETATM    5  O   UNL     1     -23.841  -4.122  -7.646  1.00  0.00    -0.776 OA
HETATM    6  H   UNL     1     -24.366  -3.304  -7.739  1.00  0.00     0.167 HD
ENDBRANCH   3   5
ENDBRANCH   2   3
ENDBRANCH   1   2
BRANCH   1   7
HETATM    7  C   UNL     1     -24.287  -3.157 -11.988  1.00  0.00     0.170 C 
HETATM    8  O   UNL     1     -23.256  -3.304 -12.640  1.00  0.00    -0.648 OA
BRANCH   7   9
HETATM    9  O   UNL     1     -25.474  -2.892 -12.568  1.00  0.00    -0.775 OA
HETATM   10  H   UNL     1     -25.457  -2.177 -13.254  1.00  0.00     0.167 HD
ENDBRANCH   7   9
ENDBRANCH   1   7
BRANCH   1  11
HETATM   11  O   UNL     1     -25.651  -3.347  -9.994  1.00  0.00    -0.384 OA
HETATM   12  H   UNL     1     -25.652  -3.959  -9.227  1.00  0.00     0.210 HD
ENDBRANCH   1  11
TORSDOF 6
ENDMDL
MODEL 9
REMARK VINA RESULT:      -4.2     16.431     17.600
REMARK  6 active torsions:
REMARK  status: ('A' for Active; 'I' for Inactive)
REMARK    1  A    between atoms: C_1  and  C_2 
REMARK    2  A    between atoms: C_1  and  C_7 
REMARK    3  A    between atoms: C_2  and  C_3 
REMARK    4  A    between atoms: C_2  and  O_6 
REMARK    5  A    between atoms: C_3  and  O_5 
REMARK    6  A    between atoms: C_7  and  O_9 
ROOT
HETATM    1  C   UNL     1     -10.957   6.430 -20.072  1.00  0.00     0.225 C 
ENDROOT
BRANCH   1   2
HETATM    2  C   UNL     1     -10.157   7.715 -20.241  1.00  0.00     0.152 C 
BRANCH   2   3
HETATM    3  C   UNL     1     -10.724   8.819 -19.398  1.00  0.00     0.142 C 
HETATM    4  O   UNL     1     -11.505   9.660 -19.819  1.00  0.00    -0.650 OA
BRANCH   3   5
HETATM    5  O   UNL     1     -10.258   8.818 -18.134  1.00  0.00    -0.776 OA
HETATM    6  H   UNL     1     -10.130   7.930 -17.747  1.00  0.00     0.167 HD
ENDBRANCH   3   5
ENDBRANCH   2   3
ENDBRANCH   1   2
BRANCH   1   7
HETATM    7  C   UNL     1     -10.217   5.387 -19.228  1.00  0.00     0.170 C 
HETATM    8  O   UNL     1     -10.178   4.204 -19.556  1.00  0.00    -0.648 OA
BRANCH   7   9
HETATM    9  O   UNL     1      -9.608   5.846 -18.117  1.00  0.00    -0.775 OA
HETATM   10  H   UNL     1      -9.461   6.825 -18.091  1.00  0.00     0.167 HD
ENDBRANCH   7   9
ENDBRANCH   1   7
BRANCH   1  11
HETATM   11  O   UNL     1     -12.180   6.796 -19.413  1.00  0.00    -0.384 OA
HETATM   12  H   UNL     1     -12.701   5.971 -19.312  1.00  0.00     0.210 HD
ENDBRANCH   1  11
TORSDOF 6
ENDMDL
