MODEL 1
REMARK VINA RESULT:      -6.7      0.000      0.000
REMARK  7 active torsions:
REMARK  status: ('A' for Active; 'I' for Inactive)
REMARK    1  A    between atoms: C_2  and  C_3 
REMARK    2  A    between atoms: C_3  and  C_4 
REMARK    3  A    between atoms: C_4  and  O_5 
REMARK    4  A    between atoms: O_5  and  C_6 
REMARK    5  A    between atoms: C_6  and  C_7 
REMARK    6  A    between atoms: C_9  and  O_14 
REMARK    7  A    between atoms: C_10  and  O_13 
ROOT
HETATM    1  C   UNL     1     -21.880  -4.073 -10.001  1.00  0.00    -0.032 A 
HETATM    2  C   UNL     1     -22.525  -3.566 -11.140  1.00  0.00     0.049 A 
HETATM    3  C   UNL     1     -23.899  -3.273 -11.160  1.00  0.00     0.101 A 
HETATM    4  C   UNL     1     -24.628  -3.478  -9.986  1.00  0.00     0.099 A 
HETATM    5  C   UNL     1     -23.992  -3.962  -8.836  1.00  0.00     0.040 A 
HETATM    6  C   UNL     1     -22.629  -4.257  -8.839  1.00  0.00     0.012 A 
ENDROOT
BRANCH   1   7
HETATM    7  C   UNL     1     -20.401  -4.364  -9.999  1.00  0.00     0.206 C 
BRANCH   7   8
HETATM    8  O   UNL     1     -20.054  -5.092  -8.823  1.00  0.00    -0.387 OA
BRANCH   8   9
HETATM    9  C   UNL     1     -19.320  -4.292  -7.905  1.00  0.00     0.168 C 
BRANCH   9  10
HETATM   10  C   UNL     1     -19.647  -4.763  -6.496  1.00  0.00     0.026 C 
BRANCH  10  11
HETATM   11  C   UNL     1     -20.404  -6.086  -6.527  1.00  0.00    -0.002 C 
HETATM   12  C   UNL     1     -21.673  -6.023  -5.700  1.00  0.00     0.005 C 
ENDBRANCH  10  11
ENDBRANCH   9  10
ENDBRANCH   8   9
ENDBRANCH   7   8
ENDBRANCH   1   7
BRANCH   3  13
HETATM   13  O   UNL     1     -24.290  -2.805 -12.380  1.00  0.00    -0.353 OA
HETATM   14  C   UNL     1     -23.369  -2.675 -13.442  1.00  0.00     0.210 C 
ENDBRANCH   3  13
BRANCH   4  15
HETATM   15  O   UNL     1     -25.959  -3.237  -9.804  1.00  0.00    -0.358 OA
HETATM   16  H   UNL     1     -26.075  -2.400  -9.343  1.00  0.00     0.217 HD
ENDBRANCH   4  15
TORSDOF 7
ENDMDL
MODEL 2
REMARK VINA RESULT:      -6.5     11.078     13.843
REMARK  7 active torsions:
REMARK  status: ('A' for Active; 'I' for Inactive)
REMARK    1  A    between atoms: C_2  and  C_3 
REMARK    2  A    between atoms: C_3  and  C_4 
REMARK    3  A    between atoms: C_4  and  O_5 
REMARK    4  A    between atoms: O_5  and  C_6 
REMARK    5  A    between atoms: C_6  and  C_7 
REMARK    6  A    between atoms: C_9  and  O_14 
REMARK    7  A    between atoms: C_10  and  O_13 
ROOT
HETATM    1  C   UNL     1     -35.124  -2.978 -10.847  1.00  0.00    -0.032 A 
HETATM    2  C   UNL     1     -35.328  -4.365 -10.910  1.00  0.00     0.049 A 
HETATM    3  C   UNL     1     -34.314  -5.259 -11.292  1.00  0.00     0.101 A 
HETATM    4  C   UNL     1     -33.056  -4.731 -11.593  1.00  0.00     0.099 A 
HETATM    5  C   UNL     1     -32.834  -3.351 -11.511  1.00  0.00     0.040 A 
HETATM    6  C   UNL     1     -33.856  -2.478 -11.141  1.00  0.00     0.012 A 
ENDROOT
BRANCH   1   7
HETATM    7  C   UNL     1     -36.224  -2.040 -10.419  1.00  0.00     0.206 C 
BRANCH   7   8
HETATM    8  O   UNL     1     -35.757  -0.694 -10.468  1.00  0.00    -0.387 OA
BRANCH   8   9
HETATM    9  C   UNL     1     -36.635   0.142 -11.211  1.00  0.00     0.168 C 
BRANCH   9  10
HETATM   10  C   UNL     1     -36.342  -0.057 -12.691  1.00  0.00     0.026 C 
BRANCH  10  11
HETATM   11  C   UNL     1     -34.951   0.458 -13.045  1.00  0.00    -0.002 C 
HETATM   12  C   UNL     1     -34.913   1.047 -14.441  1.00  0.00     0.005 C 
ENDBRANCH  10  11
ENDBRANCH   9  10
ENDBRANCH   8   9
ENDBRANCH   7   8
ENDBRANCH   1   7
BRANCH   3  13
HETATM   13  O   UNL     1     -34.760  -6.549 -11.287  1.00  0.00    -0.353 OA
HETATM   14  C   UNL     1     -34.724  -7.329 -10.112  1.00  0.00     0.210 C 
ENDBRANCH   3  13
BRANCH   4  15
HETATM   15  O   UNL     1     -31.947  -5.434 -11.964  1.00  0.00    -0.358 OA
HETATM   16  H   UNL     1     -31.184  -5.115 -11.471  1.00  0.00     0.217 HD
ENDBRANCH   4  15
TORSDOF 7
ENDMDL
MODEL 3
REMARK VINA RESULT:      -6.5     11.172     13.852
REMARK  7 active torsions:
REMARK  status: ('A' for Active; 'I' for Inactive)
REMARK    1  A    between atoms: C_2  and  C_3 
REMARK    2  A    between atoms: C_3  and  C_4 
REMARK    3  A    between atoms: C_4  and  O_5 
REMARK    4  A    between atoms: O_5  and  C_6 
REMARK    5  A    between atoms: C_6  and  C_7 
REMARK    6  A    between atoms: C_9  and  O_14 
REMARK    7  A    between atoms: C_10  and  O_13 
ROOT
HETATM    1  C   UNL     1     -35.243  -2.748 -10.841  1.00  0.00    -0.032 A 
HETATM    2  C   UNL     1     -35.430  -4.136 -10.945  1.00  0.00     0.049 A 
HETATM    3  C   UNL     1     -34.399  -5.008 -11.331  1.00  0.00     0.101 A 
HETATM    4  C   UNL     1     -33.141  -4.459 -11.591  1.00  0.00     0.099 A 
HETATM    5  C   UNL     1     -32.936  -3.079 -11.467  1.00  0.00     0.040 A 
HETATM    6  C   UNL     1     -33.975  -2.227 -11.095  1.00  0.00     0.012 A 
ENDROOT
BRANCH   1   7
HETATM    7  C   UNL     1     -36.362  -1.834 -10.409  1.00  0.00     0.206 C 
BRANCH   7   8
HETATM    8  O   UNL     1     -35.829  -0.731  -9.679  1.00  0.00    -0.387 OA
BRANCH   8   9
HETATM    9  C   UNL     1     -36.851   0.020  -9.036  1.00  0.00     0.168 C 
BRANCH   9  10
HETATM   10  C   UNL     1     -36.369   0.379  -7.639  1.00  0.00     0.026 C 
BRANCH  10  11
HETATM   11  C   UNL     1     -37.546   0.636  -6.706  1.00  0.00    -0.002 C 
HETATM   12  C   UNL     1     -37.107   0.698  -5.256  1.00  0.00     0.005 C 
ENDBRANCH  10  11
ENDBRANCH   9  10
ENDBRANCH   8   9
ENDBRANCH   7   8
ENDBRANCH   1   7
BRANCH   3  13
HETATM   13  O   UNL     1     -34.831  -6.302 -11.371  1.00  0.00    -0.353 OA
HETATM   14  C   UNL     1     -34.716  -7.145 -10.244  1.00  0.00     0.210 C 
ENDBRANCH   3  13
BRANCH   4  15
HETATM   15  O   UNL     1     -32.017  -5.140 -11.958  1.00  0.00    -0.358 OA
HETATM   16  H   UNL     1     -32.249  -6.048 -12.179  1.00  0.00     0.217 HD
ENDBRANCH   4  15
TORSDOF 7
ENDMDL
MODEL 4
REMARK VINA RESULT:      -6.3      1.571      3.035
REMARK  7 active torsions:
REMARK  status: ('A' for Active; 'I' for Inactive)
REMARK    1  A    between atoms: C_2  and  C_3 
REMARK    2  A    between atoms: C_3  and  C_4 
REMARK    3  A    between atoms: C_4  and  O_5 
REMARK    4  A    between atoms: O_5  and  C_6 
REMARK    5  A    between atoms: C_6  and  C_7 
REMARK    6  A    between atoms: C_9  and  O_14 
REMARK    7  A    between atoms: C_10  and  O_13 
ROOT
HETATM    1  C   UNL     1     -21.268  -4.638  -8.735  1.00  0.00    -0.032 A 
HETATM    2  C   UNL     1     -22.537  -4.296  -9.228  1.00  0.00     0.049 A 
HETATM    3  C   UNL     1     -22.753  -3.939 -10.570  1.00  0.00     0.101 A 
HETATM    4  C   UNL     1     -21.656  -3.956 -11.435  1.00  0.00     0.099 A 
HETATM    5  C   UNL     1     -20.389  -4.318 -10.960  1.00  0.00     0.040 A 
HETATM    6  C   UNL     1     -20.192  -4.658  -9.622  1.00  0.00     0.012 A 
ENDROOT
BRANCH   1   7
HETATM    7  C   UNL     1     -21.065  -5.033  -7.294  1.00  0.00     0.206 C 
BRANCH   7   8
HETATM    8  O   UNL     1     -20.401  -6.294  -7.229  1.00  0.00    -0.387 OA
BRANCH   8   9
HETATM    9  C   UNL     1     -20.228  -6.730  -5.886  1.00  0.00     0.168 C 
BRANCH   9  10
HETATM   10  C   UNL     1     -21.032  -5.810  -4.980  1.00  0.00     0.026 C 
BRANCH  10  11
HETATM   11  C   UNL     1     -21.910  -6.613  -4.028  1.00  0.00    -0.002 C 
HETATM   12  C   UNL     1     -21.727  -6.170  -2.590  1.00  0.00     0.005 C 
ENDBRANCH  10  11
ENDBRANCH   9  10
ENDBRANCH   8   9
ENDBRANCH   7   8
ENDBRANCH   1   7
BRANCH   3  13
HETATM   13  O   UNL     1     -24.063  -3.638 -10.800  1.00  0.00    -0.353 OA
HETATM   14  C   UNL     1     -24.934  -3.306  -9.739  1.00  0.00     0.210 C 
ENDBRANCH   3  13
BRANCH   4  15
HETATM   15  O   UNL     1     -21.667  -3.660 -12.767  1.00  0.00    -0.358 OA
HETATM   16  H   UNL     1     -20.785  -3.783 -13.131  1.00  0.00     0.217 HD
ENDBRANCH   4  15
TORSDOF 7
ENDMDL
MODEL 5
REMARK VINA RESULT:      -5.8     11.407     13.771
REMARK  7 active torsions:
REMARK  status: ('A' for Active; 'I' for Inactive)
REMARK    1  A    between atoms: C_2  and  C_3 
REMARK    2  A    between atoms: C_3  and  C_4 
REMARK    3  A    between atoms: C_4  and  O_5 
REMARK    4  A    between atoms: O_5  and  C_6 
REMARK    5  A    between atoms: C_6  and  C_7 
REMARK    6  A    between atoms: C_9  and  O_14 
REMARK    7  A    between atoms: C_10  and  O_13 
ROOT
HETATM    1  C   UNL     1     -34.748  -1.498 -12.181  1.00  0.00    -0.032 A 
HETATM    2  C   UNL     1     -34.901  -2.461 -13.191  1.00  0.00     0.049 A 
HETATM    3  C   UNL     1     -34.196  -3.676 -13.186  1.00  0.00     0.101 A 
HETATM    4  C   UNL     1     -33.333  -3.927 -12.117  1.00  0.00     0.099 A 
HETATM    5  C   UNL     1     -33.189  -2.984 -11.091  1.00  0.00     0.040 A 
HETATM    6  C   UNL     1     -33.890  -1.778 -11.119  1.00  0.00     0.012 A 
ENDROOT
BRANCH   1   7
HETATM    7  C   UNL     1     -35.529  -0.208 -12.200  1.00  0.00     0.206 C 
BRANCH   7   8
HETATM    8  O   UNL     1     -35.787   0.219 -10.864  1.00  0.00    -0.387 OA
BRANCH   8   9
HETATM    9  C   UNL     1     -37.101  -0.127 -10.444  1.00  0.00     0.168 C 
BRANCH   9  10
HETATM   10  C   UNL     1     -37.075  -0.350  -8.940  1.00  0.00     0.026 C 
BRANCH  10  11
HETATM   11  C   UNL     1     -36.907   0.970  -8.195  1.00  0.00    -0.002 C 
HETATM   12  C   UNL     1     -36.979   0.777  -6.693  1.00  0.00     0.005 C 
ENDBRANCH  10  11
ENDBRANCH   9  10
ENDBRANCH   8   9
ENDBRANCH   7   8
ENDBRANCH   1   7
BRANCH   3  13
HETATM   13  O   UNL     1     -34.506  -4.435 -14.276  1.00  0.00    -0.353 OA
HETATM   14  C   UNL     1     -34.064  -4.074 -15.568  1.00  0.00     0.210 C 
ENDBRANCH   3  13
BRANCH   4  15
HETATM   15  O   UNL     1     -32.580  -5.048 -11.926  1.00  0.00    -0.358 OA
HETATM   16  H   UNL     1     -32.363  -5.439 -12.779  1.00  0.00     0.217 HD
ENDBRANCH   4  15
TORSDOF 7
ENDMDL
MODEL 6
REMARK VINA RESULT:      -5.7     13.133     14.972
REMARK  7 active torsions:
REMARK  status: ('A' for Active; 'I' for Inactive)
REMARK    1  A    between atoms: C_2  and  C_3 
REMARK    2  A    between atoms: C_3  and  C_4 
REMARK    3  A    between atoms: C_4  and  O_5 
REMARK    4  A    between atoms: O_5  and  C_6 
REMARK    5  A    between atoms: C_6  and  C_7 
REMARK    6  A    between atoms: C_9  and  O_14 
REMARK    7  A    between atoms: C_10  and  O_13 
ROOT
HETATM    1  C   UNL     1     -36.768  -0.715 -11.139  1.00  0.00    -0.032 A 
HETATM    2  C   UNL     1     -36.206  -0.364 -12.377  1.00  0.00     0.049 A 
HETATM    3  C   UNL     1     -35.201  -1.129 -12.992  1.00  0.00     0.101 A 
HETATM    4  C   UNL     1     -34.776  -2.291 -12.344  1.00  0.00     0.099 A 
HETATM    5  C   UNL     1     -35.345  -2.665 -11.121  1.00  0.00     0.040 A 
HETATM    6  C   UNL     1     -36.334  -1.887 -10.520  1.00  0.00     0.012 A 
ENDROOT
BRANCH   1   7
HETATM    7  C   UNL     1     -37.857   0.113 -10.507  1.00  0.00     0.206 C 
BRANCH   7   8
HETATM    8  O   UNL     1     -37.736   0.067  -9.087  1.00  0.00    -0.387 OA
BRANCH   8   9
HETATM    9  C   UNL     1     -37.822   1.363  -8.508  1.00  0.00     0.168 C 
BRANCH   9  10
HETATM   10  C   UNL     1     -37.110   1.330  -7.164  1.00  0.00     0.026 C 
BRANCH  10  11
HETATM   11  C   UNL     1     -37.731   0.286  -6.243  1.00  0.00    -0.002 C 
HETATM   12  C   UNL     1     -37.214   0.414  -4.824  1.00  0.00     0.005 C 
ENDBRANCH  10  11
ENDBRANCH   9  10
ENDBRANCH   8   9
ENDBRANCH   7   8
ENDBRANCH   1   7
BRANCH   3  13
HETATM   13  O   UNL     1     -34.811  -0.577 -14.177  1.00  0.00    -0.353 OA
HETATM   14  C   UNL     1     -35.330   0.662 -14.611  1.00  0.00     0.210 C 
ENDBRANCH   3  13
BRANCH   4  15
HETATM   15  O   UNL     1     -33.829  -3.169 -12.788  1.00  0.00    -0.358 OA
HETATM   16  H   UNL     1     -33.001  -3.012 -12.322  1.00  0.00     0.217 HD
ENDBRANCH   4  15
TORSDOF 7
ENDMDL
MODEL 7
REMARK VINA RESULT:      -5.7     11.143     13.916
REMARK  7 active torsions:
REMARK  status: ('A' for Active; 'I' for Inactive)
REMARK    1  A    between atoms: C_2  and  C_3 
REMARK    2  A    between atoms: C_3  and  C_4 
REMARK    3  A    between atoms: C_4  and  O_5 
REMARK    4  A    between atoms: O_5  and  C_6 
REMARK    5  A    between atoms: C_6  and  C_7 
REMARK    6  A    between atoms: C_9  and  O_14 
REMARK    7  A    between atoms: C_10  and  O_13 
ROOT
HETATM    1  C   UNL     1     -34.686  -1.678 -11.852  1.00  0.00    -0.032 A 
HETATM    2  C   UNL     1     -34.913  -2.555 -12.924  1.00  0.00     0.049 A 
HETATM    3  C   UNL     1     -34.140  -3.711 -13.129  1.00  0.00     0.101 A 
HETATM    4  C   UNL     1     -33.130  -3.993 -12.206  1.00  0.00     0.099 A 
HETATM    5  C   UNL     1     -32.909  -3.138 -11.119  1.00  0.00     0.040 A 
HETATM    6  C   UNL     1     -33.679  -1.989 -10.939  1.00  0.00     0.012 A 
ENDROOT
BRANCH   1   7
HETATM    7  C   UNL     1     -35.540  -0.453 -11.645  1.00  0.00     0.206 C 
BRANCH   7   8
HETATM    8  O   UNL     1     -35.931   0.082 -12.908  1.00  0.00    -0.387 OA
BRANCH   8   9
HETATM    9  C   UNL     1     -34.904   0.877 -13.485  1.00  0.00     0.168 C 
BRANCH   9  10
HETATM   10  C   UNL     1     -34.984   0.732 -14.997  1.00  0.00     0.026 C 
BRANCH  10  11
HETATM   11  C   UNL     1     -36.170  -0.137 -15.399  1.00  0.00    -0.002 C 
HETATM   12  C   UNL     1     -35.858  -0.976 -16.624  1.00  0.00     0.005 C 
ENDBRANCH  10  11
ENDBRANCH   9  10
ENDBRANCH   8   9
ENDBRANCH   7   8
ENDBRANCH   1   7
BRANCH   3  13
HETATM   13  O   UNL     1     -34.546  -4.390 -14.241  1.00  0.00    -0.353 OA
HETATM   14  C   UNL     1     -34.040  -4.066 -15.518  1.00  0.00     0.210 C 
ENDBRANCH   3  13
BRANCH   4  15
HETATM   15  O   UNL     1     -32.291  -5.069 -12.224  1.00  0.00    -0.358 OA
HETATM   16  H   UNL     1     -32.148  -5.351 -13.133  1.00  0.00     0.217 HD
ENDBRANCH   4  15
TORSDOF 7
ENDMDL
MODEL 8
REMARK VINA RESULT:      -5.6      1.317      2.637
REMARK  7 active torsions:
REMARK  status: ('A' for Active; 'I' for Inactive)
REMARK    1  A    between atoms: C_2  and  C_3 
REMARK    2  A    between atoms: C_3  and  C_4 
REMARK    3  A    between atoms: C_4  and  O_5 
REMARK    4  A    between atoms: O_5  and  C_6 
REMARK    5  A    between atoms: C_6  and  C_7 
REMARK    6  A    between atoms: C_9  and  O_14 
REMARK    7  A    between atoms: C_10  and  O_13 
ROOT
HETATM    1  C   UNL     1     -21.739  -3.852 -10.429  1.00  0.00    -0.032 A 
HETATM    2  C   UNL     1     -23.121  -3.669 -10.266  1.00  0.00     0.049 A 
HETATM    3  C   UNL     1     -23.960  -3.280 -11.324  1.00  0.00     0.101 A 
HETATM    4  C   UNL     1     -23.383  -3.099 -12.582  1.00  0.00     0.099 A 
HETATM    5  C   UNL     1     -22.009  -3.301 -12.764  1.00  0.00     0.040 A 
HETATM    6  C   UNL     1     -21.190  -3.676 -11.699  1.00  0.00     0.012 A 
ENDROOT
BRANCH   1   7
HETATM    7  C   UNL     1     -20.863  -4.286  -9.282  1.00  0.00     0.206 C 
BRANCH   7   8
HETATM    8  O   UNL     1     -21.370  -3.754  -8.060  1.00  0.00    -0.387 OA
BRANCH   8   9
HETATM    9  C   UNL     1     -21.931  -4.768  -7.236  1.00  0.00     0.168 C 
BRANCH   9  10
HETATM   10  C   UNL     1     -20.945  -5.924  -7.167  1.00  0.00     0.026 C 
BRANCH  10  11
HETATM   11  C   UNL     1     -20.379  -6.075  -5.759  1.00  0.00    -0.002 C 
HETATM   12  C   UNL     1     -20.025  -4.732  -5.152  1.00  0.00     0.005 C 
ENDBRANCH  10  11
ENDBRANCH   9  10
ENDBRANCH   8   9
ENDBRANCH   7   8
ENDBRANCH   1   7
BRANCH   3  13
HETATM   13  O   UNL     1     -25.255  -3.157 -10.912  1.00  0.00    -0.353 OA
HETATM   14  C   UNL     1     -25.588  -3.159  -9.540  1.00  0.00     0.210 C 
ENDBRANCH   3  13
BRANCH   4  15
HETATM   15  O   UNL     1     -24.030  -2.742 -13.730  1.00  0.00    -0.358 OA
HETATM   16  H   UNL     1     -24.615  -3.456 -14.005  1.00  0.00     0.217 HD
ENDBRANCH   4  15
TORSDOF 7
ENDMDL
MODEL 9
REMARK VINA RESULT:      -5.5      3.162      5.364
REMARK  7 active torsions:
REMARK  status: ('A' for Active; 'I' for Inactive)
REMARK    1  A    between atoms: C_2  and  C_3 
REMARK    2  A    between atoms: C_3  and  C_4 
REMARK    3  A    between atoms: C_4  and  O_5 
REMARK    4  A    between atoms: O_5  and  C_6 
REMARK    5  A    between atoms: C_6  and  C_7 
REMARK    6  A    between atoms: C_9  and  O_14 
REMARK    7  A    between atoms: C_10  and  O_13 
ROOT
HETATM    1  C   UNL     1     -21.380  -6.069  -5.589  1.00  0.00    -0.032 A 
HETATM    2  C   UNL     1     -22.315  -5.363  -6.362  1.00  0.00     0.049 A 
HETATM    3  C   UNL     1     -21.947  -4.617  -7.494  1.00  0.00     0.101 A 
HETATM    4  C   UNL     1     -20.600  -4.611  -7.863  1.00  0.00     0.099 A 
HETATM    5  C   UNL     1     -19.661  -5.330  -7.114  1.00  0.00     0.040 A 
HETATM    6  C   UNL     1     -20.043  -6.055  -5.986  1.00  0.00     0.012 A 
ENDROOT
BRANCH   1   7
HETATM    7  C   UNL     1     -21.802  -6.875  -4.387  1.00  0.00     0.206 C 
BRANCH   7   8
HETATM    8  O   UNL     1     -22.526  -6.047  -3.481  1.00  0.00    -0.387 OA
BRANCH   8   9
HETATM    9  C   UNL     1     -22.042  -6.171  -2.149  1.00  0.00     0.168 C 
BRANCH   9  10
HETATM   10  C   UNL     1     -21.142  -7.396  -2.084  1.00  0.00     0.026 C 
BRANCH  10  11
HETATM   11  C   UNL     1     -21.294  -8.113  -0.748  1.00  0.00    -0.002 C 
HETATM   12  C   UNL     1     -22.599  -7.753  -0.065  1.00  0.00     0.005 C 
ENDBRANCH  10  11
ENDBRANCH   9  10
ENDBRANCH   8   9
ENDBRANCH   7   8
ENDBRANCH   1   7
BRANCH   3  13
HETATM   13  O   UNL     1     -23.029  -4.014  -8.066  1.00  0.00    -0.353 OA
HETATM   14  C   UNL     1     -23.433  -4.333  -9.381  1.00  0.00     0.210 C 
ENDBRANCH   3  13
BRANCH   4  15
HETATM   15  O   UNL     1     -20.053  -3.965  -8.934  1.00  0.00    -0.358 OA
HETATM   16  H   UNL     1     -19.695  -3.118  -8.650  1.00  0.00     0.217 HD
ENDBRANCH   4  15
TORSDOF 7
ENDMDL
