MODEL 1
REMARK VINA RESULT:      -5.4      0.000      0.000
REMARK  5 active torsions:
REMARK  status: ('A' for Active; 'I' for Inactive)
REMARK    1  A    between atoms: CG_2  and  CB_4 
REMARK    2  A    between atoms: CB_4  and  CA_5 
REMARK    3  A    between atoms: CA_5  and  C_6 
REMARK    4  A    between atoms: CA_5  and  N_9 
REMARK    5  A    between atoms: C_6  and  OXT_8 
ROOT
ATOM      1  CA  LEU A   1     -22.878  -3.632 -12.380  1.00  0.00     0.314 C 
ENDROOT
BRANCH   1   2
ATOM      2  CB  LEU A   1     -21.942  -3.185 -11.242  1.00  0.00     0.050 C 
BRANCH   2   3
ATOM      3  CG  LEU A   1     -21.767  -4.209 -10.099  1.00  0.00    -0.020 C 
ATOM      4  CD1 LEU A   1     -20.302  -4.438  -9.729  1.00  0.00     0.009 C 
ATOM      5  CD2 LEU A   1     -22.533  -3.750  -8.853  1.00  0.00     0.009 C 
ENDBRANCH   2   3
ENDBRANCH   1   2
BRANCH   1   6
ATOM      6  C   LEU A   1     -24.287  -3.021 -12.267  1.00  0.00     0.173 C 
ATOM      7  O   LEU A   1     -25.026  -3.133 -11.300  1.00  0.00    -0.648 OA
BRANCH   6   8
ATOM      8  OXT LEU A   1     -24.601  -2.232 -13.326  1.00  0.00    -0.775 OA
ATOM      9  HXT LEU A   1     -24.633  -2.714 -14.175  1.00  0.00     0.167 HD
ENDBRANCH   6   8
ENDBRANCH   1   6
BRANCH   1  10
ATOM     10  N   LEU A   1     -22.297  -3.244 -13.684  1.00  0.00     0.093 N 
ATOM     11  H1  LEU A   1     -22.069  -4.100 -14.199  1.00  0.00     0.314 HD
ATOM     12  H2  LEU A   1     -21.402  -2.775 -13.548  1.00  0.00     0.314 HD
ENDBRANCH   1  10
TORSDOF 5
ENDMDL
MODEL 2
REMARK VINA RESULT:      -5.4      1.730      2.071
REMARK  5 active torsions:
REMARK  status: ('A' for Active; 'I' for Inactive)
REMARK    1  A    between atoms: CG_2  and  CB_4 
REMARK    2  A    between atoms: CB_4  and  CA_5 
REMARK    3  A    between atoms: CA_5  and  C_6 
REMARK    4  A    between atoms: CA_5  and  N_9 
REMARK    5  A    between atoms: C_6  and  OXT_8 
ROOT
ATOM      1  CA  LEU A   1     -23.575  -2.921 -12.913  1.00  0.00     0.314 C 
ENDROOT
BRANCH   1   2
ATOM      2  CB  LEU A   1     -22.331  -2.725 -12.026  1.00  0.00     0.050 C 
BRANCH   2   3
ATOM      3  CG  LEU A   1     -21.970  -3.931 -11.131  1.00  0.00    -0.020 C 
ATOM      4  CD1 LEU A   1     -20.463  -4.160 -11.029  1.00  0.00     0.009 C 
ATOM      5  CD2 LEU A   1     -22.544  -3.738  -9.723  1.00  0.00     0.009 C 
ENDBRANCH   2   3
ENDBRANCH   1   2
BRANCH   1   6
ATOM      6  C   LEU A   1     -23.426  -2.263 -14.298  1.00  0.00     0.173 C 
ATOM      7  O   LEU A   1     -22.689  -2.659 -15.189  1.00  0.00    -0.648 OA
BRANCH   6   8
ATOM      8  OXT LEU A   1     -24.292  -1.234 -14.483  1.00  0.00    -0.775 OA
ATOM      9  HXT LEU A   1     -24.804  -1.300 -15.312  1.00  0.00     0.167 HD
ENDBRANCH   6   8
ENDBRANCH   1   6
BRANCH   1  10
ATOM     10  N   LEU A   1     -23.830  -4.366 -13.101  1.00  0.00     0.093 N 
ATOM     11  H1  LEU A   1     -24.174  -4.508 -14.055  1.00  0.00     0.314 HD
ATOM     12  H2  LEU A   1     -24.596  -4.671 -12.500  1.00  0.00     0.314 HD
ENDBRANCH   1  10
TORSDOF 5
ENDMDL
MODEL 3
REMARK VINA RESULT:      -5.1      2.026      2.297
REMARK  5 active torsions:
REMARK  status: ('A' for Active; 'I' for Inactive)
REMARK    1  A    between atoms: CG_2  and  CB_4 
REMARK    2  A    between atoms: CB_4  and  CA_5 
REMARK    3  A    between atoms: CA_5  and  C_6 
REMARK    4  A    between atoms: CA_5  and  N_9 
REMARK    5  A    between atoms: C_6  and  OXT_8 
ROOT
ATOM      1  CA  LEU A   1     -24.018  -3.308 -10.487  1.00  0.00     0.314 C 
ENDROOT
BRANCH   1   2
ATOM      2  CB  LEU A   1     -23.001  -4.446 -10.275  1.00  0.00     0.050 C 
BRANCH   2   3
ATOM      3  CG  LEU A   1     -21.589  -3.989  -9.846  1.00  0.00    -0.020 C 
ATOM      4  CD1 LEU A   1     -21.088  -4.712  -8.597  1.00  0.00     0.009 C 
ATOM      5  CD2 LEU A   1     -20.591  -4.210 -10.988  1.00  0.00     0.009 C 
ENDBRANCH   2   3
ENDBRANCH   1   2
BRANCH   1   6
ATOM      6  C   LEU A   1     -24.216  -2.960 -11.974  1.00  0.00     0.173 C 
ATOM      7  O   LEU A   1     -25.201  -3.247 -12.638  1.00  0.00    -0.648 OA
BRANCH   6   8
ATOM      8  OXT LEU A   1     -23.214  -2.188 -12.468  1.00  0.00    -0.775 OA
ATOM      9  HXT LEU A   1     -23.421  -1.234 -12.470  1.00  0.00     0.167 HD
ENDBRANCH   6   8
ENDBRANCH   1   6
BRANCH   1  10
ATOM     10  N   LEU A   1     -25.325  -3.694  -9.913  1.00  0.00     0.093 N 
ATOM     11  H1  LEU A   1     -25.716  -4.446 -10.488  1.00  0.00     0.314 HD
ATOM     12  H2  LEU A   1     -25.991  -2.926 -10.000  1.00  0.00     0.314 HD
ENDBRANCH   1  10
TORSDOF 5
ENDMDL
MODEL 4
REMARK VINA RESULT:      -4.9      3.091      3.493
REMARK  5 active torsions:
REMARK  status: ('A' for Active; 'I' for Inactive)
REMARK    1  A    between atoms: CG_2  and  CB_4 
REMARK    2  A    between atoms: CB_4  and  CA_5 
REMARK    3  A    between atoms: CA_5  and  C_6 
REMARK    4  A    between atoms: CA_5  and  N_9 
REMARK    5  A    between atoms: C_6  and  OXT_8 
ROOT
ATOM      1  CA  LEU A   1     -23.169  -4.036  -8.762  1.00  0.00     0.314 C 
ENDROOT
BRANCH   1   2
ATOM      2  CB  LEU A   1     -21.875  -4.871  -8.757  1.00  0.00     0.050 C 
BRANCH   2   3
ATOM      3  CG  LEU A   1     -20.596  -4.096  -9.141  1.00  0.00    -0.020 C 
ATOM      4  CD1 LEU A   1     -19.473  -4.264  -8.117  1.00  0.00     0.009 C 
ATOM      5  CD2 LEU A   1     -20.092  -4.550 -10.516  1.00  0.00     0.009 C 
ENDBRANCH   2   3
ENDBRANCH   1   2
BRANCH   1   6
ATOM      6  C   LEU A   1     -24.132  -4.439  -9.894  1.00  0.00     0.173 C 
ATOM      7  O   LEU A   1     -23.841  -5.150 -10.844  1.00  0.00    -0.648 OA
BRANCH   6   8
ATOM      8  OXT LEU A   1     -25.401  -4.007  -9.680  1.00  0.00    -0.775 OA
ATOM      9  HXT LEU A   1     -25.817  -3.611 -10.469  1.00  0.00     0.167 HD
ENDBRANCH   6   8
ENDBRANCH   1   6
BRANCH   1  10
ATOM     10  N   LEU A   1     -23.868  -4.193  -7.468  1.00  0.00     0.093 N 
ATOM     11  H1  LEU A   1     -24.675  -3.561  -7.463  1.00  0.00     0.314 HD
ATOM     12  H2  LEU A   1     -23.277  -3.866  -6.703  1.00  0.00     0.314 HD
ENDBRANCH   1  10
TORSDOF 5
ENDMDL
MODEL 5
REMARK VINA RESULT:      -4.7      1.838      2.407
REMARK  5 active torsions:
REMARK  status: ('A' for Active; 'I' for Inactive)
REMARK    1  A    between atoms: CG_2  and  CB_4 
REMARK    2  A    between atoms: CB_4  and  CA_5 
REMARK    3  A    between atoms: CA_5  and  C_6 
REMARK    4  A    between atoms: CA_5  and  N_9 
REMARK    5  A    between atoms: C_6  and  OXT_8 
ROOT
ATOM      1  CA  LEU A   1     -23.257  -3.237 -11.257  1.00  0.00     0.314 C 
ENDROOT
BRANCH   1   2
ATOM      2  CB  LEU A   1     -22.627  -4.362 -10.414  1.00  0.00     0.050 C 
BRANCH   2   3
ATOM      3  CG  LEU A   1     -21.680  -3.885  -9.292  1.00  0.00    -0.020 C 
ATOM      4  CD1 LEU A   1     -22.201  -4.223  -7.895  1.00  0.00     0.009 C 
ATOM      5  CD2 LEU A   1     -20.289  -4.505  -9.471  1.00  0.00     0.009 C 
ENDBRANCH   2   3
ENDBRANCH   1   2
BRANCH   1   6
ATOM      6  C   LEU A   1     -22.823  -3.288 -12.734  1.00  0.00     0.173 C 
ATOM      7  O   LEU A   1     -23.509  -2.931 -13.681  1.00  0.00    -0.648 OA
BRANCH   6   8
ATOM      8  OXT LEU A   1     -21.532  -3.679 -12.887  1.00  0.00    -0.775 OA
ATOM      9  HXT LEU A   1     -21.427  -4.644 -12.997  1.00  0.00     0.167 HD
ENDBRANCH   6   8
ENDBRANCH   1   6
BRANCH   1  10
ATOM     10  N   LEU A   1     -24.731  -3.333 -11.193  1.00  0.00     0.093 N 
ATOM     11  H1  LEU A   1     -24.980  -4.309 -11.010  1.00  0.00     0.314 HD
ATOM     12  H2  LEU A   1     -25.140  -3.127 -12.105  1.00  0.00     0.314 HD
ENDBRANCH   1  10
TORSDOF 5
ENDMDL
MODEL 6
REMARK VINA RESULT:      -4.6      1.641      1.751
REMARK  5 active torsions:
REMARK  status: ('A' for Active; 'I' for Inactive)
REMARK    1  A    between atoms: CG_2  and  CB_4 
REMARK    2  A    between atoms: CB_4  and  CA_5 
REMARK    3  A    between atoms: CA_5  and  C_6 
REMARK    4  A    between atoms: CA_5  and  N_9 
REMARK    5  A    between atoms: C_6  and  OXT_8 
ROOT
ATOM      1  CA  LEU A   1     -22.027  -4.405 -11.507  1.00  0.00     0.314 C 
ENDROOT
BRANCH   1   2
ATOM      2  CB  LEU A   1     -21.654  -3.584 -10.257  1.00  0.00     0.050 C 
BRANCH   2   3
ATOM      3  CG  LEU A   1     -21.320  -4.421  -9.003  1.00  0.00    -0.020 C 
ATOM      4  CD1 LEU A   1     -19.922  -4.133  -8.457  1.00  0.00     0.009 C 
ATOM      5  CD2 LEU A   1     -22.352  -4.159  -7.900  1.00  0.00     0.009 C 
ENDBRANCH   2   3
ENDBRANCH   1   2
BRANCH   1   6
ATOM      6  C   LEU A   1     -23.526  -4.754 -11.562  1.00  0.00     0.173 C 
ATOM      7  O   LEU A   1     -24.387  -4.272 -10.841  1.00  0.00    -0.648 OA
BRANCH   6   8
ATOM      8  OXT LEU A   1     -23.830  -5.592 -12.586  1.00  0.00    -0.775 OA
ATOM      9  HXT LEU A   1     -24.570  -5.279 -13.140  1.00  0.00     0.167 HD
ENDBRANCH   6   8
ENDBRANCH   1   6
BRANCH   1  10
ATOM     10  N   LEU A   1     -21.673  -3.645 -12.725  1.00  0.00     0.093 N 
ATOM     11  H1  LEU A   1     -22.369  -3.857 -13.446  1.00  0.00     0.314 HD
ATOM     12  H2  LEU A   1     -20.790  -3.982 -13.109  1.00  0.00     0.314 HD
ENDBRANCH   1  10
TORSDOF 5
ENDMDL
MODEL 7
REMARK VINA RESULT:      -4.5      2.684      3.165
REMARK  5 active torsions:
REMARK  status: ('A' for Active; 'I' for Inactive)
REMARK    1  A    between atoms: CG_2  and  CB_4 
REMARK    2  A    between atoms: CB_4  and  CA_5 
REMARK    3  A    between atoms: CA_5  and  C_6 
REMARK    4  A    between atoms: CA_5  and  N_9 
REMARK    5  A    between atoms: C_6  and  OXT_8 
ROOT
ATOM      1  CA  LEU A   1     -22.224  -3.584 -11.585  1.00  0.00     0.314 C 
ENDROOT
BRANCH   1   2
ATOM      2  CB  LEU A   1     -23.051  -4.771 -11.056  1.00  0.00     0.050 C 
BRANCH   2   3
ATOM      3  CG  LEU A   1     -23.892  -4.473  -9.796  1.00  0.00    -0.020 C 
ATOM      4  CD1 LEU A   1     -23.032  -4.218  -8.558  1.00  0.00     0.009 C 
ATOM      5  CD2 LEU A   1     -24.795  -3.257 -10.036  1.00  0.00     0.009 C 
ENDBRANCH   2   3
ENDBRANCH   1   2
BRANCH   1   6
ATOM      6  C   LEU A   1     -20.741  -3.664 -11.176  1.00  0.00     0.173 C 
ATOM      7  O   LEU A   1     -20.181  -4.666 -10.757  1.00  0.00    -0.648 OA
BRANCH   6   8
ATOM      8  OXT LEU A   1     -20.066  -2.514 -11.431  1.00  0.00    -0.775 OA
ATOM      9  HXT LEU A   1     -19.595  -2.158 -10.653  1.00  0.00     0.167 HD
ENDBRANCH   6   8
ENDBRANCH   1   6
BRANCH   1  10
ATOM     10  N   LEU A   1     -22.307  -3.537 -13.061  1.00  0.00     0.093 N 
ATOM     11  H1  LEU A   1     -23.296  -3.515 -13.324  1.00  0.00     0.314 HD
ATOM     12  H2  LEU A   1     -21.948  -4.403 -13.463  1.00  0.00     0.314 HD
ENDBRANCH   1  10
TORSDOF 5
ENDMDL
MODEL 8
REMARK VINA RESULT:      -4.4      2.070      2.600
REMARK  5 active torsions:
REMARK  status: ('A' for Active; 'I' for Inactive)
REMARK    1  A    between atoms: CG_2  and  CB_4 
REMARK    2  A    between atoms: CB_4  and  CA_5 
REMARK    3  A    between atoms: CA_5  and  C_6 
REMARK    4  A    between atoms: CA_5  and  N_9 
REMARK    5  A    between atoms: C_6  and  OXT_8 
ROOT
ATOM      1  CA  LEU A   1     -23.417  -4.423 -10.246  1.00  0.00     0.314 C 
ENDROOT
BRANCH   1   2
ATOM      2  CB  LEU A   1     -22.398  -4.480 -11.400  1.00  0.00     0.050 C 
BRANCH   2   3
ATOM      3  CG  LEU A   1     -20.933  -4.208 -10.993  1.00  0.00    -0.020 C 
ATOM      4  CD1 LEU A   1     -20.485  -2.784 -11.317  1.00  0.00     0.009 C 
ATOM      5  CD2 LEU A   1     -20.743  -4.464  -9.493  1.00  0.00     0.009 C 
ENDBRANCH   2   3
ENDBRANCH   1   2
BRANCH   1   6
ATOM      6  C   LEU A   1     -24.503  -3.354 -10.465  1.00  0.00     0.173 C 
ATOM      7  O   LEU A   1     -24.952  -3.020 -11.552  1.00  0.00    -0.648 OA
BRANCH   6   8
ATOM      8  OXT LEU A   1     -25.008  -2.875  -9.300  1.00  0.00    -0.775 OA
ATOM      9  HXT LEU A   1     -24.973  -1.902  -9.230  1.00  0.00     0.167 HD
ENDBRANCH   6   8
ENDBRANCH   1   6
BRANCH   1  10
ATOM     10  N   LEU A   1     -24.073  -5.740 -10.094  1.00  0.00     0.093 N 
ATOM     11  H1  LEU A   1     -23.342  -6.449  -9.980  1.00  0.00     0.314 HD
ATOM     12  H2  LEU A   1     -24.554  -5.998 -10.956  1.00  0.00     0.314 HD
ENDBRANCH   1  10
TORSDOF 5
ENDMDL
MODEL 9
REMARK VINA RESULT:      -4.3      4.029      4.927
REMARK  5 active torsions:
REMARK  status: ('A' for Active; 'I' for Inactive)
REMARK    1  A    between atoms: CG_2  and  CB_4 
REMARK    2  A    between atoms: CB_4  and  CA_5 
REMARK    3  A    between atoms: CA_5  and  C_6 
REMARK    4  A    between atoms: CA_5  and  N_9 
REMARK    5  A    between atoms: C_6  and  OXT_8 
ROOT
ATOM      1  CA  LEU A   1     -22.477  -4.723  -8.518  1.00  0.00     0.314 C 
ENDROOT
BRANCH   1   2
ATOM      2  CB  LEU A   1     -21.979  -3.764  -9.615  1.00  0.00     0.050 C 
BRANCH   2   3
ATOM      3  CG  LEU A   1     -22.200  -4.256 -11.063  1.00  0.00    -0.020 C 
ATOM      4  CD1 LEU A   1     -23.563  -4.918 -11.260  1.00  0.00     0.009 C 
ATOM      5  CD2 LEU A   1     -22.062  -3.089 -12.047  1.00  0.00     0.009 C 
ENDBRANCH   2   3
ENDBRANCH   1   2
BRANCH   1   6
ATOM      6  C   LEU A   1     -21.373  -5.101  -7.513  1.00  0.00     0.173 C 
ATOM      7  O   LEU A   1     -20.844  -6.200  -7.431  1.00  0.00    -0.648 OA
BRANCH   6   8
ATOM      8  OXT LEU A   1     -20.953  -4.042  -6.775  1.00  0.00    -0.775 OA
ATOM      9  HXT LEU A   1     -21.367  -3.993  -5.893  1.00  0.00     0.167 HD
ENDBRANCH   6   8
ENDBRANCH   1   6
BRANCH   1  10
ATOM     10  N   LEU A   1     -23.595  -4.096  -7.779  1.00  0.00     0.093 N 
ATOM     11  H1  LEU A   1     -24.256  -3.717  -8.463  1.00  0.00     0.314 HD
ATOM     12  H2  LEU A   1     -23.264  -3.285  -7.258  1.00  0.00     0.314 HD
ENDBRANCH   1  10
TORSDOF 5
ENDMDL
