MODEL 1
REMARK VINA RESULT:      -6.3      0.000      0.000
REMARK  12 active torsions:
REMARK  status: ('A' for Active; 'I' for Inactive)
REMARK    1  A    between atoms: C_2  and  C_3 
REMARK    2  A    between atoms: C_3  and  C_4 
REMARK    3  A    between atoms: C_4  and  C_5 
REMARK    4  A    between atoms: C_5  and  C_6 
REMARK    5  A    between atoms: C_6  and  C_7 
REMARK    6  A    between atoms: C_7  and  C_8 
REMARK    7  A    between atoms: C_8  and  C_9 
REMARK    8  A    between atoms: C_9  and  C_10 
REMARK    9  A    between atoms: C_10  and  C_11 
REMARK   10  A    between atoms: C_11  and  C_12 
REMARK   11  A    between atoms: C_12  and  C_13 
REMARK   12  A    between atoms: C_13  and  C_14 
ROOT
HETATM    1  C   UNL     1     -20.494  -6.996  -5.576  1.00  0.00     0.000 C 
ENDROOT
BRANCH   1   2
HETATM    2  C   UNL     1     -21.577  -6.469  -4.642  1.00  0.00     0.000 C 
BRANCH   2   3
HETATM    3  C   UNL     1     -21.338  -6.944  -3.214  1.00  0.00     0.000 C 
BRANCH   3   4
HETATM    4  C   UNL     1     -22.088  -6.062  -2.223  1.00  0.00     0.000 C 
BRANCH   4   5
HETATM    5  C   UNL     1     -22.384  -6.820  -0.933  1.00  0.00     0.000 C 
BRANCH   5   6
HETATM    6  C   UNL     1     -21.779  -8.219  -0.979  1.00  0.00    -0.000 C 
BRANCH   6   7
HETATM    7  C   UNL     1     -22.096  -8.997   0.296  1.00  0.00    -0.005 C 
HETATM    8  C   UNL     1     -21.021  -8.785   1.348  1.00  0.00     0.005 C 
ENDBRANCH   6   7
ENDBRANCH   5   6
ENDBRANCH   4   5
ENDBRANCH   3   4
ENDBRANCH   2   3
ENDBRANCH   1   2
BRANCH   1   9
HETATM    9  C   UNL     1     -20.089  -5.928  -6.586  1.00  0.00     0.000 C 
BRANCH   9  10
HETATM   10  C   UNL     1     -20.498  -4.546  -6.093  1.00  0.00     0.000 C 
BRANCH  10  11
HETATM   11  C   UNL     1     -21.165  -3.742  -7.204  1.00  0.00     0.000 C 
BRANCH  11  12
HETATM   12  C   UNL     1     -21.494  -4.653  -8.383  1.00  0.00     0.000 C 
BRANCH  12  13
HETATM   13  C   UNL     1     -22.352  -3.932  -9.420  1.00  0.00     0.004 C 
BRANCH  13  14
HETATM   14  C   UNL     1     -21.830  -4.109 -10.856  1.00  0.00    -0.023 C 
HETATM   15  C   UNL     1     -22.190  -2.925 -11.757  1.00  0.00     0.009 C 
HETATM   16  C   UNL     1     -20.313  -4.300 -10.831  1.00  0.00     0.009 C 
ENDBRANCH  13  14
ENDBRANCH  12  13
ENDBRANCH  11  12
ENDBRANCH  10  11
ENDBRANCH   9  10
ENDBRANCH   1   9
TORSDOF 12
ENDMDL
MODEL 2
REMARK VINA RESULT:      -6.2      0.934      9.046
REMARK  12 active torsions:
REMARK  status: ('A' for Active; 'I' for Inactive)
REMARK    1  A    between atoms: C_2  and  C_3 
REMARK    2  A    between atoms: C_3  and  C_4 
REMARK    3  A    between atoms: C_4  and  C_5 
REMARK    4  A    between atoms: C_5  and  C_6 
REMARK    5  A    between atoms: C_6  and  C_7 
REMARK    6  A    between atoms: C_7  and  C_8 
REMARK    7  A    between atoms: C_8  and  C_9 
REMARK    8  A    between atoms: C_9  and  C_10 
REMARK    9  A    between atoms: C_10  and  C_11 
REMARK   10  A    between atoms: C_11  and  C_12 
REMARK   11  A    between atoms: C_12  and  C_13 
REMARK   12  A    between atoms: C_13  and  C_14 
ROOT
HETATM    1  C   UNL     1     -20.598  -6.389  -5.963  1.00  0.00     0.000 C 
ENDROOT
BRANCH   1   2
HETATM    2  C   UNL     1     -20.167  -4.935  -5.826  1.00  0.00     0.000 C 
BRANCH   2   3
HETATM    3  C   UNL     1     -20.721  -4.095  -6.971  1.00  0.00     0.000 C 
BRANCH   3   4
HETATM    4  C   UNL     1     -19.687  -3.956  -8.082  1.00  0.00     0.000 C 
BRANCH   4   5
HETATM    5  C   UNL     1     -20.077  -4.792  -9.298  1.00  0.00     0.000 C 
BRANCH   5   6
HETATM    6  C   UNL     1     -21.320  -4.218  -9.970  1.00  0.00    -0.000 C 
BRANCH   6   7
HETATM    7  C   UNL     1     -20.949  -3.397 -11.202  1.00  0.00    -0.005 C 
HETATM    8  C   UNL     1     -22.182  -3.049 -12.018  1.00  0.00     0.005 C 
ENDBRANCH   6   7
ENDBRANCH   5   6
ENDBRANCH   4   5
ENDBRANCH   3   4
ENDBRANCH   2   3
ENDBRANCH   1   2
BRANCH   1   9
HETATM    9  C   UNL     1     -21.742  -6.703  -5.007  1.00  0.00     0.000 C 
BRANCH   9  10
HETATM   10  C   UNL     1     -21.204  -7.009  -3.615  1.00  0.00     0.000 C 
BRANCH  10  11
HETATM   11  C   UNL     1     -21.740  -6.017  -2.589  1.00  0.00     0.000 C 
BRANCH  11  12
HETATM   12  C   UNL     1     -22.232  -6.759  -1.350  1.00  0.00     0.000 C 
BRANCH  12  13
HETATM   13  C   UNL     1     -21.644  -8.166  -1.275  1.00  0.00     0.004 C 
BRANCH  13  14
HETATM   14  C   UNL     1     -22.281  -9.023  -0.167  1.00  0.00    -0.023 C 
HETATM   15  C   UNL     1     -21.234  -9.696   0.722  1.00  0.00     0.009 C 
HETATM   16  C   UNL     1     -23.205  -8.153   0.686  1.00  0.00     0.009 C 
ENDBRANCH  13  14
ENDBRANCH  12  13
ENDBRANCH  11  12
ENDBRANCH  10  11
ENDBRANCH   9  10
ENDBRANCH   1   9
TORSDOF 12
ENDMDL
MODEL 3
REMARK VINA RESULT:      -6.0      1.186      8.590
REMARK  12 active torsions:
REMARK  status: ('A' for Active; 'I' for Inactive)
REMARK    1  A    between atoms: C_2  and  C_3 
REMARK    2  A    between atoms: C_3  and  C_4 
REMARK    3  A    between atoms: C_4  and  C_5 
REMARK    4  A    between atoms: C_5  and  C_6 
REMARK    5  A    between atoms: C_6  and  C_7 
REMARK    6  A    between atoms: C_7  and  C_8 
REMARK    7  A    between atoms: C_8  and  C_9 
REMARK    8  A    between atoms: C_9  and  C_10 
REMARK    9  A    between atoms: C_10  and  C_11 
REMARK   10  A    between atoms: C_11  and  C_12 
REMARK   11  A    between atoms: C_12  and  C_13 
REMARK   12  A    between atoms: C_13  and  C_14 
ROOT
HETATM    1  C   UNL     1     -20.799  -3.918  -7.058  1.00  0.00     0.000 C 
ENDROOT
BRANCH   1   2
HETATM    2  C   UNL     1     -21.066  -4.763  -8.297  1.00  0.00     0.000 C 
BRANCH   2   3
HETATM    3  C   UNL     1     -20.051  -4.455  -9.391  1.00  0.00     0.000 C 
BRANCH   3   4
HETATM    4  C   UNL     1     -20.697  -4.570 -10.767  1.00  0.00     0.000 C 
BRANCH   4   5
HETATM    5  C   UNL     1     -20.996  -3.191 -11.346  1.00  0.00     0.000 C 
BRANCH   5   6
HETATM    6  C   UNL     1     -22.485  -3.042 -11.643  1.00  0.00    -0.000 C 
BRANCH   6   7
HETATM    7  C   UNL     1     -23.248  -4.312 -11.274  1.00  0.00    -0.005 C 
HETATM    8  C   UNL     1     -24.275  -4.036 -10.189  1.00  0.00     0.005 C 
ENDBRANCH   6   7
ENDBRANCH   5   6
ENDBRANCH   4   5
ENDBRANCH   3   4
ENDBRANCH   2   3
ENDBRANCH   1   2
BRANCH   1   9
HETATM    9  C   UNL     1     -20.420  -4.801  -5.875  1.00  0.00     0.000 C 
BRANCH   9  10
HETATM   10  C   UNL     1     -20.905  -6.228  -6.099  1.00  0.00     0.000 C 
BRANCH  10  11
HETATM   11  C   UNL     1     -22.009  -6.594  -5.113  1.00  0.00     0.000 C 
BRANCH  11  12
HETATM   12  C   UNL     1     -21.550  -6.313  -3.686  1.00  0.00     0.000 C 
BRANCH  12  13
HETATM   13  C   UNL     1     -20.904  -7.546  -3.057  1.00  0.00     0.004 C 
BRANCH  13  14
HETATM   14  C   UNL     1     -21.284  -7.733  -1.578  1.00  0.00    -0.023 C 
HETATM   15  C   UNL     1     -22.325  -6.713  -1.111  1.00  0.00     0.009 C 
HETATM   16  C   UNL     1     -21.812  -9.151  -1.359  1.00  0.00     0.009 C 
ENDBRANCH  13  14
ENDBRANCH  12  13
ENDBRANCH  11  12
ENDBRANCH  10  11
ENDBRANCH   9  10
ENDBRANCH   1   9
TORSDOF 12
ENDMDL
MODEL 4
REMARK VINA RESULT:      -5.9      1.448      2.934
REMARK  12 active torsions:
REMARK  status: ('A' for Active; 'I' for Inactive)
REMARK    1  A    between atoms: C_2  and  C_3 
REMARK    2  A    between atoms: C_3  and  C_4 
REMARK    3  A    between atoms: C_4  and  C_5 
REMARK    4  A    between atoms: C_5  and  C_6 
REMARK    5  A    between atoms: C_6  and  C_7 
REMARK    6  A    between atoms: C_7  and  C_8 
REMARK    7  A    between atoms: C_8  and  C_9 
REMARK    8  A    between atoms: C_9  and  C_10 
REMARK    9  A    between atoms: C_10  and  C_11 
REMARK   10  A    between atoms: C_11  and  C_12 
REMARK   11  A    between atoms: C_12  and  C_13 
REMARK   12  A    between atoms: C_13  and  C_14 
ROOT
HETATM    1  C   UNL     1     -19.482  -4.651  -6.801  1.00  0.00     0.000 C 
ENDROOT
BRANCH   1   2
HETATM    2  C   UNL     1     -20.409  -4.937  -5.626  1.00  0.00     0.000 C 
BRANCH   2   3
HETATM    3  C   UNL     1     -21.677  -5.641  -6.096  1.00  0.00     0.000 C 
BRANCH   3   4
HETATM    4  C   UNL     1     -22.268  -6.485  -4.974  1.00  0.00     0.000 C 
BRANCH   4   5
HETATM    5  C   UNL     1     -21.323  -7.619  -4.589  1.00  0.00     0.000 C 
BRANCH   5   6
HETATM    6  C   UNL     1     -21.113  -7.657  -3.078  1.00  0.00    -0.000 C 
BRANCH   6   7
HETATM    7  C   UNL     1     -21.700  -6.415  -2.411  1.00  0.00    -0.005 C 
HETATM    8  C   UNL     1     -22.323  -6.759  -1.069  1.00  0.00     0.005 C 
ENDBRANCH   6   7
ENDBRANCH   5   6
ENDBRANCH   4   5
ENDBRANCH   3   4
ENDBRANCH   2   3
ENDBRANCH   1   2
BRANCH   1   9
HETATM    9  C   UNL     1     -20.286  -4.292  -8.045  1.00  0.00     0.000 C 
BRANCH   9  10
HETATM   10  C   UNL     1     -19.818  -5.117  -9.238  1.00  0.00     0.000 C 
BRANCH  10  11
HETATM   11  C   UNL     1     -20.233  -4.465 -10.553  1.00  0.00     0.000 C 
BRANCH  11  12
HETATM   12  C   UNL     1     -21.350  -3.455 -10.306  1.00  0.00     0.000 C 
BRANCH  12  13
HETATM   13  C   UNL     1     -22.003  -3.018 -11.615  1.00  0.00     0.004 C 
BRANCH  13  14
HETATM   14  C   UNL     1     -23.512  -3.311 -11.658  1.00  0.00    -0.023 C 
HETATM   15  C   UNL     1     -24.175  -2.769 -12.926  1.00  0.00     0.009 C 
HETATM   16  C   UNL     1     -23.746  -4.819 -11.555  1.00  0.00     0.009 C 
ENDBRANCH  13  14
ENDBRANCH  12  13
ENDBRANCH  11  12
ENDBRANCH  10  11
ENDBRANCH   9  10
ENDBRANCH   1   9
TORSDOF 12
ENDMDL
MODEL 5
REMARK VINA RESULT:      -5.9      1.579      8.632
REMARK  12 active torsions:
REMARK  status: ('A' for Active; 'I' for Inactive)
REMARK    1  A    between atoms: C_2  and  C_3 
REMARK    2  A    between atoms: C_3  and  C_4 
REMARK    3  A    between atoms: C_4  and  C_5 
REMARK    4  A    between atoms: C_5  and  C_6 
REMARK    5  A    between atoms: C_6  and  C_7 
REMARK    6  A    between atoms: C_7  and  C_8 
REMARK    7  A    between atoms: C_8  and  C_9 
REMARK    8  A    between atoms: C_9  and  C_10 
REMARK    9  A    between atoms: C_10  and  C_11 
REMARK   10  A    between atoms: C_11  and  C_12 
REMARK   11  A    between atoms: C_12  and  C_13 
REMARK   12  A    between atoms: C_13  and  C_14 
ROOT
HETATM    1  C   UNL     1     -20.063  -5.033  -8.858  1.00  0.00     0.000 C 
ENDROOT
BRANCH   1   2
HETATM    2  C   UNL     1     -20.521  -4.020  -9.900  1.00  0.00     0.000 C 
BRANCH   2   3
HETATM    3  C   UNL     1     -21.978  -3.634  -9.676  1.00  0.00     0.000 C 
BRANCH   3   4
HETATM    4  C   UNL     1     -22.865  -4.873  -9.666  1.00  0.00     0.000 C 
BRANCH   4   5
HETATM    5  C   UNL     1     -24.041  -4.710 -10.625  1.00  0.00     0.000 C 
BRANCH   5   6
HETATM    6  C   UNL     1     -24.176  -3.257 -11.069  1.00  0.00    -0.000 C 
BRANCH   6   7
HETATM    7  C   UNL     1     -24.334  -3.158 -12.584  1.00  0.00    -0.005 C 
HETATM    8  C   UNL     1     -22.989  -2.968 -13.264  1.00  0.00     0.005 C 
ENDBRANCH   6   7
ENDBRANCH   5   6
ENDBRANCH   4   5
ENDBRANCH   3   4
ENDBRANCH   2   3
ENDBRANCH   1   2
BRANCH   1   9
HETATM    9  C   UNL     1     -19.678  -4.332  -7.560  1.00  0.00     0.000 C 
BRANCH   9  10
HETATM   10  C   UNL     1     -20.806  -4.439  -6.543  1.00  0.00     0.000 C 
BRANCH  10  11
HETATM   11  C   UNL     1     -20.308  -5.043  -5.233  1.00  0.00     0.000 C 
BRANCH  11  12
HETATM   12  C   UNL     1     -20.921  -6.424  -5.028  1.00  0.00     0.000 C 
BRANCH  12  13
HETATM   13  C   UNL     1     -21.939  -6.417  -3.889  1.00  0.00     0.004 C 
BRANCH  13  14
HETATM   14  C   UNL     1     -21.298  -6.670  -2.513  1.00  0.00    -0.023 C 
HETATM   15  C   UNL     1     -22.334  -6.714  -1.388  1.00  0.00     0.009 C 
HETATM   16  C   UNL     1     -20.511  -7.980  -2.545  1.00  0.00     0.009 C 
ENDBRANCH  13  14
ENDBRANCH  12  13
ENDBRANCH  11  12
ENDBRANCH  10  11
ENDBRANCH   9  10
ENDBRANCH   1   9
TORSDOF 12
ENDMDL
MODEL 6
REMARK VINA RESULT:      -5.8      1.463      3.216
REMARK  12 active torsions:
REMARK  status: ('A' for Active; 'I' for Inactive)
REMARK    1  A    between atoms: C_2  and  C_3 
REMARK    2  A    between atoms: C_3  and  C_4 
REMARK    3  A    between atoms: C_4  and  C_5 
REMARK    4  A    between atoms: C_5  and  C_6 
REMARK    5  A    between atoms: C_6  and  C_7 
REMARK    6  A    between atoms: C_7  and  C_8 
REMARK    7  A    between atoms: C_8  and  C_9 
REMARK    8  A    between atoms: C_9  and  C_10 
REMARK    9  A    between atoms: C_10  and  C_11 
REMARK   10  A    between atoms: C_11  and  C_12 
REMARK   11  A    between atoms: C_12  and  C_13 
REMARK   12  A    between atoms: C_13  and  C_14 
ROOT
HETATM    1  C   UNL     1     -21.416  -7.294  -2.452  1.00  0.00     0.000 C 
ENDROOT
BRANCH   1   2
HETATM    2  C   UNL     1     -22.277  -6.831  -1.284  1.00  0.00     0.000 C 
BRANCH   2   3
HETATM    3  C   UNL     1     -21.921  -7.593  -0.013  1.00  0.00     0.000 C 
BRANCH   3   4
HETATM    4  C   UNL     1     -23.180  -8.113   0.670  1.00  0.00     0.000 C 
BRANCH   4   5
HETATM    5  C   UNL     1     -23.603  -9.456   0.084  1.00  0.00     0.000 C 
BRANCH   5   6
HETATM    6  C   UNL     1     -22.393 -10.363  -0.116  1.00  0.00    -0.000 C 
BRANCH   6   7
HETATM    7  C   UNL     1     -22.671 -11.425  -1.176  1.00  0.00    -0.005 C 
HETATM    8  C   UNL     1     -22.459 -10.871  -2.574  1.00  0.00     0.005 C 
ENDBRANCH   6   7
ENDBRANCH   5   6
ENDBRANCH   4   5
ENDBRANCH   3   4
ENDBRANCH   2   3
ENDBRANCH   1   2
BRANCH   1   9
HETATM    9  C   UNL     1     -21.522  -6.320  -3.619  1.00  0.00     0.000 C 
BRANCH   9  10
HETATM   10  C   UNL     1     -21.760  -7.072  -4.921  1.00  0.00     0.000 C 
BRANCH  10  11
HETATM   11  C   UNL     1     -20.897  -6.510  -6.046  1.00  0.00     0.000 C 
BRANCH  11  12
HETATM   12  C   UNL     1     -20.399  -5.117  -5.677  1.00  0.00     0.000 C 
BRANCH  12  13
HETATM   13  C   UNL     1     -20.579  -4.137  -6.834  1.00  0.00     0.004 C 
BRANCH  13  14
HETATM   14  C   UNL     1     -21.252  -4.776  -8.061  1.00  0.00    -0.023 C 
HETATM   15  C   UNL     1     -22.644  -4.200  -8.327  1.00  0.00     0.009 C 
HETATM   16  C   UNL     1     -20.366  -4.583  -9.292  1.00  0.00     0.009 C 
ENDBRANCH  13  14
ENDBRANCH  12  13
ENDBRANCH  11  12
ENDBRANCH  10  11
ENDBRANCH   9  10
ENDBRANCH   1   9
TORSDOF 12
ENDMDL
MODEL 7
REMARK VINA RESULT:      -5.8      1.447      9.000
REMARK  12 active torsions:
REMARK  status: ('A' for Active; 'I' for Inactive)
REMARK    1  A    between atoms: C_2  and  C_3 
REMARK    2  A    between atoms: C_3  and  C_4 
REMARK    3  A    between atoms: C_4  and  C_5 
REMARK    4  A    between atoms: C_5  and  C_6 
REMARK    5  A    between atoms: C_6  and  C_7 
REMARK    6  A    between atoms: C_7  and  C_8 
REMARK    7  A    between atoms: C_8  and  C_9 
REMARK    8  A    between atoms: C_9  and  C_10 
REMARK    9  A    between atoms: C_10  and  C_11 
REMARK   10  A    between atoms: C_11  and  C_12 
REMARK   11  A    between atoms: C_12  and  C_13 
REMARK   12  A    between atoms: C_13  and  C_14 
ROOT
HETATM    1  C   UNL     1     -21.451  -6.998  -4.249  1.00  0.00     0.000 C 
ENDROOT
BRANCH   1   2
HETATM    2  C   UNL     1     -21.486  -5.882  -5.285  1.00  0.00     0.000 C 
BRANCH   2   3
HETATM    3  C   UNL     1     -20.178  -5.826  -6.065  1.00  0.00     0.000 C 
BRANCH   3   4
HETATM    4  C   UNL     1     -20.101  -4.547  -6.890  1.00  0.00     0.000 C 
BRANCH   4   5
HETATM    5  C   UNL     1     -21.495  -3.988  -7.160  1.00  0.00     0.000 C 
BRANCH   5   6
HETATM    6  C   UNL     1     -21.851  -4.116  -8.638  1.00  0.00    -0.000 C 
BRANCH   6   7
HETATM    7  C   UNL     1     -20.613  -4.428  -9.475  1.00  0.00    -0.005 C 
HETATM    8  C   UNL     1     -20.672  -3.724 -10.820  1.00  0.00     0.005 C 
ENDBRANCH   6   7
ENDBRANCH   5   6
ENDBRANCH   4   5
ENDBRANCH   3   4
ENDBRANCH   2   3
ENDBRANCH   1   2
BRANCH   1   9
HETATM    9  C   UNL     1     -21.720  -6.446  -2.854  1.00  0.00     0.000 C 
BRANCH   9  10
HETATM   10  C   UNL     1     -21.713  -7.570  -1.826  1.00  0.00     0.000 C 
BRANCH  10  11
HETATM   11  C   UNL     1     -22.316  -7.108  -0.503  1.00  0.00     0.000 C 
BRANCH  11  12
HETATM   12  C   UNL     1     -23.081  -8.253   0.151  1.00  0.00     0.000 C 
BRANCH  12  13
HETATM   13  C   UNL     1     -22.318  -9.571   0.036  1.00  0.00     0.004 C 
BRANCH  13  14
HETATM   14  C   UNL     1     -23.245 -10.788  -0.127  1.00  0.00    -0.023 C 
HETATM   15  C   UNL     1     -23.615 -11.046  -1.589  1.00  0.00     0.009 C 
HETATM   16  C   UNL     1     -22.574 -12.028   0.465  1.00  0.00     0.009 C 
ENDBRANCH  13  14
ENDBRANCH  12  13
ENDBRANCH  11  12
ENDBRANCH  10  11
ENDBRANCH   9  10
ENDBRANCH   1   9
TORSDOF 12
ENDMDL
MODEL 8
REMARK VINA RESULT:      -5.6      1.483      8.539
REMARK  12 active torsions:
REMARK  status: ('A' for Active; 'I' for Inactive)
REMARK    1  A    between atoms: C_2  and  C_3 
REMARK    2  A    between atoms: C_3  and  C_4 
REMARK    3  A    between atoms: C_4  and  C_5 
REMARK    4  A    between atoms: C_5  and  C_6 
REMARK    5  A    between atoms: C_6  and  C_7 
REMARK    6  A    between atoms: C_7  and  C_8 
REMARK    7  A    between atoms: C_8  and  C_9 
REMARK    8  A    between atoms: C_9  and  C_10 
REMARK    9  A    between atoms: C_10  and  C_11 
REMARK   10  A    between atoms: C_11  and  C_12 
REMARK   11  A    between atoms: C_12  and  C_13 
REMARK   12  A    between atoms: C_13  and  C_14 
ROOT
HETATM    1  C   UNL     1     -21.356  -7.323  -5.434  1.00  0.00     0.000 C 
ENDROOT
BRANCH   1   2
HETATM    2  C   UNL     1     -20.039  -6.770  -5.965  1.00  0.00     0.000 C 
BRANCH   2   3
HETATM    3  C   UNL     1     -20.286  -5.773  -7.091  1.00  0.00     0.000 C 
BRANCH   3   4
HETATM    4  C   UNL     1     -20.599  -4.393  -6.524  1.00  0.00     0.000 C 
BRANCH   4   5
HETATM    5  C   UNL     1     -21.549  -3.629  -7.441  1.00  0.00     0.000 C 
BRANCH   5   6
HETATM    6  C   UNL     1     -22.023  -4.517  -8.587  1.00  0.00    -0.000 C 
BRANCH   6   7
HETATM    7  C   UNL     1     -23.223  -3.900  -9.299  1.00  0.00    -0.005 C 
HETATM    8  C   UNL     1     -23.790  -4.852 -10.339  1.00  0.00     0.005 C 
ENDBRANCH   6   7
ENDBRANCH   5   6
ENDBRANCH   4   5
ENDBRANCH   3   4
ENDBRANCH   2   3
ENDBRANCH   1   2
BRANCH   1   9
HETATM    9  C   UNL     1     -21.204  -8.787  -5.038  1.00  0.00     0.000 C 
BRANCH   9  10
HETATM   10  C   UNL     1     -21.487  -8.969  -3.552  1.00  0.00     0.000 C 
BRANCH  10  11
HETATM   11  C   UNL     1     -21.581  -7.622  -2.843  1.00  0.00     0.000 C 
BRANCH  11  12
HETATM   12  C   UNL     1     -21.154  -7.768  -1.386  1.00  0.00     0.000 C 
BRANCH  12  13
HETATM   13  C   UNL     1     -21.324  -9.204  -0.897  1.00  0.00     0.004 C 
BRANCH  13  14
HETATM   14  C   UNL     1     -22.427  -9.348   0.166  1.00  0.00    -0.023 C 
HETATM   15  C   UNL     1     -23.057  -8.004   0.537  1.00  0.00     0.009 C 
HETATM   16  C   UNL     1     -23.506 -10.306  -0.340  1.00  0.00     0.009 C 
ENDBRANCH  13  14
ENDBRANCH  12  13
ENDBRANCH  11  12
ENDBRANCH  10  11
ENDBRANCH   9  10
ENDBRANCH   1   9
TORSDOF 12
ENDMDL
MODEL 9
REMARK VINA RESULT:      -5.4     18.414     20.377
REMARK  12 active torsions:
REMARK  status: ('A' for Active; 'I' for Inactive)
REMARK    1  A    between atoms: C_2  and  C_3 
REMARK    2  A    between atoms: C_3  and  C_4 
REMARK    3  A    between atoms: C_4  and  C_5 
REMARK    4  A    between atoms: C_5  and  C_6 
REMARK    5  A    between atoms: C_6  and  C_7 
REMARK    6  A    between atoms: C_7  and  C_8 
REMARK    7  A    between atoms: C_8  and  C_9 
REMARK    8  A    between atoms: C_9  and  C_10 
REMARK    9  A    between atoms: C_10  and  C_11 
REMARK   10  A    between atoms: C_11  and  C_12 
REMARK   11  A    between atoms: C_12  and  C_13 
REMARK   12  A    between atoms: C_13  and  C_14 
ROOT
HETATM    1  C   UNL     1     -13.555   9.710   1.133  1.00  0.00     0.000 C 
ENDROOT
BRANCH   1   2
HETATM    2  C   UNL     1     -14.263  10.786   0.319  1.00  0.00     0.000 C 
BRANCH   2   3
HETATM    3  C   UNL     1     -14.521  12.025   1.169  1.00  0.00     0.000 C 
BRANCH   3   4
HETATM    4  C   UNL     1     -15.930  11.992   1.749  1.00  0.00     0.000 C 
BRANCH   4   5
HETATM    5  C   UNL     1     -15.908  12.267   3.249  1.00  0.00     0.000 C 
BRANCH   5   6
HETATM    6  C   UNL     1     -16.624  11.157   4.011  1.00  0.00    -0.000 C 
BRANCH   6   7
HETATM    7  C   UNL     1     -17.897  10.727   3.288  1.00  0.00    -0.005 C 
HETATM    8  C   UNL     1     -17.995   9.213   3.207  1.00  0.00     0.005 C 
ENDBRANCH   6   7
ENDBRANCH   5   6
ENDBRANCH   4   5
ENDBRANCH   3   4
ENDBRANCH   2   3
ENDBRANCH   1   2
BRANCH   1   9
HETATM    9  C   UNL     1     -14.536   8.620   1.550  1.00  0.00     0.000 C 
BRANCH   9  10
HETATM   10  C   UNL     1     -14.377   8.300   3.030  1.00  0.00     0.000 C 
BRANCH  10  11
HETATM   11  C   UNL     1     -13.414   9.272   3.703  1.00  0.00     0.000 C 
BRANCH  11  12
HETATM   12  C   UNL     1     -13.330   8.977   5.196  1.00  0.00     0.000 C 
BRANCH  12  13
HETATM   13  C   UNL     1     -14.674   8.507   5.747  1.00  0.00     0.004 C 
BRANCH  13  14
HETATM   14  C   UNL     1     -15.092   9.255   7.025  1.00  0.00    -0.023 C 
HETATM   15  C   UNL     1     -14.496  10.662   7.098  1.00  0.00     0.009 C 
HETATM   16  C   UNL     1     -16.617   9.332   7.100  1.00  0.00     0.009 C 
ENDBRANCH  13  14
ENDBRANCH  12  13
ENDBRANCH  11  12
ENDBRANCH  10  11
ENDBRANCH   9  10
ENDBRANCH   1   9
TORSDOF 12
ENDMDL
