MODEL 1
REMARK VINA RESULT:      -6.2      0.000      0.000
REMARK  4 active torsions:
REMARK  status: ('A' for Active; 'I' for Inactive)
REMARK    1  A    between atoms: C_3  and  C_4 
REMARK    2  A    between atoms: C_4  and  C_5 
REMARK    3  A    between atoms: C_5  and  C_6 
REMARK    4  A    between atoms: C_7  and  C_8 
ROOT
HETATM    1  C   UNL     1     -21.882  -2.961 -11.768  1.00  0.00     0.037 C 
ENDROOT
BRANCH   1   2
HETATM    2  C   UNL     1     -21.473  -4.347 -11.250  1.00  0.00     0.031 C 
BRANCH   2   3
HETATM    3  C   UNL     1     -20.376  -4.354 -10.213  1.00  0.00    -0.024 C 
HETATM    4  C   UNL     1     -20.601  -4.309  -8.883  1.00  0.00    -0.091 C 
HETATM    5  C   UNL     1     -21.973  -4.248  -8.266  1.00  0.00     0.042 C 
HETATM    6  C   UNL     1     -19.464  -4.309  -7.894  1.00  0.00     0.042 C 
ENDBRANCH   2   3
ENDBRANCH   1   2
BRANCH   1   7
HETATM    7  C   UNL     1     -23.363  -2.925 -12.104  1.00  0.00    -0.081 C 
HETATM    8  C   UNL     1     -23.911  -2.561 -13.280  1.00  0.00     0.043 C 
HETATM    9  C   UNL     1     -24.297  -3.359 -11.001  1.00  0.00     0.043 C 
BRANCH   8  10
HETATM   10  C   UNL     1     -23.189  -2.138 -14.500  1.00  0.00     0.259 C 
HETATM   11  O   UNL     1     -22.742  -2.966 -15.288  1.00  0.00    -0.302 OA
ENDBRANCH   8  10
ENDBRANCH   1   7
TORSDOF 4
ENDMDL
MODEL 2
REMARK VINA RESULT:      -5.9      1.575      2.754
REMARK  4 active torsions:
REMARK  status: ('A' for Active; 'I' for Inactive)
REMARK    1  A    between atoms: C_3  and  C_4 
REMARK    2  A    between atoms: C_4  and  C_5 
REMARK    3  A    between atoms: C_5  and  C_6 
REMARK    4  A    between atoms: C_7  and  C_8 
ROOT
HETATM    1  C   UNL     1     -22.625  -4.546  -9.804  1.00  0.00     0.037 C 
ENDROOT
BRANCH   1   2
HETATM    2  C   UNL     1     -22.340  -3.652  -8.589  1.00  0.00     0.031 C 
BRANCH   2   3
HETATM    3  C   UNL     1     -22.083  -4.382  -7.293  1.00  0.00    -0.024 C 
HETATM    4  C   UNL     1     -20.851  -4.692  -6.839  1.00  0.00    -0.091 C 
HETATM    5  C   UNL     1     -19.578  -4.349  -7.566  1.00  0.00     0.042 C 
HETATM    6  C   UNL     1     -20.656  -5.431  -5.540  1.00  0.00     0.042 C 
ENDBRANCH   2   3
ENDBRANCH   1   2
BRANCH   1   7
HETATM    7  C   UNL     1     -22.026  -3.949 -11.067  1.00  0.00    -0.081 C 
HETATM    8  C   UNL     1     -22.703  -3.410 -12.100  1.00  0.00     0.043 C 
HETATM    9  C   UNL     1     -20.519  -3.957 -11.145  1.00  0.00     0.043 C 
BRANCH   8  10
HETATM   10  C   UNL     1     -24.170  -3.266 -12.217  1.00  0.00     0.259 C 
HETATM   11  O   UNL     1     -24.672  -2.672 -13.166  1.00  0.00    -0.302 OA
ENDBRANCH   8  10
ENDBRANCH   1   7
TORSDOF 4
ENDMDL
MODEL 3
REMARK VINA RESULT:      -5.8     11.545     13.459
REMARK  4 active torsions:
REMARK  status: ('A' for Active; 'I' for Inactive)
REMARK    1  A    between atoms: C_3  and  C_4 
REMARK    2  A    between atoms: C_4  and  C_5 
REMARK    3  A    between atoms: C_5  and  C_6 
REMARK    4  A    between atoms: C_7  and  C_8 
ROOT
HETATM    1  C   UNL     1     -35.832  -2.146 -10.773  1.00  0.00     0.037 C 
ENDROOT
BRANCH   1   2
HETATM    2  C   UNL     1     -34.380  -2.080 -10.278  1.00  0.00     0.031 C 
BRANCH   2   3
HETATM    3  C   UNL     1     -33.358  -2.732 -11.177  1.00  0.00    -0.024 C 
HETATM    4  C   UNL     1     -33.206  -4.068 -11.293  1.00  0.00    -0.091 C 
HETATM    5  C   UNL     1     -34.036  -5.076 -10.544  1.00  0.00     0.042 C 
HETATM    6  C   UNL     1     -32.160  -4.662 -12.202  1.00  0.00     0.042 C 
ENDBRANCH   2   3
ENDBRANCH   1   2
BRANCH   1   7
HETATM    7  C   UNL     1     -36.539  -0.819 -10.550  1.00  0.00    -0.081 C 
HETATM    8  C   UNL     1     -36.973   0.029 -11.502  1.00  0.00     0.043 C 
HETATM    9  C   UNL     1     -36.784  -0.441  -9.110  1.00  0.00     0.043 C 
BRANCH   8  10
HETATM   10  C   UNL     1     -36.872  -0.156 -12.966  1.00  0.00     0.259 C 
HETATM   11  O   UNL     1     -37.752  -0.740 -13.590  1.00  0.00    -0.302 OA
ENDBRANCH   8  10
ENDBRANCH   1   7
TORSDOF 4
ENDMDL
MODEL 4
REMARK VINA RESULT:      -5.7      2.042      2.682
REMARK  4 active torsions:
REMARK  status: ('A' for Active; 'I' for Inactive)
REMARK    1  A    between atoms: C_3  and  C_4 
REMARK    2  A    between atoms: C_4  and  C_5 
REMARK    3  A    between atoms: C_5  and  C_6 
REMARK    4  A    between atoms: C_7  and  C_8 
ROOT
HETATM    1  C   UNL     1     -21.932  -4.439 -11.579  1.00  0.00     0.037 C 
ENDROOT
BRANCH   1   2
HETATM    2  C   UNL     1     -20.921  -3.675 -10.711  1.00  0.00     0.031 C 
BRANCH   2   3
HETATM    3  C   UNL     1     -20.204  -4.503  -9.672  1.00  0.00    -0.024 C 
HETATM    4  C   UNL     1     -20.552  -4.533  -8.368  1.00  0.00    -0.091 C 
HETATM    5  C   UNL     1     -21.697  -3.747  -7.786  1.00  0.00     0.042 C 
HETATM    6  C   UNL     1     -19.793  -5.372  -7.372  1.00  0.00     0.042 C 
ENDBRANCH   2   3
ENDBRANCH   1   2
BRANCH   1   7
HETATM    7  C   UNL     1     -23.010  -3.503 -12.101  1.00  0.00    -0.081 C 
HETATM    8  C   UNL     1     -24.129  -3.127 -11.452  1.00  0.00     0.043 C 
HETATM    9  C   UNL     1     -22.777  -2.939 -13.481  1.00  0.00     0.043 C 
BRANCH   8  10
HETATM   10  C   UNL     1     -24.538  -3.526 -10.088  1.00  0.00     0.259 C 
HETATM   11  O   UNL     1     -24.865  -4.682  -9.840  1.00  0.00    -0.302 OA
ENDBRANCH   8  10
ENDBRANCH   1   7
TORSDOF 4
ENDMDL
MODEL 5
REMARK VINA RESULT:      -5.7     10.933     12.679
REMARK  4 active torsions:
REMARK  status: ('A' for Active; 'I' for Inactive)
REMARK    1  A    between atoms: C_3  and  C_4 
REMARK    2  A    between atoms: C_4  and  C_5 
REMARK    3  A    between atoms: C_5  and  C_6 
REMARK    4  A    between atoms: C_7  and  C_8 
ROOT
HETATM    1  C   UNL     1     -34.612  -1.763 -12.332  1.00  0.00     0.037 C 
ENDROOT
BRANCH   1   2
HETATM    2  C   UNL     1     -33.928  -2.251 -11.047  1.00  0.00     0.031 C 
BRANCH   2   3
HETATM    3  C   UNL     1     -34.207  -3.685 -10.668  1.00  0.00    -0.024 C 
HETATM    4  C   UNL     1     -33.512  -4.737 -11.150  1.00  0.00    -0.091 C 
HETATM    5  C   UNL     1     -32.371  -4.613 -12.125  1.00  0.00     0.042 C 
HETATM    6  C   UNL     1     -33.843  -6.149 -10.742  1.00  0.00     0.042 C 
ENDBRANCH   2   3
ENDBRANCH   1   2
BRANCH   1   7
HETATM    7  C   UNL     1     -35.437  -0.515 -12.064  1.00  0.00    -0.081 C 
HETATM    8  C   UNL     1     -35.386   0.643 -12.750  1.00  0.00     0.043 C 
HETATM    9  C   UNL     1     -36.417  -0.609 -10.920  1.00  0.00     0.043 C 
BRANCH   8  10
HETATM   10  C   UNL     1     -34.532   0.942 -13.920  1.00  0.00     0.259 C 
HETATM   11  O   UNL     1     -34.653   0.313 -14.966  1.00  0.00    -0.302 OA
ENDBRANCH   8  10
ENDBRANCH   1   7
TORSDOF 4
ENDMDL
MODEL 6
REMARK VINA RESULT:      -5.6      3.846      6.563
REMARK  4 active torsions:
REMARK  status: ('A' for Active; 'I' for Inactive)
REMARK    1  A    between atoms: C_3  and  C_4 
REMARK    2  A    between atoms: C_4  and  C_5 
REMARK    3  A    between atoms: C_5  and  C_6 
REMARK    4  A    between atoms: C_7  and  C_8 
ROOT
HETATM    1  C   UNL     1     -21.557  -3.980  -7.320  1.00  0.00     0.037 C 
ENDROOT
BRANCH   1   2
HETATM    2  C   UNL     1     -22.254  -4.682  -8.495  1.00  0.00     0.031 C 
BRANCH   2   3
HETATM    3  C   UNL     1     -22.596  -3.797  -9.669  1.00  0.00    -0.024 C 
HETATM    4  C   UNL     1     -21.798  -3.639 -10.746  1.00  0.00    -0.091 C 
HETATM    5  C   UNL     1     -20.469  -4.327 -10.914  1.00  0.00     0.042 C 
HETATM    6  C   UNL     1     -22.188  -2.733 -11.885  1.00  0.00     0.042 C 
ENDBRANCH   2   3
ENDBRANCH   1   2
BRANCH   1   7
HETATM    7  C   UNL     1     -20.380  -4.802  -6.821  1.00  0.00    -0.081 C 
HETATM    8  C   UNL     1     -20.424  -5.798  -5.915  1.00  0.00     0.043 C 
HETATM    9  C   UNL     1     -19.040  -4.461  -7.425  1.00  0.00     0.043 C 
BRANCH   8  10
HETATM   10  C   UNL     1     -21.626  -6.319  -5.229  1.00  0.00     0.259 C 
HETATM   11  O   UNL     1     -21.954  -5.896  -4.125  1.00  0.00    -0.302 OA
ENDBRANCH   8  10
ENDBRANCH   1   7
TORSDOF 4
ENDMDL
MODEL 7
REMARK VINA RESULT:      -5.4      8.011     10.360
REMARK  4 active torsions:
REMARK  status: ('A' for Active; 'I' for Inactive)
REMARK    1  A    between atoms: C_3  and  C_4 
REMARK    2  A    between atoms: C_4  and  C_5 
REMARK    3  A    between atoms: C_5  and  C_6 
REMARK    4  A    between atoms: C_7  and  C_8 
ROOT
HETATM    1  C   UNL     1     -20.471  -8.011  -2.528  1.00  0.00     0.037 C 
ENDROOT
BRANCH   1   2
HETATM    2  C   UNL     1     -20.828  -8.422  -1.092  1.00  0.00     0.031 C 
BRANCH   2   3
HETATM    3  C   UNL     1     -21.836  -9.539  -0.969  1.00  0.00    -0.024 C 
HETATM    4  C   UNL     1     -22.942  -9.469  -0.199  1.00  0.00    -0.091 C 
HETATM    5  C   UNL     1     -23.311  -8.270   0.633  1.00  0.00     0.042 C 
HETATM    6  C   UNL     1     -23.909 -10.622  -0.109  1.00  0.00     0.042 C 
ENDBRANCH   2   3
ENDBRANCH   1   2
BRANCH   1   7
HETATM    7  C   UNL     1     -21.471  -7.001  -3.066  1.00  0.00    -0.081 C 
HETATM    8  C   UNL     1     -21.850  -6.853  -4.351  1.00  0.00     0.043 C 
HETATM    9  C   UNL     1     -22.102  -6.093  -2.040  1.00  0.00     0.043 C 
BRANCH   8  10
HETATM   10  C   UNL     1     -21.391  -7.653  -5.507  1.00  0.00     0.259 C 
HETATM   11  O   UNL     1     -21.005  -7.110  -6.537  1.00  0.00    -0.302 OA
ENDBRANCH   8  10
ENDBRANCH   1   7
TORSDOF 4
ENDMDL
MODEL 8
REMARK VINA RESULT:      -5.4      6.422      8.819
REMARK  4 active torsions:
REMARK  status: ('A' for Active; 'I' for Inactive)
REMARK    1  A    between atoms: C_3  and  C_4 
REMARK    2  A    between atoms: C_4  and  C_5 
REMARK    3  A    between atoms: C_5  and  C_6 
REMARK    4  A    between atoms: C_7  and  C_8 
ROOT
HETATM    1  C   UNL     1     -21.926  -6.556  -4.096  1.00  0.00     0.037 C 
ENDROOT
BRANCH   1   2
HETATM    2  C   UNL     1     -21.444  -6.081  -2.717  1.00  0.00     0.031 C 
BRANCH   2   3
HETATM    3  C   UNL     1     -22.299  -6.508  -1.549  1.00  0.00    -0.024 C 
HETATM    4  C   UNL     1     -22.048  -7.600  -0.796  1.00  0.00    -0.091 C 
HETATM    5  C   UNL     1     -20.886  -8.529  -1.025  1.00  0.00     0.042 C 
HETATM    6  C   UNL     1     -22.944  -7.982   0.354  1.00  0.00     0.042 C 
ENDBRANCH   2   3
ENDBRANCH   1   2
BRANCH   1   7
HETATM    7  C   UNL     1     -20.748  -6.827  -5.017  1.00  0.00    -0.081 C 
HETATM    8  C   UNL     1     -20.264  -6.002  -5.965  1.00  0.00     0.043 C 
HETATM    9  C   UNL     1     -20.056  -8.154  -4.823  1.00  0.00     0.043 C 
BRANCH   8  10
HETATM   10  C   UNL     1     -20.761  -4.649  -6.299  1.00  0.00     0.259 C 
HETATM   11  O   UNL     1     -21.716  -4.496  -7.054  1.00  0.00    -0.302 OA
ENDBRANCH   8  10
ENDBRANCH   1   7
TORSDOF 4
ENDMDL
MODEL 9
REMARK VINA RESULT:      -5.4      9.803     12.152
REMARK  4 active torsions:
REMARK  status: ('A' for Active; 'I' for Inactive)
REMARK    1  A    between atoms: C_3  and  C_4 
REMARK    2  A    between atoms: C_4  and  C_5 
REMARK    3  A    between atoms: C_5  and  C_6 
REMARK    4  A    between atoms: C_7  and  C_8 
ROOT
HETATM    1  C   UNL     1     -21.021  -8.672  -0.772  1.00  0.00     0.037 C 
ENDROOT
BRANCH   1   2
HETATM    2  C   UNL     1     -21.568  -9.990  -1.340  1.00  0.00     0.031 C 
BRANCH   2   3
HETATM    3  C   UNL     1     -21.677 -11.126  -0.352  1.00  0.00    -0.024 C 
HETATM    4  C   UNL     1     -22.843 -11.712  -0.009  1.00  0.00    -0.091 C 
HETATM    5  C   UNL     1     -24.181 -11.310  -0.569  1.00  0.00     0.042 C 
HETATM    6  C   UNL     1     -22.891 -12.838   0.991  1.00  0.00     0.042 C 
ENDBRANCH   2   3
ENDBRANCH   1   2
BRANCH   1   7
HETATM    7  C   UNL     1     -22.137  -7.658  -0.588  1.00  0.00    -0.081 C 
HETATM    8  C   UNL     1     -22.387  -6.588  -1.368  1.00  0.00     0.043 C 
HETATM    9  C   UNL     1     -23.056  -7.899   0.584  1.00  0.00     0.043 C 
BRANCH   8  10
HETATM   10  C   UNL     1     -21.642  -6.184  -2.581  1.00  0.00     0.259 C 
HETATM   11  O   UNL     1     -22.193  -6.147  -3.676  1.00  0.00    -0.302 OA
ENDBRANCH   8  10
ENDBRANCH   1   7
TORSDOF 4
ENDMDL
