MODEL 1
REMARK VINA RESULT:      -5.3      0.000      0.000
REMARK  1 active torsions:
REMARK  status: ('A' for Active; 'I' for Inactive)
REMARK    1  A    between atoms: N_5  and  O_8 
ROOT
HETATM    1  C   UNL     1     -22.894  -3.466 -11.816  1.00  0.00     0.115 C 
HETATM    2  C   UNL     1     -22.413  -4.052 -10.493  1.00  0.00     0.115 C 
HETATM    3  C   UNL     1     -23.574  -3.853  -9.566  1.00  0.00     0.251 C 
HETATM    4  O   UNL     1     -23.564  -4.029  -8.357  1.00  0.00    -0.271 OA
HETATM    5  N   UNL     1     -24.641  -3.478 -10.314  1.00  0.00    -0.157 N 
HETATM    6  C   UNL     1     -24.372  -3.255 -11.625  1.00  0.00     0.251 C 
HETATM    7  O   UNL     1     -25.133  -2.908 -12.514  1.00  0.00    -0.271 OA
ENDROOT
BRANCH   5   8
HETATM    8  O   UNL     1     -25.892  -3.258  -9.747  1.00  0.00    -0.277 OA
HETATM    9  H   UNL     1     -25.678  -2.677  -8.991  1.00  0.00     0.245 HD
ENDBRANCH   5   8
TORSDOF 1
ENDMDL
MODEL 2
REMARK VINA RESULT:      -5.3      0.172      2.678
REMARK  1 active torsions:
REMARK  status: ('A' for Active; 'I' for Inactive)
REMARK    1  A    between atoms: N_5  and  O_8 
ROOT
HETATM    1  C   UNL     1     -22.385  -4.028 -10.297  1.00  0.00     0.115 C 
HETATM    2  C   UNL     1     -22.828  -3.428 -11.628  1.00  0.00     0.115 C 
HETATM    3  C   UNL     1     -24.307  -3.245 -11.467  1.00  0.00     0.251 C 
HETATM    4  O   UNL     1     -25.092  -2.943 -12.353  1.00  0.00    -0.271 OA
HETATM    5  N   UNL     1     -24.609  -3.440 -10.159  1.00  0.00    -0.157 N 
HETATM    6  C   UNL     1     -23.575  -3.865  -9.389  1.00  0.00     0.251 C 
HETATM    7  O   UNL     1     -23.564  -4.120  -8.196  1.00  0.00    -0.271 OA
ENDROOT
BRANCH   5   8
HETATM    8  O   UNL     1     -25.905  -3.297  -9.677  1.00  0.00    -0.277 OA
HETATM    9  H   UNL     1     -26.445  -3.535 -10.456  1.00  0.00     0.245 HD
ENDBRANCH   5   8
TORSDOF 1
ENDMDL
MODEL 3
REMARK VINA RESULT:      -5.3      1.397      2.134
REMARK  1 active torsions:
REMARK  status: ('A' for Active; 'I' for Inactive)
REMARK    1  A    between atoms: N_5  and  O_8 
ROOT
HETATM    1  C   UNL     1     -22.053  -3.190 -11.653  1.00  0.00     0.115 C 
HETATM    2  C   UNL     1     -22.899  -3.543 -10.434  1.00  0.00     0.115 C 
HETATM    3  C   UNL     1     -24.307  -3.305 -10.891  1.00  0.00     0.251 C 
HETATM    4  O   UNL     1     -25.301  -3.306 -10.180  1.00  0.00    -0.271 OA
HETATM    5  N   UNL     1     -24.281  -3.123 -12.235  1.00  0.00    -0.157 N 
HETATM    6  C   UNL     1     -23.041  -3.068 -12.782  1.00  0.00     0.251 C 
HETATM    7  O   UNL     1     -22.726  -2.910 -13.951  1.00  0.00    -0.271 OA
ENDROOT
BRANCH   5   8
HETATM    8  O   UNL     1     -25.444  -2.921 -12.969  1.00  0.00    -0.277 OA
HETATM    9  H   UNL     1     -26.007  -2.431 -12.338  1.00  0.00     0.245 HD
ENDBRANCH   5   8
TORSDOF 1
ENDMDL
MODEL 4
REMARK VINA RESULT:      -5.3      1.437      2.960
REMARK  1 active torsions:
REMARK  status: ('A' for Active; 'I' for Inactive)
REMARK    1  A    between atoms: N_5  and  O_8 
ROOT
HETATM    1  C   UNL     1     -22.890  -3.701 -10.461  1.00  0.00     0.115 C 
HETATM    2  C   UNL     1     -21.964  -3.380 -11.629  1.00  0.00     0.115 C 
HETATM    3  C   UNL     1     -22.900  -3.024 -12.745  1.00  0.00     0.251 C 
HETATM    4  O   UNL     1     -22.590  -2.859 -13.915  1.00  0.00    -0.271 OA
HETATM    5  N   UNL     1     -24.142  -2.887 -12.216  1.00  0.00    -0.157 N 
HETATM    6  C   UNL     1     -24.246  -3.221 -10.905  1.00  0.00     0.251 C 
HETATM    7  O   UNL     1     -25.232  -3.198 -10.186  1.00  0.00    -0.271 OA
ENDROOT
BRANCH   5   8
HETATM    8  O   UNL     1     -25.232  -2.514 -12.993  1.00  0.00    -0.277 OA
HETATM    9  H   UNL     1     -25.987  -2.743 -12.417  1.00  0.00     0.245 HD
ENDBRANCH   5   8
TORSDOF 1
ENDMDL
MODEL 5
REMARK VINA RESULT:      -5.2     10.316     10.887
REMARK  1 active torsions:
REMARK  status: ('A' for Active; 'I' for Inactive)
REMARK    1  A    between atoms: N_5  and  O_8 
ROOT
HETATM    1  C   UNL     1     -33.723  -3.961 -10.586  1.00  0.00     0.115 C 
HETATM    2  C   UNL     1     -33.798  -2.964 -11.736  1.00  0.00     0.115 C 
HETATM    3  C   UNL     1     -34.254  -3.790 -12.902  1.00  0.00     0.251 C 
HETATM    4  O   UNL     1     -34.291  -3.426 -14.067  1.00  0.00    -0.271 OA
HETATM    5  N   UNL     1     -34.649  -4.997 -12.424  1.00  0.00    -0.157 N 
HETATM    6  C   UNL     1     -34.416  -5.194 -11.102  1.00  0.00     0.251 C 
HETATM    7  O   UNL     1     -34.663  -6.176 -10.420  1.00  0.00    -0.271 OA
ENDROOT
BRANCH   5   8
HETATM    8  O   UNL     1     -35.169  -5.979 -13.258  1.00  0.00    -0.277 OA
HETATM    9  H   UNL     1     -34.803  -6.798 -12.870  1.00  0.00     0.245 HD
ENDBRANCH   5   8
TORSDOF 1
ENDMDL
MODEL 6
REMARK VINA RESULT:      -5.2     10.253     10.579
REMARK  1 active torsions:
REMARK  status: ('A' for Active; 'I' for Inactive)
REMARK    1  A    between atoms: N_5  and  O_8 
ROOT
HETATM    1  C   UNL     1     -33.720  -3.039 -11.768  1.00  0.00     0.115 C 
HETATM    2  C   UNL     1     -33.590  -4.078 -10.659  1.00  0.00     0.115 C 
HETATM    3  C   UNL     1     -34.324  -5.271 -11.194  1.00  0.00     0.251 C 
HETATM    4  O   UNL     1     -34.609  -6.278 -10.564  1.00  0.00    -0.271 OA
HETATM    5  N   UNL     1     -34.581  -5.045 -12.506  1.00  0.00    -0.157 N 
HETATM    6  C   UNL     1     -34.250  -3.806 -12.950  1.00  0.00     0.251 C 
HETATM    7  O   UNL     1     -34.375  -3.336 -14.069  1.00  0.00    -0.271 OA
ENDROOT
BRANCH   5   8
HETATM    8  O   UNL     1     -35.217  -5.991 -13.302  1.00  0.00    -0.277 OA
HETATM    9  H   UNL     1     -34.571  -6.127 -14.022  1.00  0.00     0.245 HD
ENDBRANCH   5   8
TORSDOF 1
ENDMDL
MODEL 7
REMARK VINA RESULT:      -5.0     10.222     10.733
REMARK  1 active torsions:
REMARK  status: ('A' for Active; 'I' for Inactive)
REMARK    1  A    between atoms: N_5  and  O_8 
ROOT
HETATM    1  C   UNL     1     -33.204  -3.717 -11.861  1.00  0.00     0.115 C 
HETATM    2  C   UNL     1     -33.644  -3.067 -10.554  1.00  0.00     0.115 C 
HETATM    3  C   UNL     1     -34.694  -2.083 -10.975  1.00  0.00     0.251 C 
HETATM    4  O   UNL     1     -35.200  -1.227 -10.265  1.00  0.00    -0.271 OA
HETATM    5  N   UNL     1     -35.002  -2.336 -12.271  1.00  0.00    -0.157 N 
HETATM    6  C   UNL     1     -34.229  -3.276 -12.871  1.00  0.00     0.251 C 
HETATM    7  O   UNL     1     -34.282  -3.692 -14.017  1.00  0.00    -0.271 OA
ENDROOT
BRANCH   5   8
HETATM    8  O   UNL     1     -35.982  -1.616 -12.945  1.00  0.00    -0.277 OA
HETATM    9  H   UNL     1     -36.803  -2.058 -12.653  1.00  0.00     0.245 HD
ENDBRANCH   5   8
TORSDOF 1
ENDMDL
MODEL 8
REMARK VINA RESULT:      -5.0      2.259      2.881
REMARK  1 active torsions:
REMARK  status: ('A' for Active; 'I' for Inactive)
REMARK    1  A    between atoms: N_5  and  O_8 
ROOT
HETATM    1  C   UNL     1     -24.175  -3.504 -10.721  1.00  0.00     0.115 C 
HETATM    2  C   UNL     1     -22.751  -3.641 -10.194  1.00  0.00     0.115 C 
HETATM    3  C   UNL     1     -21.911  -3.702 -11.434  1.00  0.00     0.251 C 
HETATM    4  O   UNL     1     -20.721  -3.976 -11.481  1.00  0.00    -0.271 OA
HETATM    5  N   UNL     1     -22.699  -3.365 -12.485  1.00  0.00    -0.157 N 
HETATM    6  C   UNL     1     -24.013  -3.201 -12.187  1.00  0.00     0.251 C 
HETATM    7  O   UNL     1     -24.935  -2.905 -12.930  1.00  0.00    -0.271 OA
ENDROOT
BRANCH   5   8
HETATM    8  O   UNL     1     -22.199  -3.286 -13.780  1.00  0.00    -0.277 OA
HETATM    9  H   UNL     1     -23.011  -3.157 -14.309  1.00  0.00     0.245 HD
ENDBRANCH   5   8
TORSDOF 1
ENDMDL
MODEL 9
REMARK VINA RESULT:      -5.0      2.293      3.639
REMARK  1 active torsions:
REMARK  status: ('A' for Active; 'I' for Inactive)
REMARK    1  A    between atoms: N_5  and  O_8 
ROOT
HETATM    1  C   UNL     1     -22.783  -3.629 -10.260  1.00  0.00     0.115 C 
HETATM    2  C   UNL     1     -24.200  -3.448 -10.792  1.00  0.00     0.115 C 
HETATM    3  C   UNL     1     -24.005  -3.144 -12.247  1.00  0.00     0.251 C 
HETATM    4  O   UNL     1     -24.870  -2.767 -13.023  1.00  0.00    -0.271 OA
HETATM    5  N   UNL     1     -22.707  -3.395 -12.551  1.00  0.00    -0.157 N 
HETATM    6  C   UNL     1     -21.920  -3.710 -11.491  1.00  0.00     0.251 C 
HETATM    7  O   UNL     1     -20.729  -3.975 -11.475  1.00  0.00    -0.271 OA
ENDROOT
BRANCH   5   8
HETATM    8  O   UNL     1     -22.217  -3.251 -13.844  1.00  0.00    -0.277 OA
HETATM    9  H   UNL     1     -21.816  -4.126 -14.014  1.00  0.00     0.245 HD
ENDBRANCH   5   8
TORSDOF 1
ENDMDL
