MODEL 1
REMARK VINA RESULT:      -7.0      0.000      0.000
REMARK  19 active torsions:
REMARK  status: ('A' for Active; 'I' for Inactive)
REMARK    1  A    between atoms: C_2  and  C_3 
REMARK    2  A    between atoms: C_3  and  C_4 
REMARK    3  A    between atoms: C_4  and  C_5 
REMARK    4  A    between atoms: C_5  and  C_6 
REMARK    5  A    between atoms: C_6  and  C_7 
REMARK    6  A    between atoms: C_7  and  C_8 
REMARK    7  A    between atoms: C_8  and  C_9 
REMARK    8  A    between atoms: C_9  and  C_10 
REMARK    9  A    between atoms: C_10  and  C_11 
REMARK   10  A    between atoms: C_11  and  C_12 
REMARK       I    between atoms: C_12  and  N_14 
REMARK   11  A    between atoms: N_14  and  C_15 
REMARK   12  A    between atoms: C_15  and  C_16 
REMARK   13  A    between atoms: C_16  and  C_17 
REMARK   14  A    between atoms: C_17  and  N_18 
REMARK   15  A    between atoms: N_18  and  C_21 
REMARK   16  A    between atoms: C_21  and  C_22 
REMARK   17  A    between atoms: C_22  and  C_23 
REMARK   18  A    between atoms: C_22  and  O_28 
REMARK   19  A    between atoms: C_23  and  S_24 
ROOT
HETATM    1  C   UNL     1     -21.674  -6.014  -4.973  1.00  0.00     0.217 C 
HETATM    2  O   UNL     1     -22.833  -6.327  -5.197  1.00  0.00    -0.274 OA
HETATM    3  N   UNL     1     -20.777  -5.719  -5.974  1.00  0.00    -0.361 N 
HETATM    4  H   UNL     1     -19.810  -5.476  -5.749  1.00  0.00     0.162 HD
ENDROOT
BRANCH   3   5
HETATM    5  C   UNL     1     -21.166  -5.899  -7.354  1.00  0.00     0.124 C 
BRANCH   5   6
HETATM    6  C   UNL     1     -21.482  -4.560  -8.009  1.00  0.00     0.047 C 
BRANCH   6   7
HETATM    7  C   UNL     1     -22.996  -4.390  -8.127  1.00  0.00     0.238 C 
BRANCH   7   8
HETATM    8  N   UNL     1     -23.448  -4.042  -9.560  1.00  0.00    -0.072 N 
HETATM    9  C   UNL     1     -23.785  -5.376 -10.238  1.00  0.00     0.272 C 
HETATM   10  C   UNL     1     -24.638  -3.094  -9.517  1.00  0.00     0.272 C 
BRANCH   8  11
HETATM   11  C   UNL     1     -22.298  -3.423 -10.422  1.00  0.00     0.269 C 
BRANCH  11  12
HETATM   12  C   UNL     1     -22.390  -3.502 -11.966  1.00  0.00     0.160 C 
BRANCH  12  13
HETATM   13  C   UNL     1     -22.799  -2.276 -12.756  1.00  0.00     0.198 C 
BRANCH  13  14
HETATM   14  S   UNL     1     -23.584  -2.660 -14.286  1.00  0.00     0.104 S 
HETATM   15  O   UNL     1     -24.381  -1.462 -14.506  1.00  0.00    -0.595 OA
HETATM   16  O   UNL     1     -22.436  -2.902 -15.150  1.00  0.00    -0.595 OA
HETATM   17  O   UNL     1     -24.358  -3.859 -13.990  1.00  0.00    -0.595 OA
ENDBRANCH  13  14
ENDBRANCH  12  13
BRANCH  12  18
HETATM   18  O   UNL     1     -21.147  -4.036 -12.464  1.00  0.00    -0.393 OA
HETATM   19  H   UNL     1     -21.342  -4.506 -13.316  1.00  0.00     0.210 HD
ENDBRANCH  12  18
ENDBRANCH  11  12
ENDBRANCH   8  11
ENDBRANCH   7   8
ENDBRANCH   6   7
ENDBRANCH   5   6
ENDBRANCH   3   5
BRANCH   1  20
HETATM   20  C   UNL     1     -21.119  -5.831  -3.582  1.00  0.00     0.103 C 
BRANCH  20  21
HETATM   21  C   UNL     1     -22.149  -6.285  -2.559  1.00  0.00     0.009 C 
BRANCH  21  22
HETATM   22  C   UNL     1     -21.527  -7.186  -1.502  1.00  0.00     0.000 C 
BRANCH  22  23
HETATM   23  C   UNL     1     -22.514  -7.383  -0.359  1.00  0.00     0.000 C 
BRANCH  23  24
HETATM   24  C   UNL     1     -22.293  -8.721   0.329  1.00  0.00     0.000 C 
BRANCH  24  25
HETATM   25  C   UNL     1     -23.427  -9.682  -0.007  1.00  0.00     0.000 C 
BRANCH  25  26
HETATM   26  C   UNL     1     -23.028 -10.596  -1.159  1.00  0.00     0.000 C 
BRANCH  26  27
HETATM   27  C   UNL     1     -23.092 -12.059  -0.736  1.00  0.00     0.000 C 
BRANCH  27  28
HETATM   28  C   UNL     1     -23.667 -12.185   0.672  1.00  0.00    -0.000 C 
BRANCH  28  29
HETATM   29  C   UNL     1     -23.341 -13.547   1.279  1.00  0.00    -0.005 C 
HETATM   30  C   UNL     1     -21.844 -13.718   1.462  1.00  0.00     0.005 C 
ENDBRANCH  28  29
ENDBRANCH  27  28
ENDBRANCH  26  27
ENDBRANCH  25  26
ENDBRANCH  24  25
ENDBRANCH  23  24
ENDBRANCH  22  23
ENDBRANCH  21  22
ENDBRANCH  20  21
ENDBRANCH   1  20
TORSDOF 19
ENDMDL
MODEL 2
REMARK VINA RESULT:      -6.8      1.699      2.816
REMARK  19 active torsions:
REMARK  status: ('A' for Active; 'I' for Inactive)
REMARK    1  A    between atoms: C_2  and  C_3 
REMARK    2  A    between atoms: C_3  and  C_4 
REMARK    3  A    between atoms: C_4  and  C_5 
REMARK    4  A    between atoms: C_5  and  C_6 
REMARK    5  A    between atoms: C_6  and  C_7 
REMARK    6  A    between atoms: C_7  and  C_8 
REMARK    7  A    between atoms: C_8  and  C_9 
REMARK    8  A    between atoms: C_9  and  C_10 
REMARK    9  A    between atoms: C_10  and  C_11 
REMARK   10  A    between atoms: C_11  and  C_12 
REMARK       I    between atoms: C_12  and  N_14 
REMARK   11  A    between atoms: N_14  and  C_15 
REMARK   12  A    between atoms: C_15  and  C_16 
REMARK   13  A    between atoms: C_16  and  C_17 
REMARK   14  A    between atoms: C_17  and  N_18 
REMARK   15  A    between atoms: N_18  and  C_21 
REMARK   16  A    between atoms: C_21  and  C_22 
REMARK   17  A    between atoms: C_22  and  C_23 
REMARK   18  A    between atoms: C_22  and  O_28 
REMARK   19  A    between atoms: C_23  and  S_24 
ROOT
HETATM    1  C   UNL     1     -21.609  -6.747  -2.616  1.00  0.00     0.217 C 
HETATM    2  O   UNL     1     -22.340  -5.800  -2.373  1.00  0.00    -0.274 OA
HETATM    3  N   UNL     1     -20.932  -6.876  -3.806  1.00  0.00    -0.361 N 
HETATM    4  H   UNL     1     -20.340  -7.692  -3.981  1.00  0.00     0.162 HD
ENDROOT
BRANCH   3   5
HETATM    5  C   UNL     1     -21.176  -5.930  -4.870  1.00  0.00     0.124 C 
BRANCH   5   6
HETATM    6  C   UNL     1     -20.306  -6.237  -6.082  1.00  0.00     0.047 C 
BRANCH   6   7
HETATM    7  C   UNL     1     -21.042  -5.834  -7.359  1.00  0.00     0.238 C 
BRANCH   7   8
HETATM    8  N   UNL     1     -20.508  -4.521  -7.967  1.00  0.00    -0.072 N 
HETATM    9  C   UNL     1     -21.377  -3.397  -7.389  1.00  0.00     0.272 C 
HETATM   10  C   UNL     1     -19.034  -4.350  -7.629  1.00  0.00     0.272 C 
BRANCH   8  11
HETATM   11  C   UNL     1     -20.717  -4.444  -9.517  1.00  0.00     0.269 C 
BRANCH  11  12
HETATM   12  C   UNL     1     -22.077  -3.951 -10.067  1.00  0.00     0.160 C 
BRANCH  12  13
HETATM   13  C   UNL     1     -22.136  -3.268 -11.418  1.00  0.00     0.198 C 
BRANCH  13  14
HETATM   14  S   UNL     1     -23.757  -3.225 -12.109  1.00  0.00     0.104 S 
HETATM   15  O   UNL     1     -23.636  -2.120 -13.050  1.00  0.00    -0.595 OA
HETATM   16  O   UNL     1     -23.886  -4.577 -12.634  1.00  0.00    -0.595 OA
HETATM   17  O   UNL     1     -24.617  -2.956 -10.964  1.00  0.00    -0.595 OA
ENDBRANCH  13  14
ENDBRANCH  12  13
BRANCH  12  18
HETATM   18  O   UNL     1     -23.009  -5.051 -10.013  1.00  0.00    -0.393 OA
HETATM   19  H   UNL     1     -23.534  -5.041 -10.855  1.00  0.00     0.210 HD
ENDBRANCH  12  18
ENDBRANCH  11  12
ENDBRANCH   8  11
ENDBRANCH   7   8
ENDBRANCH   6   7
ENDBRANCH   5   6
ENDBRANCH   3   5
BRANCH   1  20
HETATM   20  C   UNL     1     -21.297  -7.833  -1.615  1.00  0.00     0.103 C 
BRANCH  20  21
HETATM   21  C   UNL     1     -22.192  -7.672  -0.395  1.00  0.00     0.009 C 
BRANCH  21  22
HETATM   22  C   UNL     1     -21.925  -8.756   0.640  1.00  0.00     0.000 C 
BRANCH  22  23
HETATM   23  C   UNL     1     -22.100 -10.125  -0.005  1.00  0.00     0.000 C 
BRANCH  23  24
HETATM   24  C   UNL     1     -23.570 -10.428  -0.252  1.00  0.00     0.000 C 
BRANCH  24  25
HETATM   25  C   UNL     1     -23.902 -11.841   0.212  1.00  0.00     0.000 C 
BRANCH  25  26
HETATM   26  C   UNL     1     -23.271 -12.870  -0.716  1.00  0.00     0.000 C 
BRANCH  26  27
HETATM   27  C   UNL     1     -22.410 -13.853   0.069  1.00  0.00     0.000 C 
BRANCH  27  28
HETATM   28  C   UNL     1     -22.208 -13.362   1.500  1.00  0.00    -0.000 C 
BRANCH  28  29
HETATM   29  C   UNL     1     -22.483 -14.476   2.506  1.00  0.00    -0.005 C 
HETATM   30  C   UNL     1     -23.949 -14.506   2.898  1.00  0.00     0.005 C 
ENDBRANCH  28  29
ENDBRANCH  27  28
ENDBRANCH  26  27
ENDBRANCH  25  26
ENDBRANCH  24  25
ENDBRANCH  23  24
ENDBRANCH  22  23
ENDBRANCH  21  22
ENDBRANCH  20  21
ENDBRANCH   1  20
TORSDOF 19
ENDMDL
MODEL 3
REMARK VINA RESULT:      -6.6      5.079     10.772
REMARK  19 active torsions:
REMARK  status: ('A' for Active; 'I' for Inactive)
REMARK    1  A    between atoms: C_2  and  C_3 
REMARK    2  A    between atoms: C_3  and  C_4 
REMARK    3  A    between atoms: C_4  and  C_5 
REMARK    4  A    between atoms: C_5  and  C_6 
REMARK    5  A    between atoms: C_6  and  C_7 
REMARK    6  A    between atoms: C_7  and  C_8 
REMARK    7  A    between atoms: C_8  and  C_9 
REMARK    8  A    between atoms: C_9  and  C_10 
REMARK    9  A    between atoms: C_10  and  C_11 
REMARK   10  A    between atoms: C_11  and  C_12 
REMARK       I    between atoms: C_12  and  N_14 
REMARK   11  A    between atoms: N_14  and  C_15 
REMARK   12  A    between atoms: C_15  and  C_16 
REMARK   13  A    between atoms: C_16  and  C_17 
REMARK   14  A    between atoms: C_17  and  N_18 
REMARK   15  A    between atoms: N_18  and  C_21 
REMARK   16  A    between atoms: C_21  and  C_22 
REMARK   17  A    between atoms: C_22  and  C_23 
REMARK   18  A    between atoms: C_22  and  O_28 
REMARK   19  A    between atoms: C_23  and  S_24 
ROOT
HETATM    1  C   UNL     1     -21.603  -6.601  -4.136  1.00  0.00     0.217 C 
HETATM    2  O   UNL     1     -22.668  -6.148  -4.526  1.00  0.00    -0.274 OA
HETATM    3  N   UNL     1     -21.311  -6.769  -2.802  1.00  0.00    -0.361 N 
HETATM    4  H   UNL     1     -20.402  -7.137  -2.512  1.00  0.00     0.162 HD
ENDROOT
BRANCH   3   5
HETATM    5  C   UNL     1     -22.236  -6.285  -1.804  1.00  0.00     0.124 C 
BRANCH   5   6
HETATM    6  C   UNL     1     -22.274  -7.217  -0.599  1.00  0.00     0.047 C 
BRANCH   6   7
HETATM    7  C   UNL     1     -21.161  -8.257  -0.718  1.00  0.00     0.238 C 
BRANCH   7   8
HETATM    8  N   UNL     1     -21.647  -9.689  -0.415  1.00  0.00    -0.072 N 
HETATM    9  C   UNL     1     -20.865 -10.155   0.818  1.00  0.00     0.272 C 
HETATM   10  C   UNL     1     -23.152  -9.692  -0.186  1.00  0.00     0.272 C 
BRANCH   8  11
HETATM   11  C   UNL     1     -21.273 -10.705  -1.546  1.00  0.00     0.269 C 
BRANCH  11  12
HETATM   12  C   UNL     1     -22.286 -10.962  -2.689  1.00  0.00     0.160 C 
BRANCH  12  13
HETATM   13  C   UNL     1     -22.019 -10.393  -4.067  1.00  0.00     0.198 C 
BRANCH  13  14
HETATM   14  S   UNL     1     -21.473 -11.601  -5.229  1.00  0.00     0.104 S 
HETATM   15  O   UNL     1     -21.082 -10.760  -6.352  1.00  0.00    -0.595 OA
HETATM   16  O   UNL     1     -20.433 -12.283  -4.473  1.00  0.00    -0.595 OA
HETATM   17  O   UNL     1     -22.657 -12.417  -5.465  1.00  0.00    -0.595 OA
ENDBRANCH  13  14
ENDBRANCH  12  13
BRANCH  12  18
HETATM   18  O   UNL     1     -22.528 -12.382  -2.765  1.00  0.00    -0.393 OA
HETATM   19  H   UNL     1     -23.504 -12.525  -2.655  1.00  0.00     0.210 HD
ENDBRANCH  12  18
ENDBRANCH  11  12
ENDBRANCH   8  11
ENDBRANCH   7   8
ENDBRANCH   6   7
ENDBRANCH   5   6
ENDBRANCH   3   5
BRANCH   1  20
HETATM   20  C   UNL     1     -20.527  -7.105  -5.066  1.00  0.00     0.103 C 
BRANCH  20  21
HETATM   21  C   UNL     1     -20.570  -6.320  -6.368  1.00  0.00     0.009 C 
BRANCH  21  22
HETATM   22  C   UNL     1     -19.876  -4.972  -6.230  1.00  0.00     0.000 C 
BRANCH  22  23
HETATM   23  C   UNL     1     -20.370  -4.034  -7.324  1.00  0.00     0.000 C 
BRANCH  23  24
HETATM   24  C   UNL     1     -19.968  -4.541  -8.700  1.00  0.00     0.000 C 
BRANCH  24  25
HETATM   25  C   UNL     1     -20.613  -3.688  -9.786  1.00  0.00     0.000 C 
BRANCH  25  26
HETATM   26  C   UNL     1     -20.852  -4.514 -11.042  1.00  0.00     0.000 C 
BRANCH  26  27
HETATM   27  C   UNL     1     -21.914  -3.866 -11.924  1.00  0.00     0.000 C 
BRANCH  27  28
HETATM   28  C   UNL     1     -23.289  -4.459 -11.629  1.00  0.00    -0.000 C 
BRANCH  28  29
HETATM   29  C   UNL     1     -24.250  -3.390 -11.117  1.00  0.00    -0.005 C 
HETATM   30  C   UNL     1     -24.373  -3.447  -9.605  1.00  0.00     0.005 C 
ENDBRANCH  28  29
ENDBRANCH  27  28
ENDBRANCH  26  27
ENDBRANCH  25  26
ENDBRANCH  24  25
ENDBRANCH  23  24
ENDBRANCH  22  23
ENDBRANCH  21  22
ENDBRANCH  20  21
ENDBRANCH   1  20
TORSDOF 19
ENDMDL
MODEL 4
REMARK VINA RESULT:      -6.4      5.659     11.151
REMARK  19 active torsions:
REMARK  status: ('A' for Active; 'I' for Inactive)
REMARK    1  A    between atoms: C_2  and  C_3 
REMARK    2  A    between atoms: C_3  and  C_4 
REMARK    3  A    between atoms: C_4  and  C_5 
REMARK    4  A    between atoms: C_5  and  C_6 
REMARK    5  A    between atoms: C_6  and  C_7 
REMARK    6  A    between atoms: C_7  and  C_8 
REMARK    7  A    between atoms: C_8  and  C_9 
REMARK    8  A    between atoms: C_9  and  C_10 
REMARK    9  A    between atoms: C_10  and  C_11 
REMARK   10  A    between atoms: C_11  and  C_12 
REMARK       I    between atoms: C_12  and  N_14 
REMARK   11  A    between atoms: N_14  and  C_15 
REMARK   12  A    between atoms: C_15  and  C_16 
REMARK   13  A    between atoms: C_16  and  C_17 
REMARK   14  A    between atoms: C_17  and  N_18 
REMARK   15  A    between atoms: N_18  and  C_21 
REMARK   16  A    between atoms: C_21  and  C_22 
REMARK   17  A    between atoms: C_22  and  C_23 
REMARK   18  A    between atoms: C_22  and  O_28 
REMARK   19  A    between atoms: C_23  and  S_24 
ROOT
HETATM    1  C   UNL     1     -21.828  -6.700  -2.735  1.00  0.00     0.217 C 
HETATM    2  O   UNL     1     -22.659  -5.821  -2.569  1.00  0.00    -0.274 OA
HETATM    3  N   UNL     1     -21.473  -7.585  -1.744  1.00  0.00    -0.361 N 
HETATM    4  H   UNL     1     -20.761  -8.299  -1.915  1.00  0.00     0.162 HD
ENDROOT
BRANCH   3   5
HETATM    5  C   UNL     1     -22.000  -7.408  -0.410  1.00  0.00     0.124 C 
BRANCH   5   6
HETATM    6  C   UNL     1     -22.613  -8.702   0.109  1.00  0.00     0.047 C 
BRANCH   6   7
HETATM    7  C   UNL     1     -21.609  -9.844  -0.043  1.00  0.00     0.238 C 
BRANCH   7   8
HETATM    8  N   UNL     1     -22.277 -11.179  -0.432  1.00  0.00    -0.072 N 
HETATM    9  C   UNL     1     -21.854 -12.196   0.636  1.00  0.00     0.272 C 
HETATM   10  C   UNL     1     -23.787 -11.006  -0.505  1.00  0.00     0.272 C 
BRANCH   8  11
HETATM   11  C   UNL     1     -21.734 -11.754  -1.783  1.00  0.00     0.269 C 
BRANCH  11  12
HETATM   12  C   UNL     1     -21.187 -10.774  -2.850  1.00  0.00     0.160 C 
BRANCH  12  13
HETATM   13  C   UNL     1     -19.979 -11.164  -3.676  1.00  0.00     0.198 C 
BRANCH  13  14
HETATM   14  S   UNL     1     -18.653 -10.010  -3.563  1.00  0.00     0.104 S 
HETATM   15  O   UNL     1     -17.524 -10.896  -3.314  1.00  0.00    -0.595 OA
HETATM   16  O   UNL     1     -18.741  -9.337  -4.851  1.00  0.00    -0.595 OA
HETATM   17  O   UNL     1     -19.021  -9.165  -2.434  1.00  0.00    -0.595 OA
ENDBRANCH  13  14
ENDBRANCH  12  13
BRANCH  12  18
HETATM   18  O   UNL     1     -22.282 -10.383  -3.704  1.00  0.00    -0.393 OA
HETATM   19  H   UNL     1     -21.913  -9.793  -4.411  1.00  0.00     0.210 HD
ENDBRANCH  12  18
ENDBRANCH  11  12
ENDBRANCH   8  11
ENDBRANCH   7   8
ENDBRANCH   6   7
ENDBRANCH   5   6
ENDBRANCH   3   5
BRANCH   1  20
HETATM   20  C   UNL     1     -21.164  -6.972  -4.063  1.00  0.00     0.103 C 
BRANCH  20  21
HETATM   21  C   UNL     1     -20.908  -5.657  -4.783  1.00  0.00     0.009 C 
BRANCH  21  22
HETATM   22  C   UNL     1     -20.184  -5.876  -6.104  1.00  0.00     0.000 C 
BRANCH  22  23
HETATM   23  C   UNL     1     -20.105  -4.557  -6.862  1.00  0.00     0.000 C 
BRANCH  23  24
HETATM   24  C   UNL     1     -21.487  -4.088  -7.289  1.00  0.00     0.000 C 
BRANCH  24  25
HETATM   25  C   UNL     1     -21.688  -4.328  -8.781  1.00  0.00     0.000 C 
BRANCH  25  26
HETATM   26  C   UNL     1     -20.350  -4.328  -9.507  1.00  0.00     0.000 C 
BRANCH  26  27
HETATM   27  C   UNL     1     -20.538  -4.035 -10.991  1.00  0.00     0.000 C 
BRANCH  27  28
HETATM   28  C   UNL     1     -22.013  -4.127 -11.372  1.00  0.00    -0.000 C 
BRANCH  28  29
HETATM   29  C   UNL     1     -22.464  -2.882 -12.131  1.00  0.00    -0.005 C 
HETATM   30  C   UNL     1     -23.958  -2.916 -12.393  1.00  0.00     0.005 C 
ENDBRANCH  28  29
ENDBRANCH  27  28
ENDBRANCH  26  27
ENDBRANCH  25  26
ENDBRANCH  24  25
ENDBRANCH  23  24
ENDBRANCH  22  23
ENDBRANCH  21  22
ENDBRANCH  20  21
ENDBRANCH   1  20
TORSDOF 19
ENDMDL
MODEL 5
REMARK VINA RESULT:      -6.4      5.736     10.574
REMARK  19 active torsions:
REMARK  status: ('A' for Active; 'I' for Inactive)
REMARK    1  A    between atoms: C_2  and  C_3 
REMARK    2  A    between atoms: C_3  and  C_4 
REMARK    3  A    between atoms: C_4  and  C_5 
REMARK    4  A    between atoms: C_5  and  C_6 
REMARK    5  A    between atoms: C_6  and  C_7 
REMARK    6  A    between atoms: C_7  and  C_8 
REMARK    7  A    between atoms: C_8  and  C_9 
REMARK    8  A    between atoms: C_9  and  C_10 
REMARK    9  A    between atoms: C_10  and  C_11 
REMARK   10  A    between atoms: C_11  and  C_12 
REMARK       I    between atoms: C_12  and  N_14 
REMARK   11  A    between atoms: N_14  and  C_15 
REMARK   12  A    between atoms: C_15  and  C_16 
REMARK   13  A    between atoms: C_16  and  C_17 
REMARK   14  A    between atoms: C_17  and  N_18 
REMARK   15  A    between atoms: N_18  and  C_21 
REMARK   16  A    between atoms: C_21  and  C_22 
REMARK   17  A    between atoms: C_22  and  C_23 
REMARK   18  A    between atoms: C_22  and  O_28 
REMARK   19  A    between atoms: C_23  and  S_24 
ROOT
HETATM    1  C   UNL     1     -22.348  -7.236  -0.637  1.00  0.00     0.217 C 
HETATM    2  O   UNL     1     -23.374  -7.404   0.003  1.00  0.00    -0.274 OA
HETATM    3  N   UNL     1     -21.202  -7.962  -0.410  1.00  0.00    -0.361 N 
HETATM    4  H   UNL     1     -20.356  -7.782  -0.956  1.00  0.00     0.162 HD
ENDROOT
BRANCH   3   5
HETATM    5  C   UNL     1     -21.150  -8.878   0.706  1.00  0.00     0.124 C 
BRANCH   5   6
HETATM    6  C   UNL     1     -21.228 -10.322   0.228  1.00  0.00     0.047 C 
BRANCH   6   7
HETATM    7  C   UNL     1     -20.699 -10.421  -1.202  1.00  0.00     0.238 C 
BRANCH   7   8
HETATM    8  N   UNL     1     -19.887 -11.709  -1.450  1.00  0.00    -0.072 N 
HETATM    9  C   UNL     1     -18.966 -11.875  -0.235  1.00  0.00     0.272 C 
HETATM   10  C   UNL     1     -20.826 -12.891  -1.635  1.00  0.00     0.272 C 
BRANCH   8  11
HETATM   11  C   UNL     1     -18.925 -11.587  -2.680  1.00  0.00     0.269 C 
BRANCH  11  12
HETATM   12  C   UNL     1     -19.013 -10.331  -3.580  1.00  0.00     0.160 C 
BRANCH  12  13
HETATM   13  C   UNL     1     -17.741  -9.642  -4.031  1.00  0.00     0.198 C 
BRANCH  13  14
HETATM   14  S   UNL     1     -17.276 -10.046  -5.682  1.00  0.00     0.104 S 
HETATM   15  O   UNL     1     -17.471 -11.489  -5.688  1.00  0.00    -0.595 OA
HETATM   16  O   UNL     1     -18.191  -9.216  -6.454  1.00  0.00    -0.595 OA
HETATM   17  O   UNL     1     -15.885  -9.620  -5.767  1.00  0.00    -0.595 OA
ENDBRANCH  13  14
ENDBRANCH  12  13
BRANCH  12  18
HETATM   18  O   UNL     1     -19.849 -10.646  -4.712  1.00  0.00    -0.393 OA
HETATM   19  H   UNL     1     -19.253 -10.805  -5.489  1.00  0.00     0.210 HD
ENDBRANCH  12  18
ENDBRANCH  11  12
ENDBRANCH   8  11
ENDBRANCH   7   8
ENDBRANCH   6   7
ENDBRANCH   5   6
ENDBRANCH   3   5
BRANCH   1  20
HETATM   20  C   UNL     1     -22.246  -6.281  -1.802  1.00  0.00     0.103 C 
BRANCH  20  21
HETATM   21  C   UNL     1     -21.226  -6.805  -2.801  1.00  0.00     0.009 C 
BRANCH  21  22
HETATM   22  C   UNL     1     -21.477  -6.251  -4.197  1.00  0.00     0.000 C 
BRANCH  22  23
HETATM   23  C   UNL     1     -20.581  -6.972  -5.196  1.00  0.00     0.000 C 
BRANCH  23  24
HETATM   24  C   UNL     1     -20.312  -6.103  -6.415  1.00  0.00     0.000 C 
BRANCH  24  25
HETATM   25  C   UNL     1     -20.443  -4.629  -6.051  1.00  0.00     0.000 C 
BRANCH  25  26
HETATM   26  C   UNL     1     -20.960  -3.830  -7.241  1.00  0.00     0.000 C 
BRANCH  26  27
HETATM   27  C   UNL     1     -21.051  -4.707  -8.484  1.00  0.00     0.000 C 
BRANCH  27  28
HETATM   28  C   UNL     1     -20.263  -4.088  -9.635  1.00  0.00    -0.000 C 
BRANCH  28  29
HETATM   29  C   UNL     1     -20.945  -4.356 -10.974  1.00  0.00    -0.005 C 
HETATM   30  C   UNL     1     -21.667  -3.119 -11.475  1.00  0.00     0.005 C 
ENDBRANCH  28  29
ENDBRANCH  27  28
ENDBRANCH  26  27
ENDBRANCH  25  26
ENDBRANCH  24  25
ENDBRANCH  23  24
ENDBRANCH  22  23
ENDBRANCH  21  22
ENDBRANCH  20  21
ENDBRANCH   1  20
TORSDOF 19
ENDMDL
MODEL 6
REMARK VINA RESULT:      -6.3      5.472     10.419
REMARK  19 active torsions:
REMARK  status: ('A' for Active; 'I' for Inactive)
REMARK    1  A    between atoms: C_2  and  C_3 
REMARK    2  A    between atoms: C_3  and  C_4 
REMARK    3  A    between atoms: C_4  and  C_5 
REMARK    4  A    between atoms: C_5  and  C_6 
REMARK    5  A    between atoms: C_6  and  C_7 
REMARK    6  A    between atoms: C_7  and  C_8 
REMARK    7  A    between atoms: C_8  and  C_9 
REMARK    8  A    between atoms: C_9  and  C_10 
REMARK    9  A    between atoms: C_10  and  C_11 
REMARK   10  A    between atoms: C_11  and  C_12 
REMARK       I    between atoms: C_12  and  N_14 
REMARK   11  A    between atoms: N_14  and  C_15 
REMARK   12  A    between atoms: C_15  and  C_16 
REMARK   13  A    between atoms: C_16  and  C_17 
REMARK   14  A    between atoms: C_17  and  N_18 
REMARK   15  A    between atoms: N_18  and  C_21 
REMARK   16  A    between atoms: C_21  and  C_22 
REMARK   17  A    between atoms: C_22  and  C_23 
REMARK   18  A    between atoms: C_22  and  O_28 
REMARK   19  A    between atoms: C_23  and  S_24 
ROOT
HETATM    1  C   UNL     1     -21.616  -6.468  -3.080  1.00  0.00     0.217 C 
HETATM    2  O   UNL     1     -22.290  -5.961  -2.197  1.00  0.00    -0.274 OA
HETATM    3  N   UNL     1     -20.798  -7.552  -2.861  1.00  0.00    -0.361 N 
HETATM    4  H   UNL     1     -20.235  -7.941  -3.622  1.00  0.00     0.162 HD
ENDROOT
BRANCH   3   5
HETATM    5  C   UNL     1     -20.620  -8.050  -1.516  1.00  0.00     0.124 C 
BRANCH   5   6
HETATM    6  C   UNL     1     -21.460  -9.300  -1.283  1.00  0.00     0.047 C 
BRANCH   6   7
HETATM    7  C   UNL     1     -21.791  -9.954  -2.624  1.00  0.00     0.238 C 
BRANCH   7   8
HETATM    8  N   UNL     1     -21.296 -11.413  -2.715  1.00  0.00    -0.072 N 
HETATM    9  C   UNL     1     -20.577 -11.704  -1.392  1.00  0.00     0.272 C 
HETATM   10  C   UNL     1     -22.471 -12.349  -2.957  1.00  0.00     0.272 C 
BRANCH   8  11
HETATM   11  C   UNL     1     -20.210 -11.614  -3.824  1.00  0.00     0.269 C 
BRANCH  11  12
HETATM   12  C   UNL     1     -19.657 -10.372  -4.566  1.00  0.00     0.160 C 
BRANCH  12  13
HETATM   13  C   UNL     1     -18.213  -9.961  -4.366  1.00  0.00     0.198 C 
BRANCH  13  14
HETATM   14  S   UNL     1     -17.231 -10.130  -5.820  1.00  0.00     0.104 S 
HETATM   15  O   UNL     1     -17.813  -9.107  -6.677  1.00  0.00    -0.595 OA
HETATM   16  O   UNL     1     -15.890  -9.918  -5.292  1.00  0.00    -0.595 OA
HETATM   17  O   UNL     1     -17.481 -11.499  -6.252  1.00  0.00    -0.595 OA
ENDBRANCH  13  14
ENDBRANCH  12  13
BRANCH  12  18
HETATM   18  O   UNL     1     -19.953 -10.519  -5.970  1.00  0.00    -0.393 OA
HETATM   19  H   UNL     1     -19.136 -10.864  -6.414  1.00  0.00     0.210 HD
ENDBRANCH  12  18
ENDBRANCH  11  12
ENDBRANCH   8  11
ENDBRANCH   7   8
ENDBRANCH   6   7
ENDBRANCH   5   6
ENDBRANCH   3   5
BRANCH   1  20
HETATM   20  C   UNL     1     -21.668  -6.023  -4.521  1.00  0.00     0.103 C 
BRANCH  20  21
HETATM   21  C   UNL     1     -20.799  -6.940  -5.368  1.00  0.00     0.009 C 
BRANCH  21  22
HETATM   22  C   UNL     1     -20.038  -6.161  -6.433  1.00  0.00     0.000 C 
BRANCH  22  23
HETATM   23  C   UNL     1     -20.195  -4.668  -6.176  1.00  0.00     0.000 C 
BRANCH  23  24
HETATM   24  C   UNL     1     -20.943  -3.994  -7.316  1.00  0.00     0.000 C 
BRANCH  24  25
HETATM   25  C   UNL     1     -20.853  -4.839  -8.580  1.00  0.00     0.000 C 
BRANCH  25  26
HETATM   26  C   UNL     1     -20.222  -4.040  -9.713  1.00  0.00     0.000 C 
BRANCH  26  27
HETATM   27  C   UNL     1     -20.951  -4.294 -11.027  1.00  0.00     0.000 C 
BRANCH  27  28
HETATM   28  C   UNL     1     -21.638  -3.021 -11.513  1.00  0.00    -0.000 C 
BRANCH  28  29
HETATM   29  C   UNL     1     -23.133  -3.249 -11.722  1.00  0.00    -0.005 C 
HETATM   30  C   UNL     1     -23.496  -4.707 -11.508  1.00  0.00     0.005 C 
ENDBRANCH  28  29
ENDBRANCH  27  28
ENDBRANCH  26  27
ENDBRANCH  25  26
ENDBRANCH  24  25
ENDBRANCH  23  24
ENDBRANCH  22  23
ENDBRANCH  21  22
ENDBRANCH  20  21
ENDBRANCH   1  20
TORSDOF 19
ENDMDL
MODEL 7
REMARK VINA RESULT:      -6.2      5.464     10.815
REMARK  19 active torsions:
REMARK  status: ('A' for Active; 'I' for Inactive)
REMARK    1  A    between atoms: C_2  and  C_3 
REMARK    2  A    between atoms: C_3  and  C_4 
REMARK    3  A    between atoms: C_4  and  C_5 
REMARK    4  A    between atoms: C_5  and  C_6 
REMARK    5  A    between atoms: C_6  and  C_7 
REMARK    6  A    between atoms: C_7  and  C_8 
REMARK    7  A    between atoms: C_8  and  C_9 
REMARK    8  A    between atoms: C_9  and  C_10 
REMARK    9  A    between atoms: C_10  and  C_11 
REMARK   10  A    between atoms: C_11  and  C_12 
REMARK       I    between atoms: C_12  and  N_14 
REMARK   11  A    between atoms: N_14  and  C_15 
REMARK   12  A    between atoms: C_15  and  C_16 
REMARK   13  A    between atoms: C_16  and  C_17 
REMARK   14  A    between atoms: C_17  and  N_18 
REMARK   15  A    between atoms: N_18  and  C_21 
REMARK   16  A    between atoms: C_21  and  C_22 
REMARK   17  A    between atoms: C_22  and  C_23 
REMARK   18  A    between atoms: C_22  and  O_28 
REMARK   19  A    between atoms: C_23  and  S_24 
ROOT
HETATM    1  C   UNL     1     -21.772  -6.682  -3.288  1.00  0.00     0.217 C 
HETATM    2  O   UNL     1     -22.436  -5.963  -2.558  1.00  0.00    -0.274 OA
HETATM    3  N   UNL     1     -21.008  -7.722  -2.812  1.00  0.00    -0.361 N 
HETATM    4  H   UNL     1     -20.453  -8.294  -3.452  1.00  0.00     0.162 HD
ENDROOT
BRANCH   3   5
HETATM    5  C   UNL     1     -20.874  -7.912  -1.386  1.00  0.00     0.124 C 
BRANCH   5   6
HETATM    6  C   UNL     1     -21.740  -9.070  -0.907  1.00  0.00     0.047 C 
BRANCH   6   7
HETATM    7  C   UNL     1     -20.868 -10.106  -0.199  1.00  0.00     0.238 C 
BRANCH   7   8
HETATM    8  N   UNL     1     -20.559 -11.331  -1.084  1.00  0.00    -0.072 N 
HETATM    9  C   UNL     1     -19.148 -11.110  -1.643  1.00  0.00     0.272 C 
HETATM   10  C   UNL     1     -20.666 -12.608  -0.264  1.00  0.00     0.272 C 
BRANCH   8  11
HETATM   11  C   UNL     1     -21.489 -11.418  -2.340  1.00  0.00     0.269 C 
BRANCH  11  12
HETATM   12  C   UNL     1     -20.873 -11.213  -3.746  1.00  0.00     0.160 C 
BRANCH  12  13
HETATM   13  C   UNL     1     -20.680 -12.404  -4.660  1.00  0.00     0.198 C 
BRANCH  13  14
HETATM   14  S   UNL     1     -20.393 -11.956  -6.341  1.00  0.00     0.104 S 
HETATM   15  O   UNL     1     -19.631 -13.103  -6.815  1.00  0.00    -0.595 OA
HETATM   16  O   UNL     1     -21.752 -11.772  -6.830  1.00  0.00    -0.595 OA
HETATM   17  O   UNL     1     -19.630 -10.718  -6.246  1.00  0.00    -0.595 OA
ENDBRANCH  13  14
ENDBRANCH  12  13
BRANCH  12  18
HETATM   18  O   UNL     1     -21.616 -10.173  -4.415  1.00  0.00    -0.393 OA
HETATM   19  H   UNL     1     -21.328  -9.305  -4.033  1.00  0.00     0.210 HD
ENDBRANCH  12  18
ENDBRANCH  11  12
ENDBRANCH   8  11
ENDBRANCH   7   8
ENDBRANCH   6   7
ENDBRANCH   5   6
ENDBRANCH   3   5
BRANCH   1  20
HETATM   20  C   UNL     1     -21.782  -6.570  -4.793  1.00  0.00     0.103 C 
BRANCH  20  21
HETATM   21  C   UNL     1     -20.832  -5.465  -5.228  1.00  0.00     0.009 C 
BRANCH  21  22
HETATM   22  C   UNL     1     -20.026  -5.872  -6.453  1.00  0.00     0.000 C 
BRANCH  22  23
HETATM   23  C   UNL     1     -19.616  -4.625  -7.226  1.00  0.00     0.000 C 
BRANCH  23  24
HETATM   24  C   UNL     1     -20.815  -3.730  -7.497  1.00  0.00     0.000 C 
BRANCH  24  25
HETATM   25  C   UNL     1     -21.545  -4.191  -8.753  1.00  0.00     0.000 C 
BRANCH  25  26
HETATM   26  C   UNL     1     -20.585  -4.260  -9.933  1.00  0.00     0.000 C 
BRANCH  26  27
HETATM   27  C   UNL     1     -21.337  -4.124 -11.252  1.00  0.00     0.000 C 
BRANCH  27  28
HETATM   28  C   UNL     1     -22.788  -4.568 -11.089  1.00  0.00    -0.000 C 
BRANCH  28  29
HETATM   29  C   UNL     1     -23.664  -4.003 -12.203  1.00  0.00    -0.005 C 
HETATM   30  C   UNL     1     -23.043  -2.755 -12.804  1.00  0.00     0.005 C 
ENDBRANCH  28  29
ENDBRANCH  27  28
ENDBRANCH  26  27
ENDBRANCH  25  26
ENDBRANCH  24  25
ENDBRANCH  23  24
ENDBRANCH  22  23
ENDBRANCH  21  22
ENDBRANCH  20  21
ENDBRANCH   1  20
TORSDOF 19
ENDMDL
MODEL 8
REMARK VINA RESULT:      -6.2      6.016     11.286
REMARK  19 active torsions:
REMARK  status: ('A' for Active; 'I' for Inactive)
REMARK    1  A    between atoms: C_2  and  C_3 
REMARK    2  A    between atoms: C_3  and  C_4 
REMARK    3  A    between atoms: C_4  and  C_5 
REMARK    4  A    between atoms: C_5  and  C_6 
REMARK    5  A    between atoms: C_6  and  C_7 
REMARK    6  A    between atoms: C_7  and  C_8 
REMARK    7  A    between atoms: C_8  and  C_9 
REMARK    8  A    between atoms: C_9  and  C_10 
REMARK    9  A    between atoms: C_10  and  C_11 
REMARK   10  A    between atoms: C_11  and  C_12 
REMARK       I    between atoms: C_12  and  N_14 
REMARK   11  A    between atoms: N_14  and  C_15 
REMARK   12  A    between atoms: C_15  and  C_16 
REMARK   13  A    between atoms: C_16  and  C_17 
REMARK   14  A    between atoms: C_17  and  N_18 
REMARK   15  A    between atoms: N_18  and  C_21 
REMARK   16  A    between atoms: C_21  and  C_22 
REMARK   17  A    between atoms: C_22  and  C_23 
REMARK   18  A    between atoms: C_22  and  O_28 
REMARK   19  A    between atoms: C_23  and  S_24 
ROOT
HETATM    1  C   UNL     1     -21.741  -6.578  -3.194  1.00  0.00     0.217 C 
HETATM    2  O   UNL     1     -22.360  -5.856  -2.429  1.00  0.00    -0.274 OA
HETATM    3  N   UNL     1     -20.947  -7.614  -2.760  1.00  0.00    -0.361 N 
HETATM    4  H   UNL     1     -20.430  -8.189  -3.430  1.00  0.00     0.162 HD
ENDROOT
BRANCH   3   5
HETATM    5  C   UNL     1     -20.726  -7.796  -1.344  1.00  0.00     0.124 C 
BRANCH   5   6
HETATM    6  C   UNL     1     -21.436  -9.045  -0.838  1.00  0.00     0.047 C 
BRANCH   6   7
HETATM    7  C   UNL     1     -21.771  -9.959  -2.016  1.00  0.00     0.238 C 
BRANCH   7   8
HETATM    8  N   UNL     1     -20.872 -11.211  -2.076  1.00  0.00    -0.072 N 
HETATM    9  C   UNL     1     -19.986 -11.161  -0.825  1.00  0.00     0.272 C 
HETATM   10  C   UNL     1     -21.729 -12.467  -2.132  1.00  0.00     0.272 C 
BRANCH   8  11
HETATM   11  C   UNL     1     -19.877 -11.182  -3.284  1.00  0.00     0.269 C 
BRANCH  11  12
HETATM   12  C   UNL     1     -18.497 -10.506  -3.103  1.00  0.00     0.160 C 
BRANCH  12  13
HETATM   13  C   UNL     1     -17.242 -11.236  -3.537  1.00  0.00     0.198 C 
BRANCH  13  14
HETATM   14  S   UNL     1     -15.829 -10.839  -2.561  1.00  0.00     0.104 S 
HETATM   15  O   UNL     1     -14.797 -11.627  -3.220  1.00  0.00    -0.595 OA
HETATM   16  O   UNL     1     -15.786  -9.389  -2.687  1.00  0.00    -0.595 OA
HETATM   17  O   UNL     1     -16.187 -11.301  -1.226  1.00  0.00    -0.595 OA
ENDBRANCH  13  14
ENDBRANCH  12  13
BRANCH  12  18
HETATM   18  O   UNL     1     -18.555  -9.196  -3.704  1.00  0.00    -0.393 OA
HETATM   19  H   UNL     1     -18.642  -8.534  -2.972  1.00  0.00     0.210 HD
ENDBRANCH  12  18
ENDBRANCH  11  12
ENDBRANCH   8  11
ENDBRANCH   7   8
ENDBRANCH   6   7
ENDBRANCH   5   6
ENDBRANCH   3   5
BRANCH   1  20
HETATM   20  C   UNL     1     -21.843  -6.475  -4.697  1.00  0.00     0.103 C 
BRANCH  20  21
HETATM   21  C   UNL     1     -20.822  -5.469  -5.208  1.00  0.00     0.009 C 
BRANCH  21  22
HETATM   22  C   UNL     1     -20.091  -5.990  -6.437  1.00  0.00     0.000 C 
BRANCH  22  23
HETATM   23  C   UNL     1     -20.385  -5.082  -7.623  1.00  0.00     0.000 C 
BRANCH  23  24
HETATM   24  C   UNL     1     -21.393  -4.006  -7.252  1.00  0.00     0.000 C 
BRANCH  24  25
HETATM   25  C   UNL     1     -22.797  -4.434  -7.663  1.00  0.00     0.000 C 
BRANCH  25  26
HETATM   26  C   UNL     1     -23.267  -3.634  -8.870  1.00  0.00     0.000 C 
BRANCH  26  27
HETATM   27  C   UNL     1     -22.847  -4.313 -10.168  1.00  0.00     0.000 C 
BRANCH  27  28
HETATM   28  C   UNL     1     -22.648  -3.280 -11.273  1.00  0.00    -0.000 C 
BRANCH  28  29
HETATM   29  C   UNL     1     -21.165  -2.992 -11.495  1.00  0.00    -0.005 C 
HETATM   30  C   UNL     1     -20.309  -4.154 -11.027  1.00  0.00     0.005 C 
ENDBRANCH  28  29
ENDBRANCH  27  28
ENDBRANCH  26  27
ENDBRANCH  25  26
ENDBRANCH  24  25
ENDBRANCH  23  24
ENDBRANCH  22  23
ENDBRANCH  21  22
ENDBRANCH  20  21
ENDBRANCH   1  20
TORSDOF 19
ENDMDL
MODEL 9
REMARK VINA RESULT:      -6.2      5.194     11.471
REMARK  19 active torsions:
REMARK  status: ('A' for Active; 'I' for Inactive)
REMARK    1  A    between atoms: C_2  and  C_3 
REMARK    2  A    between atoms: C_3  and  C_4 
REMARK    3  A    between atoms: C_4  and  C_5 
REMARK    4  A    between atoms: C_5  and  C_6 
REMARK    5  A    between atoms: C_6  and  C_7 
REMARK    6  A    between atoms: C_7  and  C_8 
REMARK    7  A    between atoms: C_8  and  C_9 
REMARK    8  A    between atoms: C_9  and  C_10 
REMARK    9  A    between atoms: C_10  and  C_11 
REMARK   10  A    between atoms: C_11  and  C_12 
REMARK       I    between atoms: C_12  and  N_14 
REMARK   11  A    between atoms: N_14  and  C_15 
REMARK   12  A    between atoms: C_15  and  C_16 
REMARK   13  A    between atoms: C_16  and  C_17 
REMARK   14  A    between atoms: C_17  and  N_18 
REMARK   15  A    between atoms: N_18  and  C_21 
REMARK   16  A    between atoms: C_21  and  C_22 
REMARK   17  A    between atoms: C_22  and  C_23 
REMARK   18  A    between atoms: C_22  and  O_28 
REMARK   19  A    between atoms: C_23  and  S_24 
ROOT
HETATM    1  C   UNL     1     -20.531  -4.901  -6.262  1.00  0.00     0.217 C 
HETATM    2  O   UNL     1     -20.106  -4.562  -5.169  1.00  0.00    -0.274 OA
HETATM    3  N   UNL     1     -20.479  -6.200  -6.710  1.00  0.00    -0.361 N 
HETATM    4  H   UNL     1     -20.830  -6.445  -7.638  1.00  0.00     0.162 HD
ENDROOT
BRANCH   3   5
HETATM    5  C   UNL     1     -19.788  -7.197  -5.923  1.00  0.00     0.124 C 
BRANCH   5   6
HETATM    6  C   UNL     1     -20.773  -8.179  -5.303  1.00  0.00     0.047 C 
BRANCH   6   7
HETATM    7  C   UNL     1     -20.468  -8.343  -3.815  1.00  0.00     0.238 C 
BRANCH   7   8
HETATM    8  N   UNL     1     -19.854  -9.717  -3.478  1.00  0.00    -0.072 N 
HETATM    9  C   UNL     1     -19.745 -10.474  -4.808  1.00  0.00     0.272 C 
HETATM   10  C   UNL     1     -18.504  -9.535  -2.800  1.00  0.00     0.272 C 
BRANCH   8  11
HETATM   11  C   UNL     1     -20.792 -10.595  -2.583  1.00  0.00     0.269 C 
BRANCH  11  12
HETATM   12  C   UNL     1     -21.067 -10.152  -1.125  1.00  0.00     0.160 C 
BRANCH  12  13
HETATM   13  C   UNL     1     -22.406  -9.541  -0.768  1.00  0.00     0.198 C 
BRANCH  13  14
HETATM   14  S   UNL     1     -22.270  -8.076   0.202  1.00  0.00     0.104 S 
HETATM   15  O   UNL     1     -23.596  -8.006   0.800  1.00  0.00    -0.595 OA
HETATM   16  O   UNL     1     -21.136  -8.397   1.057  1.00  0.00    -0.595 OA
HETATM   17  O   UNL     1     -21.989  -7.034  -0.777  1.00  0.00    -0.595 OA
ENDBRANCH  13  14
ENDBRANCH  12  13
BRANCH  12  18
HETATM   18  O   UNL     1     -20.767 -11.261  -0.254  1.00  0.00    -0.393 OA
HETATM   19  H   UNL     1     -21.595 -11.483   0.245  1.00  0.00     0.210 HD
ENDBRANCH  12  18
ENDBRANCH  11  12
ENDBRANCH   8  11
ENDBRANCH   7   8
ENDBRANCH   6   7
ENDBRANCH   5   6
ENDBRANCH   3   5
BRANCH   1  20
HETATM   20  C   UNL     1     -21.236  -3.957  -7.206  1.00  0.00     0.103 C 
BRANCH  20  21
HETATM   21  C   UNL     1     -22.696  -4.365  -7.336  1.00  0.00     0.009 C 
BRANCH  21  22
HETATM   22  C   UNL     1     -23.161  -4.320  -8.784  1.00  0.00     0.000 C 
BRANCH  22  23
HETATM   23  C   UNL     1     -24.173  -3.196  -8.957  1.00  0.00     0.000 C 
BRANCH  23  24
HETATM   24  C   UNL     1     -25.037  -3.421 -10.188  1.00  0.00     0.000 C 
BRANCH  24  25
HETATM   25  C   UNL     1     -24.207  -4.033 -11.310  1.00  0.00     0.000 C 
BRANCH  25  26
HETATM   26  C   UNL     1     -23.947  -3.004 -12.403  1.00  0.00     0.000 C 
BRANCH  26  27
HETATM   27  C   UNL     1     -22.453  -2.737 -12.550  1.00  0.00     0.000 C 
BRANCH  27  28
HETATM   28  C   UNL     1     -21.645  -3.939 -12.072  1.00  0.00    -0.000 C 
BRANCH  28  29
HETATM   29  C   UNL     1     -20.517  -3.508 -11.139  1.00  0.00    -0.005 C 
HETATM   30  C   UNL     1     -19.934  -4.700 -10.402  1.00  0.00     0.005 C 
ENDBRANCH  28  29
ENDBRANCH  27  28
ENDBRANCH  26  27
ENDBRANCH  25  26
ENDBRANCH  24  25
ENDBRANCH  23  24
ENDBRANCH  22  23
ENDBRANCH  21  22
ENDBRANCH  20  21
ENDBRANCH   1  20
TORSDOF 19
ENDMDL
