MODEL 1
REMARK VINA RESULT:      -6.5      0.000      0.000
REMARK  16 active torsions:
REMARK  status: ('A' for Active; 'I' for Inactive)
REMARK    1  A    between atoms: C_1  and  C_2 
REMARK    2  A    between atoms: C_1  and  O_22 
REMARK    3  A    between atoms: C_2  and  C_3 
REMARK    4  A    between atoms: C_2  and  O_21 
REMARK    5  A    between atoms: C_3  and  O_4 
REMARK    6  A    between atoms: O_4  and  C_5 
REMARK    7  A    between atoms: C_6  and  O_15 
REMARK    8  A    between atoms: C_10  and  C_11 
REMARK    9  A    between atoms: C_11  and  C_12 
REMARK   10  A    between atoms: C_11  and  O_14 
REMARK   11  A    between atoms: C_12  and  O_13 
REMARK   12  A    between atoms: O_15  and  C_16 
REMARK   13  A    between atoms: C_16  and  C_17 
REMARK   14  A    between atoms: C_17  and  C_18 
REMARK   15  A    between atoms: C_17  and  O_20 
REMARK   16  A    between atoms: C_18  and  O_19 
ROOT
HETATM    1  C   UNL     1     -35.589  -0.651 -12.331  1.00  0.00     0.118 C 
HETATM    2  C   UNL     1     -35.160  -1.918 -12.322  1.00  0.00     0.176 C 
HETATM    3  C   UNL     1     -34.915  -2.281 -13.733  1.00  0.00     0.320 C 
HETATM    4  O   UNL     1     -34.536  -3.353 -14.163  1.00  0.00    -0.257 OA
HETATM    5  O   UNL     1     -35.154  -1.193 -14.523  1.00  0.00    -0.301 OA
HETATM    6  C   UNL     1     -35.695  -0.132 -13.723  1.00  0.00     0.222 C 
ENDROOT
BRANCH   1   7
HETATM    7  O   UNL     1     -35.833   0.100 -11.198  1.00  0.00    -0.347 OA
BRANCH   7   8
HETATM    8  C   UNL     1     -37.127  -0.112 -10.614  1.00  0.00     0.209 C 
BRANCH   8   9
HETATM    9  C   UNL     1     -37.124   0.154  -9.098  1.00  0.00     0.165 C 
BRANCH   9  10
HETATM   10  C   UNL     1     -37.680   1.525  -8.702  1.00  0.00     0.198 C 
BRANCH  10  11
HETATM   11  O   UNL     1     -36.965   2.091  -7.609  1.00  0.00    -0.398 OA
HETATM   12  H   UNL     1     -36.787   1.358  -6.992  1.00  0.00     0.209 HD
ENDBRANCH  10  11
ENDBRANCH   9  10
BRANCH   9  13
HETATM   13  O   UNL     1     -35.802   0.007  -8.571  1.00  0.00    -0.391 OA
HETATM   14  H   UNL     1     -35.189   0.231  -9.298  1.00  0.00     0.210 HD
ENDBRANCH   9  13
ENDBRANCH   8   9
ENDBRANCH   7   8
ENDBRANCH   1   7
BRANCH   2  15
HETATM   15  O   UNL     1     -34.954  -2.692 -11.206  1.00  0.00    -0.341 OA
BRANCH  15  16
HETATM   16  C   UNL     1     -33.573  -2.918 -10.881  1.00  0.00     0.209 C 
BRANCH  16  17
HETATM   17  C   UNL     1     -33.233  -4.395 -11.105  1.00  0.00     0.166 C 
BRANCH  17  18
HETATM   18  C   UNL     1     -34.473  -5.294 -11.117  1.00  0.00     0.198 C 
BRANCH  18  19
HETATM   19  O   UNL     1     -34.815  -5.608 -12.468  1.00  0.00    -0.398 OA
HETATM   20  H   UNL     1     -35.781  -5.465 -12.534  1.00  0.00     0.209 HD
ENDBRANCH  18  19
ENDBRANCH  17  18
BRANCH  17  21
HETATM   21  O   UNL     1     -32.554  -4.562 -12.362  1.00  0.00    -0.391 OA
HETATM   22  H   UNL     1     -32.260  -3.673 -12.639  1.00  0.00     0.210 HD
ENDBRANCH  17  21
ENDBRANCH  16  17
ENDBRANCH  15  16
ENDBRANCH   2  15
BRANCH   6  23
HETATM   23  C   UNL     1     -37.119   0.165 -14.237  1.00  0.00     0.177 C 
BRANCH  23  24
HETATM   24  C   UNL     1     -37.152   0.172 -15.773  1.00  0.00     0.198 C 
BRANCH  24  25
HETATM   25  O   UNL     1     -37.561  -1.106 -16.254  1.00  0.00    -0.398 OA
HETATM   26  H   UNL     1     -38.368  -1.344 -15.757  1.00  0.00     0.209 HD
ENDBRANCH  24  25
ENDBRANCH  23  24
BRANCH  23  27
HETATM   27  O   UNL     1     -38.064  -0.828 -13.790  1.00  0.00    -0.390 OA
HETATM   28  H   UNL     1     -38.451  -0.512 -12.951  1.00  0.00     0.210 HD
ENDBRANCH  23  27
ENDBRANCH   6  23
TORSDOF 16
ENDMDL
MODEL 2
REMARK VINA RESULT:      -5.6      8.796     12.023
REMARK  16 active torsions:
REMARK  status: ('A' for Active; 'I' for Inactive)
REMARK    1  A    between atoms: C_1  and  C_2 
REMARK    2  A    between atoms: C_1  and  O_22 
REMARK    3  A    between atoms: C_2  and  C_3 
REMARK    4  A    between atoms: C_2  and  O_21 
REMARK    5  A    between atoms: C_3  and  O_4 
REMARK    6  A    between atoms: O_4  and  C_5 
REMARK    7  A    between atoms: C_6  and  O_15 
REMARK    8  A    between atoms: C_10  and  C_11 
REMARK    9  A    between atoms: C_11  and  C_12 
REMARK   10  A    between atoms: C_11  and  O_14 
REMARK   11  A    between atoms: C_12  and  O_13 
REMARK   12  A    between atoms: O_15  and  C_16 
REMARK   13  A    between atoms: C_16  and  C_17 
REMARK   14  A    between atoms: C_17  and  C_18 
REMARK   15  A    between atoms: C_17  and  O_20 
REMARK   16  A    between atoms: C_18  and  O_19 
ROOT
HETATM    1  C   UNL     1     -28.456  -6.784 -18.610  1.00  0.00     0.118 C 
HETATM    2  C   UNL     1     -29.738  -6.468 -18.391  1.00  0.00     0.176 C 
HETATM    3  C   UNL     1     -30.533  -7.616 -18.872  1.00  0.00     0.320 C 
HETATM    4  O   UNL     1     -31.745  -7.724 -18.874  1.00  0.00    -0.257 OA
HETATM    5  O   UNL     1     -29.688  -8.596 -19.306  1.00  0.00    -0.301 OA
HETATM    6  C   UNL     1     -28.339  -8.109 -19.278  1.00  0.00     0.222 C 
ENDROOT
BRANCH   1   7
HETATM    7  O   UNL     1     -27.382  -6.016 -18.208  1.00  0.00    -0.347 OA
BRANCH   7   8
HETATM    8  C   UNL     1     -26.864  -6.351 -16.912  1.00  0.00     0.209 C 
BRANCH   8   9
HETATM    9  C   UNL     1     -25.337  -6.178 -16.839  1.00  0.00     0.165 C 
BRANCH   9  10
HETATM   10  C   UNL     1     -24.545  -7.390 -17.339  1.00  0.00     0.198 C 
BRANCH  10  11
HETATM   11  O   UNL     1     -23.947  -8.111 -16.268  1.00  0.00    -0.398 OA
HETATM   12  H   UNL     1     -24.312  -7.731 -15.448  1.00  0.00     0.209 HD
ENDBRANCH  10  11
ENDBRANCH   9  10
BRANCH   9  13
HETATM   13  O   UNL     1     -24.936  -5.869 -15.500  1.00  0.00    -0.391 OA
HETATM   14  H   UNL     1     -24.484  -6.664 -15.157  1.00  0.00     0.210 HD
ENDBRANCH   9  13
ENDBRANCH   8   9
ENDBRANCH   7   8
ENDBRANCH   1   7
BRANCH   2  15
HETATM   15  O   UNL     1     -30.194  -5.318 -17.795  1.00  0.00    -0.341 OA
BRANCH  15  16
HETATM   16  C   UNL     1     -30.838  -5.516 -16.527  1.00  0.00     0.209 C 
BRANCH  16  17
HETATM   17  C   UNL     1     -32.226  -4.866 -16.554  1.00  0.00     0.166 C 
BRANCH  17  18
HETATM   18  C   UNL     1     -32.324  -3.721 -17.567  1.00  0.00     0.198 C 
BRANCH  18  19
HETATM   19  O   UNL     1     -31.209  -2.844 -17.397  1.00  0.00    -0.398 OA
HETATM   20  H   UNL     1     -31.563  -2.058 -16.935  1.00  0.00     0.209 HD
ENDBRANCH  18  19
ENDBRANCH  17  18
BRANCH  17  21
HETATM   21  O   UNL     1     -33.225  -5.845 -16.894  1.00  0.00    -0.391 OA
HETATM   22  H   UNL     1     -32.826  -6.426 -17.570  1.00  0.00     0.210 HD
ENDBRANCH  17  21
ENDBRANCH  16  17
ENDBRANCH  15  16
ENDBRANCH   2  15
BRANCH   6  23
HETATM   23  C   UNL     1     -27.811  -8.103 -20.728  1.00  0.00     0.177 C 
BRANCH  23  24
HETATM   24  C   UNL     1     -26.298  -7.839 -20.755  1.00  0.00     0.198 C 
BRANCH  24  25
HETATM   25  O   UNL     1     -25.681  -8.658 -21.746  1.00  0.00    -0.398 OA
HETATM   26  H   UNL     1     -25.439  -8.064 -22.484  1.00  0.00     0.209 HD
ENDBRANCH  24  25
ENDBRANCH  23  24
BRANCH  23  27
HETATM   27  O   UNL     1     -28.039  -9.366 -21.383  1.00  0.00    -0.390 OA
HETATM   28  H   UNL     1     -28.448  -9.181 -22.251  1.00  0.00     0.210 HD
ENDBRANCH  23  27
ENDBRANCH   6  23
TORSDOF 16
ENDMDL
MODEL 3
REMARK VINA RESULT:      -5.2     12.173     15.355
REMARK  16 active torsions:
REMARK  status: ('A' for Active; 'I' for Inactive)
REMARK    1  A    between atoms: C_1  and  C_2 
REMARK    2  A    between atoms: C_1  and  O_22 
REMARK    3  A    between atoms: C_2  and  C_3 
REMARK    4  A    between atoms: C_2  and  O_21 
REMARK    5  A    between atoms: C_3  and  O_4 
REMARK    6  A    between atoms: O_4  and  C_5 
REMARK    7  A    between atoms: C_6  and  O_15 
REMARK    8  A    between atoms: C_10  and  C_11 
REMARK    9  A    between atoms: C_11  and  C_12 
REMARK   10  A    between atoms: C_11  and  O_14 
REMARK   11  A    between atoms: C_12  and  O_13 
REMARK   12  A    between atoms: O_15  and  C_16 
REMARK   13  A    between atoms: C_16  and  C_17 
REMARK   14  A    between atoms: C_17  and  C_18 
REMARK   15  A    between atoms: C_17  and  O_20 
REMARK   16  A    between atoms: C_18  and  O_19 
ROOT
HETATM    1  C   UNL     1     -22.078  -4.337  -7.836  1.00  0.00     0.118 C 
HETATM    2  C   UNL     1     -21.487  -4.833  -6.742  1.00  0.00     0.176 C 
HETATM    3  C   UNL     1     -20.052  -4.503  -6.862  1.00  0.00     0.320 C 
HETATM    4  O   UNL     1     -19.162  -4.792  -6.086  1.00  0.00    -0.257 OA
HETATM    5  O   UNL     1     -19.855  -3.771  -7.998  1.00  0.00    -0.301 OA
HETATM    6  C   UNL     1     -21.079  -3.707  -8.743  1.00  0.00     0.222 C 
ENDROOT
BRANCH   1   7
HETATM    7  O   UNL     1     -23.440  -4.345  -8.061  1.00  0.00    -0.347 OA
BRANCH   7   8
HETATM    8  C   UNL     1     -23.917  -3.251  -8.857  1.00  0.00     0.209 C 
BRANCH   8   9
HETATM    9  C   UNL     1     -24.834  -3.724  -9.998  1.00  0.00     0.165 C 
BRANCH   9  10
HETATM   10  C   UNL     1     -24.383  -3.274 -11.391  1.00  0.00     0.198 C 
BRANCH  10  11
HETATM   11  O   UNL     1     -23.919  -4.367 -12.176  1.00  0.00    -0.398 OA
HETATM   12  H   UNL     1     -23.014  -4.558 -11.868  1.00  0.00     0.209 HD
ENDBRANCH  10  11
ENDBRANCH   9  10
BRANCH   9  13
HETATM   13  O   UNL     1     -26.177  -3.287  -9.769  1.00  0.00    -0.391 OA
HETATM   14  H   UNL     1     -26.194  -2.331  -9.974  1.00  0.00     0.210 HD
ENDBRANCH   9  13
ENDBRANCH   8   9
ENDBRANCH   7   8
ENDBRANCH   1   7
BRANCH   2  15
HETATM   15  O   UNL     1     -22.119  -5.477  -5.707  1.00  0.00    -0.341 OA
BRANCH  15  16
HETATM   16  C   UNL     1     -21.820  -6.878  -5.601  1.00  0.00     0.209 C 
BRANCH  16  17
HETATM   17  C   UNL     1     -20.999  -7.128  -4.331  1.00  0.00     0.166 C 
BRANCH  17  18
HETATM   18  C   UNL     1     -21.233  -6.063  -3.255  1.00  0.00     0.198 C 
BRANCH  18  19
HETATM   19  O   UNL     1     -22.621  -6.032  -2.916  1.00  0.00    -0.398 OA
HETATM   20  H   UNL     1     -22.681  -5.485  -2.107  1.00  0.00     0.209 HD
ENDBRANCH  18  19
ENDBRANCH  17  18
BRANCH  17  21
HETATM   21  O   UNL     1     -21.337  -8.408  -3.767  1.00  0.00    -0.391 OA
HETATM   22  H   UNL     1     -21.984  -8.817  -4.374  1.00  0.00     0.210 HD
ENDBRANCH  17  21
ENDBRANCH  16  17
ENDBRANCH  15  16
ENDBRANCH   2  15
BRANCH   6  23
HETATM   23  C   UNL     1     -20.843  -4.410 -10.096  1.00  0.00     0.177 C 
BRANCH  23  24
HETATM   24  C   UNL     1     -20.691  -3.380 -11.225  1.00  0.00     0.198 C 
BRANCH  24  25
HETATM   25  O   UNL     1     -21.163  -3.932 -12.452  1.00  0.00    -0.398 OA
HETATM   26  H   UNL     1     -20.526  -4.628 -12.706  1.00  0.00     0.209 HD
ENDBRANCH  24  25
ENDBRANCH  23  24
BRANCH  23  27
HETATM   27  O   UNL     1     -19.644  -5.209 -10.078  1.00  0.00    -0.390 OA
HETATM   28  H   UNL     1     -19.889  -6.105  -9.777  1.00  0.00     0.210 HD
ENDBRANCH  23  27
ENDBRANCH   6  23
TORSDOF 16
ENDMDL
MODEL 4
REMARK VINA RESULT:      -5.1      9.588     12.817
REMARK  16 active torsions:
REMARK  status: ('A' for Active; 'I' for Inactive)
REMARK    1  A    between atoms: C_1  and  C_2 
REMARK    2  A    between atoms: C_1  and  O_22 
REMARK    3  A    between atoms: C_2  and  C_3 
REMARK    4  A    between atoms: C_2  and  O_21 
REMARK    5  A    between atoms: C_3  and  O_4 
REMARK    6  A    between atoms: O_4  and  C_5 
REMARK    7  A    between atoms: C_6  and  O_15 
REMARK    8  A    between atoms: C_10  and  C_11 
REMARK    9  A    between atoms: C_11  and  C_12 
REMARK   10  A    between atoms: C_11  and  O_14 
REMARK   11  A    between atoms: C_12  and  O_13 
REMARK   12  A    between atoms: O_15  and  C_16 
REMARK   13  A    between atoms: C_16  and  C_17 
REMARK   14  A    between atoms: C_17  and  C_18 
REMARK   15  A    between atoms: C_17  and  O_20 
REMARK   16  A    between atoms: C_18  and  O_19 
ROOT
HETATM    1  C   UNL     1     -27.700  -6.372 -18.011  1.00  0.00     0.118 C 
HETATM    2  C   UNL     1     -27.197  -6.401 -16.771  1.00  0.00     0.176 C 
HETATM    3  C   UNL     1     -28.206  -7.080 -15.932  1.00  0.00     0.320 C 
HETATM    4  O   UNL     1     -28.146  -7.292 -14.736  1.00  0.00    -0.257 OA
HETATM    5  O   UNL     1     -29.247  -7.480 -16.719  1.00  0.00    -0.301 OA
HETATM    6  C   UNL     1     -29.062  -6.974 -18.049  1.00  0.00     0.222 C 
ENDROOT
BRANCH   1   7
HETATM    7  O   UNL     1     -27.021  -5.910 -19.120  1.00  0.00    -0.347 OA
BRANCH   7   8
HETATM    8  C   UNL     1     -27.359  -6.578 -20.345  1.00  0.00     0.209 C 
BRANCH   8   9
HETATM    9  C   UNL     1     -26.447  -7.788 -20.612  1.00  0.00     0.165 C 
BRANCH   9  10
HETATM   10  C   UNL     1     -25.145  -7.441 -21.341  1.00  0.00     0.198 C 
BRANCH  10  11
HETATM   11  O   UNL     1     -24.615  -8.562 -22.040  1.00  0.00    -0.398 OA
HETATM   12  H   UNL     1     -25.382  -9.058 -22.380  1.00  0.00     0.209 HD
ENDBRANCH  10  11
ENDBRANCH   9  10
BRANCH   9  13
HETATM   13  O   UNL     1     -27.154  -8.788 -21.353  1.00  0.00    -0.391 OA
HETATM   14  H   UNL     1     -28.092  -8.716 -21.087  1.00  0.00     0.210 HD
ENDBRANCH   9  13
ENDBRANCH   8   9
ENDBRANCH   7   8
ENDBRANCH   1   7
BRANCH   2  15
HETATM   15  O   UNL     1     -25.966  -5.927 -16.391  1.00  0.00    -0.341 OA
BRANCH  15  16
HETATM   16  C   UNL     1     -25.112  -6.905 -15.774  1.00  0.00     0.209 C 
BRANCH  16  17
HETATM   17  C   UNL     1     -24.452  -7.761 -16.859  1.00  0.00     0.166 C 
BRANCH  17  18
HETATM   18  C   UNL     1     -24.005  -6.940 -18.073  1.00  0.00     0.198 C 
BRANCH  18  19
HETATM   19  O   UNL     1     -22.874  -7.570 -18.677  1.00  0.00    -0.398 OA
HETATM   20  H   UNL     1     -22.496  -6.903 -19.284  1.00  0.00     0.209 HD
ENDBRANCH  18  19
ENDBRANCH  17  18
BRANCH  17  21
HETATM   21  O   UNL     1     -23.294  -8.430 -16.326  1.00  0.00    -0.391 OA
HETATM   22  H   UNL     1     -23.387  -8.413 -15.355  1.00  0.00     0.210 HD
ENDBRANCH  17  21
ENDBRANCH  16  17
ENDBRANCH  15  16
ENDBRANCH   2  15
BRANCH   6  23
HETATM   23  C   UNL     1     -30.229  -6.012 -18.352  1.00  0.00     0.177 C 
BRANCH  23  24
HETATM   24  C   UNL     1     -31.093  -5.793 -17.101  1.00  0.00     0.198 C 
BRANCH  24  25
HETATM   25  O   UNL     1     -32.186  -6.709 -17.101  1.00  0.00    -0.398 OA
HETATM   26  H   UNL     1     -31.824  -7.571 -17.388  1.00  0.00     0.209 HD
ENDBRANCH  24  25
ENDBRANCH  23  24
BRANCH  23  27
HETATM   27  O   UNL     1     -29.755  -4.720 -18.780  1.00  0.00    -0.390 OA
HETATM   28  H   UNL     1     -28.827  -4.632 -18.488  1.00  0.00     0.210 HD
ENDBRANCH  23  27
ENDBRANCH   6  23
TORSDOF 16
ENDMDL
MODEL 5
REMARK VINA RESULT:      -4.9     16.846     19.084
REMARK  16 active torsions:
REMARK  status: ('A' for Active; 'I' for Inactive)
REMARK    1  A    between atoms: C_1  and  C_2 
REMARK    2  A    between atoms: C_1  and  O_22 
REMARK    3  A    between atoms: C_2  and  C_3 
REMARK    4  A    between atoms: C_2  and  O_21 
REMARK    5  A    between atoms: C_3  and  O_4 
REMARK    6  A    between atoms: O_4  and  C_5 
REMARK    7  A    between atoms: C_6  and  O_15 
REMARK    8  A    between atoms: C_10  and  C_11 
REMARK    9  A    between atoms: C_11  and  C_12 
REMARK   10  A    between atoms: C_11  and  O_14 
REMARK   11  A    between atoms: C_12  and  O_13 
REMARK   12  A    between atoms: O_15  and  C_16 
REMARK   13  A    between atoms: C_16  and  C_17 
REMARK   14  A    between atoms: C_17  and  C_18 
REMARK   15  A    between atoms: C_17  and  O_20 
REMARK   16  A    between atoms: C_18  and  O_19 
ROOT
HETATM    1  C   UNL     1     -20.757  -8.063  -4.015  1.00  0.00     0.118 C 
HETATM    2  C   UNL     1     -20.850  -7.555  -2.781  1.00  0.00     0.176 C 
HETATM    3  C   UNL     1     -21.870  -6.488  -2.849  1.00  0.00     0.320 C 
HETATM    4  O   UNL     1     -22.239  -5.763  -1.945  1.00  0.00    -0.257 OA
HETATM    5  O   UNL     1     -22.386  -6.443  -4.112  1.00  0.00    -0.301 OA
HETATM    6  C   UNL     1     -21.657  -7.343  -4.958  1.00  0.00     0.222 C 
ENDROOT
BRANCH   1   7
HETATM    7  O   UNL     1     -19.984  -9.155  -4.355  1.00  0.00    -0.347 OA
BRANCH   7   8
HETATM    8  C   UNL     1     -20.723 -10.261  -4.895  1.00  0.00     0.209 C 
BRANCH   8   9
HETATM    9  C   UNL     1     -19.812 -11.258  -5.632  1.00  0.00     0.165 C 
BRANCH   9  10
HETATM   10  C   UNL     1     -18.347 -10.818  -5.724  1.00  0.00     0.198 C 
BRANCH  10  11
HETATM   11  O   UNL     1     -18.204  -9.604  -6.452  1.00  0.00    -0.398 OA
HETATM   12  H   UNL     1     -19.107  -9.293  -6.642  1.00  0.00     0.209 HD
ENDBRANCH  10  11
ENDBRANCH   9  10
BRANCH   9  13
HETATM   13  O   UNL     1     -20.315 -11.510  -6.948  1.00  0.00    -0.391 OA
HETATM   14  H   UNL     1     -20.750 -10.685  -7.240  1.00  0.00     0.210 HD
ENDBRANCH   9  13
ENDBRANCH   8   9
ENDBRANCH   7   8
ENDBRANCH   1   7
BRANCH   2  15
HETATM   15  O   UNL     1     -20.156  -7.987  -1.678  1.00  0.00    -0.341 OA
BRANCH  15  16
HETATM   16  C   UNL     1     -20.796  -9.043  -0.943  1.00  0.00     0.209 C 
BRANCH  16  17
HETATM   17  C   UNL     1     -21.494  -8.456   0.289  1.00  0.00     0.166 C 
BRANCH  17  18
HETATM   18  C   UNL     1     -23.004  -8.711   0.293  1.00  0.00     0.198 C 
BRANCH  18  19
HETATM   19  O   UNL     1     -23.693  -7.460   0.276  1.00  0.00    -0.398 OA
HETATM   20  H   UNL     1     -23.538  -7.087  -0.615  1.00  0.00     0.209 HD
ENDBRANCH  18  19
ENDBRANCH  17  18
BRANCH  17  21
HETATM   21  O   UNL     1     -20.944  -9.029   1.489  1.00  0.00    -0.391 OA
HETATM   22  H   UNL     1     -20.056  -8.640   1.601  1.00  0.00     0.210 HD
ENDBRANCH  17  21
ENDBRANCH  16  17
ENDBRANCH  15  16
ENDBRANCH   2  15
BRANCH   6  23
HETATM   23  C   UNL     1     -20.970  -6.505  -6.056  1.00  0.00     0.177 C 
BRANCH  23  24
HETATM   24  C   UNL     1     -20.568  -5.125  -5.514  1.00  0.00     0.198 C 
BRANCH  24  25
HETATM   25  O   UNL     1     -19.563  -4.551  -6.348  1.00  0.00    -0.398 OA
HETATM   26  H   UNL     1     -19.629  -3.582  -6.234  1.00  0.00     0.209 HD
ENDBRANCH  24  25
ENDBRANCH  23  24
BRANCH  23  27
HETATM   27  O   UNL     1     -19.773  -7.143  -6.541  1.00  0.00    -0.390 OA
HETATM   28  H   UNL     1     -19.671  -6.906  -7.484  1.00  0.00     0.210 HD
ENDBRANCH  23  27
ENDBRANCH   6  23
TORSDOF 16
ENDMDL
MODEL 6
REMARK VINA RESULT:      -4.9      9.460     12.677
REMARK  16 active torsions:
REMARK  status: ('A' for Active; 'I' for Inactive)
REMARK    1  A    between atoms: C_1  and  C_2 
REMARK    2  A    between atoms: C_1  and  O_22 
REMARK    3  A    between atoms: C_2  and  C_3 
REMARK    4  A    between atoms: C_2  and  O_21 
REMARK    5  A    between atoms: C_3  and  O_4 
REMARK    6  A    between atoms: O_4  and  C_5 
REMARK    7  A    between atoms: C_6  and  O_15 
REMARK    8  A    between atoms: C_10  and  C_11 
REMARK    9  A    between atoms: C_11  and  C_12 
REMARK   10  A    between atoms: C_11  and  O_14 
REMARK   11  A    between atoms: C_12  and  O_13 
REMARK   12  A    between atoms: O_15  and  C_16 
REMARK   13  A    between atoms: C_16  and  C_17 
REMARK   14  A    between atoms: C_17  and  C_18 
REMARK   15  A    between atoms: C_17  and  O_20 
REMARK   16  A    between atoms: C_18  and  O_19 
ROOT
HETATM    1  C   UNL     1     -27.599  -6.365 -17.427  1.00  0.00     0.118 C 
HETATM    2  C   UNL     1     -26.311  -6.464 -17.080  1.00  0.00     0.176 C 
HETATM    3  C   UNL     1     -26.293  -7.037 -15.718  1.00  0.00     0.320 C 
HETATM    4  O   UNL     1     -25.317  -7.269 -15.030  1.00  0.00    -0.257 OA
HETATM    5  O   UNL     1     -27.573  -7.309 -15.330  1.00  0.00    -0.301 OA
HETATM    6  C   UNL     1     -28.487  -6.812 -16.318  1.00  0.00     0.222 C 
ENDROOT
BRANCH   1   7
HETATM    7  O   UNL     1     -28.046  -5.968 -18.671  1.00  0.00    -0.347 OA
BRANCH   7   8
HETATM    8  C   UNL     1     -29.102  -6.777 -19.209  1.00  0.00     0.209 C 
BRANCH   8   9
HETATM    9  C   UNL     1     -28.631  -8.210 -19.516  1.00  0.00     0.165 C 
BRANCH   9  10
HETATM   10  C   UNL     1     -28.533  -8.529 -21.011  1.00  0.00     0.198 C 
BRANCH  10  11
HETATM   11  O   UNL     1     -27.229  -8.972 -21.373  1.00  0.00    -0.398 OA
HETATM   12  H   UNL     1     -26.734  -8.175 -21.635  1.00  0.00     0.209 HD
ENDBRANCH  10  11
ENDBRANCH   9  10
BRANCH   9  13
HETATM   13  O   UNL     1     -29.493  -9.161 -18.883  1.00  0.00    -0.391 OA
HETATM   14  H   UNL     1     -30.375  -8.744 -18.833  1.00  0.00     0.210 HD
ENDBRANCH   9  13
ENDBRANCH   8   9
ENDBRANCH   7   8
ENDBRANCH   1   7
BRANCH   2  15
HETATM   15  O   UNL     1     -25.236  -6.135 -17.869  1.00  0.00    -0.341 OA
BRANCH  15  16
HETATM   16  C   UNL     1     -24.609  -7.249 -18.523  1.00  0.00     0.209 C 
BRANCH  16  17
HETATM   17  C   UNL     1     -24.462  -6.945 -20.018  1.00  0.00     0.166 C 
BRANCH  17  18
HETATM   18  C   UNL     1     -23.893  -8.126 -20.810  1.00  0.00     0.198 C 
BRANCH  18  19
HETATM   19  O   UNL     1     -24.675  -8.322 -21.990  1.00  0.00    -0.398 OA
HETATM   20  H   UNL     1     -24.260  -7.761 -22.675  1.00  0.00     0.209 HD
ENDBRANCH  18  19
ENDBRANCH  17  18
BRANCH  17  21
HETATM   21  O   UNL     1     -25.742  -6.608 -20.583  1.00  0.00    -0.391 OA
HETATM   22  H   UNL     1     -25.666  -6.750 -21.546  1.00  0.00     0.210 HD
ENDBRANCH  17  21
ENDBRANCH  16  17
ENDBRANCH  15  16
ENDBRANCH   2  15
BRANCH   6  23
HETATM   23  C   UNL     1     -29.352  -5.722 -15.651  1.00  0.00     0.177 C 
BRANCH  23  24
HETATM   24  C   UNL     1     -30.737  -5.648 -16.311  1.00  0.00     0.198 C 
BRANCH  24  25
HETATM   25  O   UNL     1     -30.902  -4.384 -16.949  1.00  0.00    -0.398 OA
HETATM   26  H   UNL     1     -30.326  -3.755 -16.471  1.00  0.00     0.209 HD
ENDBRANCH  24  25
ENDBRANCH  23  24
BRANCH  23  27
HETATM   27  O   UNL     1     -29.557  -5.990 -14.249  1.00  0.00    -0.390 OA
HETATM   28  H   UNL     1     -29.490  -6.956 -14.119  1.00  0.00     0.210 HD
ENDBRANCH  23  27
ENDBRANCH   6  23
TORSDOF 16
ENDMDL
MODEL 7
REMARK VINA RESULT:      -4.8      1.526      2.079
REMARK  16 active torsions:
REMARK  status: ('A' for Active; 'I' for Inactive)
REMARK    1  A    between atoms: C_1  and  C_2 
REMARK    2  A    between atoms: C_1  and  O_22 
REMARK    3  A    between atoms: C_2  and  C_3 
REMARK    4  A    between atoms: C_2  and  O_21 
REMARK    5  A    between atoms: C_3  and  O_4 
REMARK    6  A    between atoms: O_4  and  C_5 
REMARK    7  A    between atoms: C_6  and  O_15 
REMARK    8  A    between atoms: C_10  and  C_11 
REMARK    9  A    between atoms: C_11  and  C_12 
REMARK   10  A    between atoms: C_11  and  O_14 
REMARK   11  A    between atoms: C_12  and  O_13 
REMARK   12  A    between atoms: O_15  and  C_16 
REMARK   13  A    between atoms: C_16  and  C_17 
REMARK   14  A    between atoms: C_17  and  C_18 
REMARK   15  A    between atoms: C_17  and  O_20 
REMARK   16  A    between atoms: C_18  and  O_19 
ROOT
HETATM    1  C   UNL     1     -35.404  -0.773 -13.660  1.00  0.00     0.118 C 
HETATM    2  C   UNL     1     -35.006  -2.043 -13.519  1.00  0.00     0.176 C 
HETATM    3  C   UNL     1     -34.829  -2.574 -14.886  1.00  0.00     0.320 C 
HETATM    4  O   UNL     1     -34.495  -3.700 -15.201  1.00  0.00    -0.257 OA
HETATM    5  O   UNL     1     -35.075  -1.579 -15.789  1.00  0.00    -0.301 OA
HETATM    6  C   UNL     1     -35.556  -0.418 -15.099  1.00  0.00     0.222 C 
ENDROOT
BRANCH   1   7
HETATM    7  O   UNL     1     -35.583   0.112 -12.616  1.00  0.00    -0.347 OA
BRANCH   7   8
HETATM    8  C   UNL     1     -36.889   0.074 -12.023  1.00  0.00     0.209 C 
BRANCH   8   9
HETATM    9  C   UNL     1     -36.840   0.318 -10.504  1.00  0.00     0.165 C 
BRANCH   9  10
HETATM   10  C   UNL     1     -36.521  -0.933  -9.679  1.00  0.00     0.198 C 
BRANCH  10  11
HETATM   11  O   UNL     1     -35.185  -1.379  -9.888  1.00  0.00    -0.398 OA
HETATM   12  H   UNL     1     -34.610  -0.622  -9.675  1.00  0.00     0.209 HD
ENDBRANCH  10  11
ENDBRANCH   9  10
BRANCH   9  13
HETATM   13  O   UNL     1     -38.075   0.882 -10.052  1.00  0.00    -0.391 OA
HETATM   14  H   UNL     1     -37.944   1.851 -10.033  1.00  0.00     0.210 HD
ENDBRANCH   9  13
ENDBRANCH   8   9
ENDBRANCH   7   8
ENDBRANCH   1   7
BRANCH   2  15
HETATM   15  O   UNL     1     -34.771  -2.686 -12.329  1.00  0.00    -0.341 OA
BRANCH  15  16
HETATM   16  C   UNL     1     -33.540  -3.424 -12.279  1.00  0.00     0.209 C 
BRANCH  16  17
HETATM   17  C   UNL     1     -33.835  -4.881 -11.906  1.00  0.00     0.166 C 
BRANCH  17  18
HETATM   18  C   UNL     1     -34.453  -5.023 -10.512  1.00  0.00     0.198 C 
BRANCH  18  19
HETATM   19  O   UNL     1     -35.749  -4.422 -10.507  1.00  0.00    -0.398 OA
HETATM   20  H   UNL     1     -36.225  -4.832  -9.757  1.00  0.00     0.209 HD
ENDBRANCH  18  19
ENDBRANCH  17  18
BRANCH  17  21
HETATM   21  O   UNL     1     -34.748  -5.460 -12.856  1.00  0.00    -0.391 OA
HETATM   22  H   UNL     1     -35.647  -5.218 -12.560  1.00  0.00     0.210 HD
ENDBRANCH  17  21
ENDBRANCH  16  17
ENDBRANCH  15  16
ENDBRANCH   2  15
BRANCH   6  23
HETATM   23  C   UNL     1     -36.993  -0.141 -15.588  1.00  0.00     0.177 C 
BRANCH  23  24
HETATM   24  C   UNL     1     -37.145   1.321 -16.032  1.00  0.00     0.198 C 
BRANCH  24  25
HETATM   25  O   UNL     1     -35.945   2.039 -15.751  1.00  0.00    -0.398 OA
HETATM   26  H   UNL     1     -35.819   2.666 -16.491  1.00  0.00     0.209 HD
ENDBRANCH  24  25
ENDBRANCH  23  24
BRANCH  23  27
HETATM   27  O   UNL     1     -37.340  -0.971 -16.715  1.00  0.00    -0.390 OA
HETATM   28  H   UNL     1     -38.314  -1.027 -16.754  1.00  0.00     0.210 HD
ENDBRANCH  23  27
ENDBRANCH   6  23
TORSDOF 16
ENDMDL
MODEL 8
REMARK VINA RESULT:      -4.7     15.560     18.928
REMARK  16 active torsions:
REMARK  status: ('A' for Active; 'I' for Inactive)
REMARK    1  A    between atoms: C_1  and  C_2 
REMARK    2  A    between atoms: C_1  and  O_22 
REMARK    3  A    between atoms: C_2  and  C_3 
REMARK    4  A    between atoms: C_2  and  O_21 
REMARK    5  A    between atoms: C_3  and  O_4 
REMARK    6  A    between atoms: O_4  and  C_5 
REMARK    7  A    between atoms: C_6  and  O_15 
REMARK    8  A    between atoms: C_10  and  C_11 
REMARK    9  A    between atoms: C_11  and  C_12 
REMARK   10  A    between atoms: C_11  and  O_14 
REMARK   11  A    between atoms: C_12  and  O_13 
REMARK   12  A    between atoms: O_15  and  C_16 
REMARK   13  A    between atoms: C_16  and  C_17 
REMARK   14  A    between atoms: C_17  and  C_18 
REMARK   15  A    between atoms: C_17  and  O_20 
REMARK   16  A    between atoms: C_18  and  O_19 
ROOT
HETATM    1  C   UNL     1     -20.894  -7.957  -4.540  1.00  0.00     0.118 C 
HETATM    2  C   UNL     1     -21.075  -7.653  -3.250  1.00  0.00     0.176 C 
HETATM    3  C   UNL     1     -21.890  -6.422  -3.225  1.00  0.00     0.320 C 
HETATM    4  O   UNL     1     -22.259  -5.802  -2.246  1.00  0.00    -0.257 OA
HETATM    5  O   UNL     1     -22.211  -6.072  -4.505  1.00  0.00    -0.301 OA
HETATM    6  C   UNL     1     -21.526  -6.936  -5.422  1.00  0.00     0.222 C 
ENDROOT
BRANCH   1   7
HETATM    7  O   UNL     1     -20.268  -9.100  -4.995  1.00  0.00    -0.347 OA
BRANCH   7   8
HETATM    8  C   UNL     1     -18.850  -8.968  -5.176  1.00  0.00     0.209 C 
BRANCH   8   9
HETATM    9  C   UNL     1     -18.059  -9.871  -4.214  1.00  0.00     0.165 C 
BRANCH   9  10
HETATM   10  C   UNL     1     -18.669 -11.263  -4.018  1.00  0.00     0.198 C 
BRANCH  10  11
HETATM   11  O   UNL     1     -19.731 -11.247  -3.070  1.00  0.00    -0.398 OA
HETATM   12  H   UNL     1     -19.361 -11.606  -2.243  1.00  0.00     0.209 HD
ENDBRANCH  10  11
ENDBRANCH   9  10
BRANCH   9  13
HETATM   13  O   UNL     1     -17.913  -9.233  -2.941  1.00  0.00    -0.391 OA
HETATM   14  H   UNL     1     -18.315  -8.347  -3.030  1.00  0.00     0.210 HD
ENDBRANCH   9  13
ENDBRANCH   8   9
ENDBRANCH   7   8
ENDBRANCH   1   7
BRANCH   2  15
HETATM   15  O   UNL     1     -20.621  -8.384  -2.179  1.00  0.00    -0.341 OA
BRANCH  15  16
HETATM   16  C   UNL     1     -21.644  -9.088  -1.457  1.00  0.00     0.209 C 
BRANCH  16  17
HETATM   17  C   UNL     1     -21.326  -9.052   0.041  1.00  0.00     0.166 C 
BRANCH  17  18
HETATM   18  C   UNL     1     -22.190  -8.046   0.807  1.00  0.00     0.198 C 
BRANCH  18  19
HETATM   19  O   UNL     1     -23.053  -7.371  -0.110  1.00  0.00    -0.398 OA
HETATM   20  H   UNL     1     -22.558  -7.328  -0.952  1.00  0.00     0.209 HD
ENDBRANCH  18  19
ENDBRANCH  17  18
BRANCH  17  21
HETATM   21  O   UNL     1     -21.538 -10.351   0.624  1.00  0.00    -0.391 OA
HETATM   22  H   UNL     1     -20.774 -10.900   0.363  1.00  0.00     0.210 HD
ENDBRANCH  17  21
ENDBRANCH  16  17
ENDBRANCH  15  16
ENDBRANCH   2  15
BRANCH   6  23
HETATM   23  C   UNL     1     -20.566  -6.067  -6.261  1.00  0.00     0.177 C 
BRANCH  23  24
HETATM   24  C   UNL     1     -21.280  -5.512  -7.503  1.00  0.00     0.198 C 
BRANCH  24  25
HETATM   25  O   UNL     1     -22.358  -4.668  -7.105  1.00  0.00    -0.398 OA
HETATM   26  H   UNL     1     -23.092  -4.846  -7.726  1.00  0.00     0.209 HD
ENDBRANCH  24  25
ENDBRANCH  23  24
BRANCH  23  27
HETATM   27  O   UNL     1     -20.074  -4.941  -5.508  1.00  0.00    -0.390 OA
HETATM   28  H   UNL     1     -20.262  -4.133  -6.024  1.00  0.00     0.210 HD
ENDBRANCH  23  27
ENDBRANCH   6  23
TORSDOF 16
ENDMDL
MODEL 9
REMARK VINA RESULT:      -4.7     15.842     19.386
REMARK  16 active torsions:
REMARK  status: ('A' for Active; 'I' for Inactive)
REMARK    1  A    between atoms: C_1  and  C_2 
REMARK    2  A    between atoms: C_1  and  O_22 
REMARK    3  A    between atoms: C_2  and  C_3 
REMARK    4  A    between atoms: C_2  and  O_21 
REMARK    5  A    between atoms: C_3  and  O_4 
REMARK    6  A    between atoms: O_4  and  C_5 
REMARK    7  A    between atoms: C_6  and  O_15 
REMARK    8  A    between atoms: C_10  and  C_11 
REMARK    9  A    between atoms: C_11  and  C_12 
REMARK   10  A    between atoms: C_11  and  O_14 
REMARK   11  A    between atoms: C_12  and  O_13 
REMARK   12  A    between atoms: O_15  and  C_16 
REMARK   13  A    between atoms: C_16  and  C_17 
REMARK   14  A    between atoms: C_17  and  C_18 
REMARK   15  A    between atoms: C_17  and  O_20 
REMARK   16  A    between atoms: C_18  and  O_19 
ROOT
HETATM    1  C   UNL     1     -21.067  -8.928  -2.500  1.00  0.00     0.118 C 
HETATM    2  C   UNL     1     -21.556  -7.895  -3.197  1.00  0.00     0.176 C 
HETATM    3  C   UNL     1     -21.772  -6.805  -2.224  1.00  0.00     0.320 C 
HETATM    4  O   UNL     1     -22.225  -5.699  -2.447  1.00  0.00    -0.257 OA
HETATM    5  O   UNL     1     -21.349  -7.214  -0.992  1.00  0.00    -0.301 OA
HETATM    6  C   UNL     1     -20.982  -8.599  -1.050  1.00  0.00     0.222 C 
ENDROOT
BRANCH   1   7
HETATM    7  O   UNL     1     -20.635 -10.114  -3.057  1.00  0.00    -0.347 OA
BRANCH   7   8
HETATM    8  C   UNL     1     -19.249 -10.407  -2.828  1.00  0.00     0.209 C 
BRANCH   8   9
HETATM    9  C   UNL     1     -18.322  -9.422  -3.562  1.00  0.00     0.165 C 
BRANCH   9  10
HETATM   10  C   UNL     1     -18.085  -9.766  -5.036  1.00  0.00     0.198 C 
BRANCH  10  11
HETATM   11  O   UNL     1     -19.292 -10.131  -5.696  1.00  0.00    -0.398 OA
HETATM   12  H   UNL     1     -19.034 -10.720  -6.428  1.00  0.00     0.209 HD
ENDBRANCH  10  11
ENDBRANCH   9  10
BRANCH   9  13
HETATM   13  O   UNL     1     -17.063  -9.329  -2.887  1.00  0.00    -0.391 OA
HETATM   14  H   UNL     1     -17.246  -8.917  -2.020  1.00  0.00     0.210 HD
ENDBRANCH   9  13
ENDBRANCH   8   9
ENDBRANCH   7   8
ENDBRANCH   1   7
BRANCH   2  15
HETATM   15  O   UNL     1     -21.762  -7.866  -4.554  1.00  0.00    -0.341 OA
BRANCH  15  16
HETATM   16  C   UNL     1     -20.795  -7.101  -5.291  1.00  0.00     0.209 C 
BRANCH  16  17
HETATM   17  C   UNL     1     -21.428  -5.780  -5.743  1.00  0.00     0.166 C 
BRANCH  17  18
HETATM   18  C   UNL     1     -21.211  -5.498  -7.232  1.00  0.00     0.198 C 
BRANCH  18  19
HETATM   19  O   UNL     1     -20.046  -6.194  -7.680  1.00  0.00    -0.398 OA
HETATM   20  H   UNL     1     -20.173  -7.123  -7.402  1.00  0.00     0.209 HD
ENDBRANCH  18  19
ENDBRANCH  17  18
BRANCH  17  21
HETATM   21  O   UNL     1     -22.846  -5.802  -5.499  1.00  0.00    -0.391 OA
HETATM   22  H   UNL     1     -22.980  -5.431  -4.606  1.00  0.00     0.210 HD
ENDBRANCH  17  21
ENDBRANCH  16  17
ENDBRANCH  15  16
ENDBRANCH   2  15
BRANCH   6  23
HETATM   23  C   UNL     1     -21.931  -9.376  -0.113  1.00  0.00     0.177 C 
BRANCH  23  24
HETATM   24  C   UNL     1     -22.533  -8.443   0.948  1.00  0.00     0.198 C 
BRANCH  24  25
HETATM   25  O   UNL     1     -23.754  -7.886   0.466  1.00  0.00    -0.398 OA
HETATM   26  H   UNL     1     -23.603  -6.924   0.378  1.00  0.00     0.209 HD
ENDBRANCH  24  25
ENDBRANCH  23  24
BRANCH  23  27
HETATM   27  O   UNL     1     -23.027  -9.967  -0.839  1.00  0.00    -0.390 OA
HETATM   28  H   UNL     1     -23.587 -10.443  -0.195  1.00  0.00     0.210 HD
ENDBRANCH  23  27
ENDBRANCH   6  23
TORSDOF 16
ENDMDL
