MODEL 1
REMARK VINA RESULT:      -5.7      0.000      0.000
REMARK WARNING: 32 MAX_TORS EXCEEDED!!!
REMARK  46 active torsions:
REMARK  status: ('A' for Active; 'I' for Inactive)
REMARK    1  A    between atoms: C_3  and  O_78 
REMARK    2  A    between atoms: C_4  and  O_70 
REMARK    3  A    between atoms: C_5  and  O_62 
REMARK    4  A    between atoms: C_6  and  O_8 
REMARK    5  A    between atoms: O_8  and  C_9 
REMARK    6  A    between atoms: C_9  and  C_10 
REMARK    7  A    between atoms: C_11  and  O_54 
REMARK    8  A    between atoms: C_12  and  O_46 
REMARK    9  A    between atoms: C_13  and  O_38 
REMARK   10  A    between atoms: C_14  and  O_16 
REMARK   11  A    between atoms: O_16  and  C_17 
REMARK   12  A    between atoms: C_18  and  C_30 
REMARK   13  A    between atoms: C_22  and  O_29 
REMARK   14  A    between atoms: C_24  and  O_28 
REMARK   15  A    between atoms: C_32  and  O_37 
REMARK   16  A    between atoms: C_33  and  O_36 
REMARK   17  A    between atoms: O_38  and  C_39 
REMARK   18  A    between atoms: C_39  and  C_41 
REMARK   19  A    between atoms: C_41  and  C_42 
REMARK   20  A    between atoms: C_42  and  C_43 
REMARK   21  A    between atoms: C_43  and  O_45 
REMARK   22  A    between atoms: O_46  and  C_47 
REMARK   23  A    between atoms: C_47  and  C_49 
REMARK   24  A    between atoms: C_49  and  C_50 
REMARK   25  A    between atoms: C_50  and  C_51 
REMARK   26  A    between atoms: C_51  and  O_53 
REMARK   27  A    between atoms: O_54  and  C_55 
REMARK   28  A    between atoms: C_55  and  C_57 
REMARK   29  A    between atoms: C_57  and  C_58 
REMARK   30  A    between atoms: C_58  and  C_59 
REMARK   31  A    between atoms: C_59  and  O_61 
REMARK   32  A    between atoms: O_62  and  C_63 
REMARK   33  A    between atoms: C_63  and  C_65 
REMARK   34  A    between atoms: C_65  and  C_66 
REMARK   35  A    between atoms: C_66  and  C_67 
REMARK   36  A    between atoms: C_67  and  O_69 
REMARK   37  A    between atoms: O_70  and  C_71 
REMARK   38  A    between atoms: C_71  and  C_73 
REMARK   39  A    between atoms: C_73  and  C_74 
REMARK   40  A    between atoms: C_74  and  C_75 
REMARK   41  A    between atoms: C_75  and  O_77 
REMARK   42  A    between atoms: O_78  and  C_79 
REMARK   43  A    between atoms: C_79  and  C_81 
REMARK   44  A    between atoms: C_81  and  C_82 
REMARK   45  A    between atoms: C_82  and  C_83 
REMARK   46  A    between atoms: C_83  and  O_85 
ROOT
HETATM    1  C   UNL     1     -19.017 -13.599  -1.500  1.00  0.00     0.180 C 
HETATM    2  C   UNL     1     -20.240 -14.144  -2.285  1.00  0.00     0.195 C 
HETATM    3  C   UNL     1     -20.611 -13.202  -3.429  1.00  0.00     0.198 C 
HETATM    4  C   UNL     1     -20.718 -11.738  -2.938  1.00  0.00     0.219 C 
HETATM    5  C   UNL     1     -19.335 -11.355  -2.385  1.00  0.00     0.299 C 
HETATM    6  O   UNL     1     -19.081 -12.175  -1.224  1.00  0.00    -0.348 OA
ENDROOT
BRANCH   1   7
HETATM    7  C   UNL     1     -17.669 -13.955  -2.183  1.00  0.00     0.205 C 
BRANCH   7   8
HETATM    8  O   UNL     1     -16.999 -15.020  -1.488  1.00  0.00    -0.356 OA
BRANCH   8   9
HETATM    9  C   UNL     1     -15.672 -15.248  -1.963  1.00  0.00     0.292 C 
HETATM   10  C   UNL     1     -14.590 -14.482  -1.108  1.00  0.00     0.219 C 
HETATM   11  C   UNL     1     -13.236 -14.777  -1.807  1.00  0.00     0.198 C 
HETATM   12  C   UNL     1     -13.249 -14.375  -3.282  1.00  0.00     0.192 C 
HETATM   13  C   UNL     1     -14.370 -15.145  -4.000  1.00  0.00     0.152 C 
HETATM   14  C   UNL     1     -14.051 -16.635  -4.166  1.00  0.00     0.042 C 
HETATM   15  O   UNL     1     -15.628 -14.932  -3.350  1.00  0.00    -0.351 OA
BRANCH  10  16
HETATM   16  O   UNL     1     -14.860 -13.029  -0.947  1.00  0.00    -0.308 OA
BRANCH  16  17
HETATM   17  C   UNL     1     -15.270 -12.521   0.258  1.00  0.00     0.259 C 
HETATM   18  O   UNL     1     -16.063 -11.593   0.420  1.00  0.00    -0.265 OA
BRANCH  17  19
HETATM   19  C   UNL     1     -14.741 -13.194   1.503  1.00  0.00     0.121 C 
BRANCH  19  20
HETATM   20  C   UNL     1     -15.920 -13.615   2.398  1.00  0.00     0.119 C 
BRANCH  20  21
HETATM   21  C   UNL     1     -16.612 -14.961   2.341  1.00  0.00     0.139 C 
HETATM   22  O   UNL     1     -16.431 -15.928   3.053  1.00  0.00    -0.650 OA
BRANCH  21  23
HETATM   23  O   UNL     1     -17.585 -14.969   1.387  1.00  0.00    -0.776 OA
HETATM   24  H   UNL     1     -17.668 -15.812   0.900  1.00  0.00     0.167 HD
ENDBRANCH  21  23
ENDBRANCH  20  21
ENDBRANCH  19  20
ENDBRANCH  17  19
ENDBRANCH  16  17
ENDBRANCH  10  16
BRANCH  11  25
HETATM   25  O   UNL     1     -12.192 -14.098  -1.067  1.00  0.00    -0.310 OA
BRANCH  25  26
HETATM   26  C   UNL     1     -11.698 -14.690   0.034  1.00  0.00     0.259 C 
HETATM   27  O   UNL     1     -11.869 -15.878   0.341  1.00  0.00    -0.265 OA
BRANCH  26  28
HETATM   28  C   UNL     1     -10.951 -13.671   0.853  1.00  0.00     0.121 C 
BRANCH  28  29
HETATM   29  C   UNL     1      -9.529 -14.136   1.144  1.00  0.00     0.119 C 
BRANCH  29  30
HETATM   30  C   UNL     1      -9.245 -14.382   2.610  1.00  0.00     0.139 C 
HETATM   31  O   UNL     1      -9.198 -13.521   3.474  1.00  0.00    -0.650 OA
BRANCH  30  32
HETATM   32  O   UNL     1      -8.934 -15.662   2.889  1.00  0.00    -0.776 OA
HETATM   33  H   UNL     1      -9.164 -16.285   2.168  1.00  0.00     0.167 HD
ENDBRANCH  30  32
ENDBRANCH  29  30
ENDBRANCH  28  29
ENDBRANCH  26  28
ENDBRANCH  25  26
ENDBRANCH  11  25
BRANCH  12  34
HETATM   34  O   UNL     1     -13.465 -12.942  -3.340  1.00  0.00    -0.311 OA
BRANCH  34  35
HETATM   35  C   UNL     1     -13.628 -12.409  -4.566  1.00  0.00     0.259 C 
HETATM   36  O   UNL     1     -12.942 -12.676  -5.545  1.00  0.00    -0.265 OA
BRANCH  35  37
HETATM   37  C   UNL     1     -14.808 -11.471  -4.594  1.00  0.00     0.121 C 
BRANCH  37  38
HETATM   38  C   UNL     1     -15.541 -11.500  -5.926  1.00  0.00     0.119 C 
BRANCH  38  39
HETATM   39  C   UNL     1     -16.425 -12.711  -6.064  1.00  0.00     0.139 C 
HETATM   40  O   UNL     1     -16.123 -13.684  -6.741  1.00  0.00    -0.650 OA
BRANCH  39  41
HETATM   41  O   UNL     1     -17.590 -12.657  -5.384  1.00  0.00    -0.776 OA
HETATM   42  H   UNL     1     -18.388 -12.448  -5.906  1.00  0.00     0.167 HD
ENDBRANCH  39  41
ENDBRANCH  38  39
ENDBRANCH  37  38
ENDBRANCH  35  37
ENDBRANCH  34  35
ENDBRANCH  12  34
ENDBRANCH   8   9
ENDBRANCH   7   8
ENDBRANCH   1   7
BRANCH   2  43
HETATM   43  O   UNL     1     -21.495 -14.272  -1.570  1.00  0.00    -0.311 OA
BRANCH  43  44
HETATM   44  C   UNL     1     -21.918 -15.425  -1.034  1.00  0.00     0.259 C 
HETATM   45  O   UNL     1     -21.432 -15.995  -0.073  1.00  0.00    -0.265 OA
BRANCH  44  46
HETATM   46  C   UNL     1     -23.049 -15.940  -1.886  1.00  0.00     0.121 C 
BRANCH  46  47
HETATM   47  C   UNL     1     -24.319 -15.152  -1.620  1.00  0.00     0.119 C 
BRANCH  47  48
HETATM   48  C   UNL     1     -25.160 -15.847  -0.576  1.00  0.00     0.139 C 
HETATM   49  O   UNL     1     -26.276 -16.292  -0.777  1.00  0.00    -0.650 OA
BRANCH  48  50
HETATM   50  O   UNL     1     -24.542 -15.943   0.622  1.00  0.00    -0.776 OA
HETATM   51  H   UNL     1     -23.635 -15.583   0.636  1.00  0.00     0.167 HD
ENDBRANCH  48  50
ENDBRANCH  47  48
ENDBRANCH  46  47
ENDBRANCH  44  46
ENDBRANCH  43  44
ENDBRANCH   2  43
BRANCH   3  52
HETATM   52  O   UNL     1     -21.896 -13.527  -4.008  1.00  0.00    -0.310 OA
BRANCH  52  53
HETATM   53  C   UNL     1     -22.112 -13.288  -5.323  1.00  0.00     0.259 C 
HETATM   54  O   UNL     1     -23.177 -12.937  -5.802  1.00  0.00    -0.265 OA
BRANCH  53  55
HETATM   55  C   UNL     1     -20.867 -13.745  -6.083  1.00  0.00     0.121 C 
BRANCH  55  56
HETATM   56  C   UNL     1     -21.008 -13.290  -7.540  1.00  0.00     0.119 C 
BRANCH  56  57
HETATM   57  C   UNL     1     -19.807 -12.448  -7.689  1.00  0.00     0.139 C 
HETATM   58  O   UNL     1     -18.874 -12.806  -8.399  1.00  0.00    -0.650 OA
BRANCH  57  59
HETATM   59  O   UNL     1     -19.735 -11.387  -6.867  1.00  0.00    -0.776 OA
HETATM   60  H   UNL     1     -18.904 -11.175  -6.387  1.00  0.00     0.167 HD
ENDBRANCH  57  59
ENDBRANCH  56  57
ENDBRANCH  55  56
ENDBRANCH  53  55
ENDBRANCH  52  53
ENDBRANCH   3  52
BRANCH   5  61
HETATM   61  O   UNL     1     -19.267  -9.952  -2.077  1.00  0.00    -0.311 OA
BRANCH  61  62
HETATM   62  C   UNL     1     -19.708  -9.032  -3.044  1.00  0.00     0.157 C 
HETATM   63  C   UNL     1     -20.711  -8.176  -2.767  1.00  0.00     0.124 C 
HETATM   64  O   UNL     1     -21.277  -7.251  -3.593  1.00  0.00    -0.306 OA
HETATM   65  C   UNL     1     -20.674  -6.999  -4.777  1.00  0.00     0.096 A 
HETATM   66  C   UNL     1     -21.136  -5.853  -5.433  1.00  0.00     0.075 A 
HETATM   67  C   UNL     1     -19.666  -7.803  -5.288  1.00  0.00     0.084 A 
HETATM   68  C   UNL     1     -20.585  -5.509  -6.649  1.00  0.00     0.071 A 
HETATM   69  C   UNL     1     -19.644  -6.329  -7.236  1.00  0.00     0.074 A 
HETATM   70  C   UNL     1     -19.186  -7.454  -6.546  1.00  0.00     0.085 A 
HETATM   71  C   UNL     1     -19.145  -8.930  -4.438  1.00  0.00     0.223 C 
HETATM   72  O   UNL     1     -18.279  -9.708  -4.826  1.00  0.00    -0.284 OA
BRANCH  63  73
HETATM   73  C   UNL     1     -21.238  -8.020  -1.430  1.00  0.00     0.004 C 
HETATM   74  C   UNL     1     -20.600  -8.742  -0.412  1.00  0.00     0.053 C 
HETATM   75  C   UNL     1     -21.145  -8.732   0.853  1.00  0.00     0.099 C 
HETATM   76  C   UNL     1     -22.281  -7.963   1.095  1.00  0.00     0.098 C 
HETATM   77  C   UNL     1     -22.834  -7.140   0.114  1.00  0.00     0.040 C 
HETATM   78  C   UNL     1     -22.310  -7.170  -1.168  1.00  0.00     0.017 C 
BRANCH  75  79
HETATM   79  O   UNL     1     -20.614  -9.517   1.832  1.00  0.00    -0.358 OA
HETATM   80  H   UNL     1     -20.019 -10.167   1.423  1.00  0.00     0.217 HD
ENDBRANCH  75  79
BRANCH  76  81
HETATM   81  O   UNL     1     -22.947  -8.082   2.278  1.00  0.00    -0.358 OA
HETATM   82  H   UNL     1     -23.319  -7.193   2.420  1.00  0.00     0.217 HD
ENDBRANCH  76  81
ENDBRANCH  63  73
BRANCH  68  83
HETATM   83  O   UNL     1     -20.835  -4.302  -7.229  1.00  0.00    -0.361 OA
HETATM   84  H   UNL     1     -20.425  -4.290  -8.115  1.00  0.00     0.217 HD
ENDBRANCH  68  83
BRANCH  70  85
HETATM   85  O   UNL     1     -18.241  -8.179  -7.179  1.00  0.00    -0.360 OA
HETATM   86  H   UNL     1     -17.954  -7.660  -7.965  1.00  0.00     0.217 HD
ENDBRANCH  70  85
ENDBRANCH  61  62
ENDBRANCH   5  61
BRANCH   4  87
HETATM   87  O   UNL     1     -21.751 -11.584  -1.905  1.00  0.00    -0.308 OA
BRANCH  87  88
HETATM   88  C   UNL     1     -22.972 -11.158  -2.325  1.00  0.00     0.259 C 
HETATM   89  O   UNL     1     -23.180 -10.605  -3.401  1.00  0.00    -0.265 OA
BRANCH  88  90
HETATM   90  C   UNL     1     -24.104 -11.394  -1.350  1.00  0.00     0.121 C 
BRANCH  90  91
HETATM   91  C   UNL     1     -23.826 -11.141   0.120  1.00  0.00     0.119 C 
BRANCH  91  92
HETATM   92  C   UNL     1     -23.093 -12.292   0.754  1.00  0.00     0.139 C 
HETATM   93  O   UNL     1     -23.649 -13.269   1.237  1.00  0.00    -0.650 OA
BRANCH  92  94
HETATM   94  O   UNL     1     -21.750 -12.159   0.731  1.00  0.00    -0.776 OA
HETATM   95  H   UNL     1     -21.260 -12.986   0.911  1.00  0.00     0.167 HD
ENDBRANCH  92  94
ENDBRANCH  91  92
ENDBRANCH  90  91
ENDBRANCH  88  90
ENDBRANCH  87  88
ENDBRANCH   4  87
TORSDOF 46
ENDMDL
MODEL 2
REMARK VINA RESULT:      -5.6      1.991      7.526
REMARK WARNING: 32 MAX_TORS EXCEEDED!!!
REMARK  46 active torsions:
REMARK  status: ('A' for Active; 'I' for Inactive)
REMARK    1  A    between atoms: C_3  and  O_78 
REMARK    2  A    between atoms: C_4  and  O_70 
REMARK    3  A    between atoms: C_5  and  O_62 
REMARK    4  A    between atoms: C_6  and  O_8 
REMARK    5  A    between atoms: O_8  and  C_9 
REMARK    6  A    between atoms: C_9  and  C_10 
REMARK    7  A    between atoms: C_11  and  O_54 
REMARK    8  A    between atoms: C_12  and  O_46 
REMARK    9  A    between atoms: C_13  and  O_38 
REMARK   10  A    between atoms: C_14  and  O_16 
REMARK   11  A    between atoms: O_16  and  C_17 
REMARK   12  A    between atoms: C_18  and  C_30 
REMARK   13  A    between atoms: C_22  and  O_29 
REMARK   14  A    between atoms: C_24  and  O_28 
REMARK   15  A    between atoms: C_32  and  O_37 
REMARK   16  A    between atoms: C_33  and  O_36 
REMARK   17  A    between atoms: O_38  and  C_39 
REMARK   18  A    between atoms: C_39  and  C_41 
REMARK   19  A    between atoms: C_41  and  C_42 
REMARK   20  A    between atoms: C_42  and  C_43 
REMARK   21  A    between atoms: C_43  and  O_45 
REMARK   22  A    between atoms: O_46  and  C_47 
REMARK   23  A    between atoms: C_47  and  C_49 
REMARK   24  A    between atoms: C_49  and  C_50 
REMARK   25  A    between atoms: C_50  and  C_51 
REMARK   26  A    between atoms: C_51  and  O_53 
REMARK   27  A    between atoms: O_54  and  C_55 
REMARK   28  A    between atoms: C_55  and  C_57 
REMARK   29  A    between atoms: C_57  and  C_58 
REMARK   30  A    between atoms: C_58  and  C_59 
REMARK   31  A    between atoms: C_59  and  O_61 
REMARK   32  A    between atoms: O_62  and  C_63 
REMARK   33  A    between atoms: C_63  and  C_65 
REMARK   34  A    between atoms: C_65  and  C_66 
REMARK   35  A    between atoms: C_66  and  C_67 
REMARK   36  A    between atoms: C_67  and  O_69 
REMARK   37  A    between atoms: O_70  and  C_71 
REMARK   38  A    between atoms: C_71  and  C_73 
REMARK   39  A    between atoms: C_73  and  C_74 
REMARK   40  A    between atoms: C_74  and  C_75 
REMARK   41  A    between atoms: C_75  and  O_77 
REMARK   42  A    between atoms: O_78  and  C_79 
REMARK   43  A    between atoms: C_79  and  C_81 
REMARK   44  A    between atoms: C_81  and  C_82 
REMARK   45  A    between atoms: C_82  and  C_83 
REMARK   46  A    between atoms: C_83  and  O_85 
ROOT
HETATM    1  C   UNL     1     -19.173 -11.838  -2.398  1.00  0.00     0.180 C 
HETATM    2  C   UNL     1     -19.316 -10.345  -1.999  1.00  0.00     0.195 C 
HETATM    3  C   UNL     1     -20.713  -9.828  -2.335  1.00  0.00     0.198 C 
HETATM    4  C   UNL     1     -21.109 -10.182  -3.787  1.00  0.00     0.219 C 
HETATM    5  C   UNL     1     -21.091 -11.716  -3.890  1.00  0.00     0.299 C 
HETATM    6  O   UNL     1     -19.728 -12.155  -3.701  1.00  0.00    -0.348 OA
ENDROOT
BRANCH   1   7
HETATM    7  C   UNL     1     -19.747 -12.796  -1.320  1.00  0.00     0.205 C 
BRANCH   7   8
HETATM    8  O   UNL     1     -19.085 -12.615  -0.057  1.00  0.00    -0.356 OA
BRANCH   8   9
HETATM    9  C   UNL     1     -17.690 -12.916  -0.110  1.00  0.00     0.292 C 
HETATM   10  C   UNL     1     -17.418 -14.435  -0.440  1.00  0.00     0.219 C 
HETATM   11  C   UNL     1     -15.876 -14.594  -0.377  1.00  0.00     0.198 C 
HETATM   12  C   UNL     1     -15.304 -14.148   0.970  1.00  0.00     0.192 C 
HETATM   13  C   UNL     1     -15.673 -12.674   1.204  1.00  0.00     0.152 C 
HETATM   14  C   UNL     1     -14.897 -11.717   0.292  1.00  0.00     0.042 C 
HETATM   15  O   UNL     1     -17.089 -12.483   1.106  1.00  0.00    -0.351 OA
BRANCH  10  16
HETATM   16  O   UNL     1     -18.140 -15.388   0.443  1.00  0.00    -0.308 OA
BRANCH  16  17
HETATM   17  C   UNL     1     -18.984 -16.331  -0.085  1.00  0.00     0.259 C 
HETATM   18  O   UNL     1     -18.712 -17.118  -0.992  1.00  0.00    -0.265 OA
BRANCH  17  19
HETATM   19  C   UNL     1     -20.355 -16.451   0.537  1.00  0.00     0.121 C 
BRANCH  19  20
HETATM   20  C   UNL     1     -20.606 -15.244   1.460  1.00  0.00     0.119 C 
BRANCH  20  21
HETATM   21  C   UNL     1     -21.824 -14.347   1.400  1.00  0.00     0.139 C 
HETATM   22  O   UNL     1     -21.948 -13.220   1.837  1.00  0.00    -0.650 OA
BRANCH  21  23
HETATM   23  O   UNL     1     -22.828 -14.935   0.692  1.00  0.00    -0.776 OA
HETATM   24  H   UNL     1     -23.274 -14.345   0.053  1.00  0.00     0.167 HD
ENDBRANCH  21  23
ENDBRANCH  20  21
ENDBRANCH  19  20
ENDBRANCH  17  19
ENDBRANCH  16  17
ENDBRANCH  10  16
BRANCH  11  25
HETATM   25  O   UNL     1     -15.555 -15.975  -0.673  1.00  0.00    -0.310 OA
BRANCH  25  26
HETATM   26  C   UNL     1     -14.475 -16.234  -1.430  1.00  0.00     0.259 C 
HETATM   27  O   UNL     1     -13.338 -16.465  -0.994  1.00  0.00    -0.265 OA
BRANCH  26  28
HETATM   28  C   UNL     1     -14.855 -16.150  -2.884  1.00  0.00     0.121 C 
BRANCH  28  29
HETATM   29  C   UNL     1     -13.731 -15.538  -3.712  1.00  0.00     0.119 C 
BRANCH  29  30
HETATM   30  C   UNL     1     -13.939 -14.080  -4.059  1.00  0.00     0.139 C 
HETATM   31  O   UNL     1     -14.478 -13.254  -3.339  1.00  0.00    -0.650 OA
BRANCH  30  32
HETATM   32  O   UNL     1     -13.561 -13.767  -5.312  1.00  0.00    -0.776 OA
HETATM   33  H   UNL     1     -13.720 -14.486  -5.958  1.00  0.00     0.167 HD
ENDBRANCH  30  32
ENDBRANCH  29  30
ENDBRANCH  28  29
ENDBRANCH  26  28
ENDBRANCH  25  26
ENDBRANCH  11  25
BRANCH  12  34
HETATM   34  O   UNL     1     -15.872 -15.009   1.989  1.00  0.00    -0.311 OA
BRANCH  34  35
HETATM   35  C   UNL     1     -15.055 -15.357   3.002  1.00  0.00     0.259 C 
HETATM   36  O   UNL     1     -15.199 -15.016   4.170  1.00  0.00    -0.265 OA
BRANCH  35  37
HETATM   37  C   UNL     1     -13.958 -16.272   2.520  1.00  0.00     0.121 C 
BRANCH  37  38
HETATM   38  C   UNL     1     -12.581 -15.818   2.980  1.00  0.00     0.119 C 
BRANCH  38  39
HETATM   39  C   UNL     1     -11.616 -15.675   1.834  1.00  0.00     0.139 C 
HETATM   40  O   UNL     1     -10.660 -16.421   1.669  1.00  0.00    -0.650 OA
BRANCH  39  41
HETATM   41  O   UNL     1     -11.871 -14.657   0.985  1.00  0.00    -0.776 OA
HETATM   42  H   UNL     1     -11.745 -14.842   0.035  1.00  0.00     0.167 HD
ENDBRANCH  39  41
ENDBRANCH  38  39
ENDBRANCH  37  38
ENDBRANCH  35  37
ENDBRANCH  34  35
ENDBRANCH  12  34
ENDBRANCH   8   9
ENDBRANCH   7   8
ENDBRANCH   1   7
BRANCH   2  43
HETATM   43  O   UNL     1     -18.462  -9.384  -2.670  1.00  0.00    -0.311 OA
BRANCH  43  44
HETATM   44  C   UNL     1     -17.200  -9.656  -3.034  1.00  0.00     0.259 C 
HETATM   45  O   UNL     1     -16.246  -9.787  -2.287  1.00  0.00    -0.265 OA
BRANCH  44  46
HETATM   46  C   UNL     1     -17.152  -9.684  -4.540  1.00  0.00     0.121 C 
BRANCH  46  47
HETATM   47  C   UNL     1     -15.861 -10.320  -5.020  1.00  0.00     0.119 C 
BRANCH  47  48
HETATM   48  C   UNL     1     -16.150 -11.616  -5.741  1.00  0.00     0.139 C 
HETATM   49  O   UNL     1     -15.678 -11.922  -6.821  1.00  0.00    -0.650 OA
BRANCH  48  50
HETATM   50  O   UNL     1     -16.989 -12.425  -5.057  1.00  0.00    -0.776 OA
HETATM   51  H   UNL     1     -17.833 -12.606  -5.513  1.00  0.00     0.167 HD
ENDBRANCH  48  50
ENDBRANCH  47  48
ENDBRANCH  46  47
ENDBRANCH  44  46
ENDBRANCH  43  44
ENDBRANCH   2  43
BRANCH   3  52
HETATM   52  O   UNL     1     -20.801  -8.388  -2.233  1.00  0.00    -0.310 OA
BRANCH  52  53
HETATM   53  C   UNL     1     -21.889  -7.827  -1.655  1.00  0.00     0.259 C 
HETATM   54  O   UNL     1     -22.280  -6.691  -1.861  1.00  0.00    -0.265 OA
BRANCH  53  55
HETATM   55  C   UNL     1     -22.376  -8.786  -0.568  1.00  0.00     0.121 C 
BRANCH  55  56
HETATM   56  C   UNL     1     -22.013  -8.182   0.794  1.00  0.00     0.119 C 
BRANCH  56  57
HETATM   57  C   UNL     1     -21.200  -9.267   1.374  1.00  0.00     0.139 C 
HETATM   58  O   UNL     1     -20.352  -9.028   2.226  1.00  0.00    -0.650 OA
BRANCH  57  59
HETATM   59  O   UNL     1     -21.324 -10.467   0.781  1.00  0.00    -0.776 OA
HETATM   60  H   UNL     1     -22.146 -10.997   0.880  1.00  0.00     0.167 HD
ENDBRANCH  57  59
ENDBRANCH  56  57
ENDBRANCH  55  56
ENDBRANCH  53  55
ENDBRANCH  52  53
ENDBRANCH   3  52
BRANCH   5  61
HETATM   61  O   UNL     1     -21.629 -12.161  -5.146  1.00  0.00    -0.311 OA
BRANCH  61  62
HETATM   62  C   UNL     1     -20.911 -13.120  -5.881  1.00  0.00     0.157 C 
HETATM   63  C   UNL     1     -21.187 -14.432  -5.747  1.00  0.00     0.124 C 
HETATM   64  O   UNL     1     -20.570 -15.486  -6.354  1.00  0.00    -0.306 OA
HETATM   65  C   UNL     1     -19.697 -15.225  -7.354  1.00  0.00     0.096 A 
HETATM   66  C   UNL     1     -19.329 -16.342  -8.111  1.00  0.00     0.075 A 
HETATM   67  C   UNL     1     -19.223 -13.948  -7.617  1.00  0.00     0.084 A 
HETATM   68  C   UNL     1     -18.443 -16.181  -9.155  1.00  0.00     0.071 A 
HETATM   69  C   UNL     1     -17.877 -14.946  -9.395  1.00  0.00     0.074 A 
HETATM   70  C   UNL     1     -18.282 -13.845  -8.636  1.00  0.00     0.085 A 
HETATM   71  C   UNL     1     -19.790 -12.796  -6.834  1.00  0.00     0.223 C 
HETATM   72  O   UNL     1     -19.402 -11.640  -6.981  1.00  0.00    -0.284 OA
BRANCH  63  73
HETATM   73  C   UNL     1     -22.343 -14.902  -5.017  1.00  0.00     0.004 C 
HETATM   74  C   UNL     1     -22.145 -15.233  -3.670  1.00  0.00     0.053 C 
HETATM   75  C   UNL     1     -23.181 -15.811  -2.968  1.00  0.00     0.099 C 
HETATM   76  C   UNL     1     -24.407 -16.000  -3.602  1.00  0.00     0.098 C 
HETATM   77  C   UNL     1     -24.640 -15.545  -4.899  1.00  0.00     0.040 C 
HETATM   78  C   UNL     1     -23.595 -14.992  -5.621  1.00  0.00     0.017 C 
BRANCH  75  79
HETATM   79  O   UNL     1     -22.981 -16.251  -1.694  1.00  0.00    -0.358 OA
HETATM   80  H   UNL     1     -22.952 -15.483  -1.099  1.00  0.00     0.217 HD
ENDBRANCH  75  79
BRANCH  76  81
HETATM   81  O   UNL     1     -25.382 -16.735  -2.997  1.00  0.00    -0.358 OA
HETATM   82  H   UNL     1     -25.553 -17.452  -3.634  1.00  0.00     0.217 HD
ENDBRANCH  76  81
ENDBRANCH  63  73
BRANCH  68  83
HETATM   83  O   UNL     1     -18.214 -17.177 -10.056  1.00  0.00    -0.361 OA
HETATM   84  H   UNL     1     -18.989 -17.251 -10.645  1.00  0.00     0.217 HD
ENDBRANCH  68  83
BRANCH  70  85
HETATM   85  O   UNL     1     -17.703 -12.671  -8.962  1.00  0.00    -0.360 OA
HETATM   86  H   UNL     1     -16.733 -12.777  -8.827  1.00  0.00     0.217 HD
ENDBRANCH  70  85
ENDBRANCH  61  62
ENDBRANCH   5  61
BRANCH   4  87
HETATM   87  O   UNL     1     -20.187  -9.586  -4.764  1.00  0.00    -0.308 OA
BRANCH  87  88
HETATM   88  C   UNL     1     -20.692  -8.602  -5.555  1.00  0.00     0.259 C 
HETATM   89  O   UNL     1     -21.574  -8.772  -6.393  1.00  0.00    -0.265 OA
BRANCH  88  90
HETATM   90  C   UNL     1     -20.075  -7.236  -5.354  1.00  0.00     0.121 C 
BRANCH  90  91
HETATM   91  C   UNL     1     -20.454  -6.145  -6.338  1.00  0.00     0.119 C 
BRANCH  91  92
HETATM   92  C   UNL     1     -21.802  -5.555  -6.023  1.00  0.00     0.139 C 
HETATM   93  O   UNL     1     -22.411  -4.810  -6.778  1.00  0.00    -0.650 OA
BRANCH  92  94
HETATM   94  O   UNL     1     -22.295  -5.936  -4.826  1.00  0.00    -0.776 OA
HETATM   95  H   UNL     1     -22.642  -5.202  -4.280  1.00  0.00     0.167 HD
ENDBRANCH  92  94
ENDBRANCH  91  92
ENDBRANCH  90  91
ENDBRANCH  88  90
ENDBRANCH  87  88
ENDBRANCH   4  87
TORSDOF 46
ENDMDL
MODEL 3
REMARK VINA RESULT:      -5.5      1.891      9.657
REMARK WARNING: 32 MAX_TORS EXCEEDED!!!
REMARK  46 active torsions:
REMARK  status: ('A' for Active; 'I' for Inactive)
REMARK    1  A    between atoms: C_3  and  O_78 
REMARK    2  A    between atoms: C_4  and  O_70 
REMARK    3  A    between atoms: C_5  and  O_62 
REMARK    4  A    between atoms: C_6  and  O_8 
REMARK    5  A    between atoms: O_8  and  C_9 
REMARK    6  A    between atoms: C_9  and  C_10 
REMARK    7  A    between atoms: C_11  and  O_54 
REMARK    8  A    between atoms: C_12  and  O_46 
REMARK    9  A    between atoms: C_13  and  O_38 
REMARK   10  A    between atoms: C_14  and  O_16 
REMARK   11  A    between atoms: O_16  and  C_17 
REMARK   12  A    between atoms: C_18  and  C_30 
REMARK   13  A    between atoms: C_22  and  O_29 
REMARK   14  A    between atoms: C_24  and  O_28 
REMARK   15  A    between atoms: C_32  and  O_37 
REMARK   16  A    between atoms: C_33  and  O_36 
REMARK   17  A    between atoms: O_38  and  C_39 
REMARK   18  A    between atoms: C_39  and  C_41 
REMARK   19  A    between atoms: C_41  and  C_42 
REMARK   20  A    between atoms: C_42  and  C_43 
REMARK   21  A    between atoms: C_43  and  O_45 
REMARK   22  A    between atoms: O_46  and  C_47 
REMARK   23  A    between atoms: C_47  and  C_49 
REMARK   24  A    between atoms: C_49  and  C_50 
REMARK   25  A    between atoms: C_50  and  C_51 
REMARK   26  A    between atoms: C_51  and  O_53 
REMARK   27  A    between atoms: O_54  and  C_55 
REMARK   28  A    between atoms: C_55  and  C_57 
REMARK   29  A    between atoms: C_57  and  C_58 
REMARK   30  A    between atoms: C_58  and  C_59 
REMARK   31  A    between atoms: C_59  and  O_61 
REMARK   32  A    between atoms: O_62  and  C_63 
REMARK   33  A    between atoms: C_63  and  C_65 
REMARK   34  A    between atoms: C_65  and  C_66 
REMARK   35  A    between atoms: C_66  and  C_67 
REMARK   36  A    between atoms: C_67  and  O_69 
REMARK   37  A    between atoms: O_70  and  C_71 
REMARK   38  A    between atoms: C_71  and  C_73 
REMARK   39  A    between atoms: C_73  and  C_74 
REMARK   40  A    between atoms: C_74  and  C_75 
REMARK   41  A    between atoms: C_75  and  O_77 
REMARK   42  A    between atoms: O_78  and  C_79 
REMARK   43  A    between atoms: C_79  and  C_81 
REMARK   44  A    between atoms: C_81  and  C_82 
REMARK   45  A    between atoms: C_82  and  C_83 
REMARK   46  A    between atoms: C_83  and  O_85 
ROOT
HETATM    1  C   UNL     1     -17.200 -13.865  -3.234  1.00  0.00     0.180 C 
HETATM    2  C   UNL     1     -15.926 -14.332  -3.988  1.00  0.00     0.195 C 
HETATM    3  C   UNL     1     -15.736 -15.840  -3.844  1.00  0.00     0.198 C 
HETATM    4  C   UNL     1     -15.848 -16.282  -2.365  1.00  0.00     0.219 C 
HETATM    5  C   UNL     1     -17.260 -15.894  -1.893  1.00  0.00     0.299 C 
HETATM    6  O   UNL     1     -17.353 -14.454  -1.916  1.00  0.00    -0.348 OA
ENDROOT
BRANCH   1   7
HETATM    7  C   UNL     1     -18.492 -14.071  -4.069  1.00  0.00     0.205 C 
BRANCH   7   8
HETATM    8  O   UNL     1     -18.874 -12.861  -4.745  1.00  0.00    -0.356 OA
BRANCH   8   9
HETATM    9  C   UNL     1     -19.071 -11.763  -3.854  1.00  0.00     0.292 C 
HETATM   10  C   UNL     1     -20.552 -11.689  -3.313  1.00  0.00     0.219 C 
HETATM   11  C   UNL     1     -20.601 -10.409  -2.439  1.00  0.00     0.198 C 
HETATM   12  C   UNL     1     -20.169  -9.163  -3.214  1.00  0.00     0.192 C 
HETATM   13  C   UNL     1     -18.736  -9.370  -3.730  1.00  0.00     0.152 C 
HETATM   14  C   UNL     1     -17.690  -9.324  -2.611  1.00  0.00     0.042 C 
HETATM   15  O   UNL     1     -18.644 -10.571  -4.505  1.00  0.00    -0.351 OA
BRANCH  10  16
HETATM   16  O   UNL     1     -21.588 -11.710  -4.378  1.00  0.00    -0.308 OA
BRANCH  16  17
HETATM   17  C   UNL     1     -22.167 -12.889  -4.771  1.00  0.00     0.259 C 
HETATM   18  O   UNL     1     -22.535 -13.798  -4.026  1.00  0.00    -0.265 OA
BRANCH  17  19
HETATM   19  C   UNL     1     -22.421 -13.070  -6.249  1.00  0.00     0.121 C 
BRANCH  19  20
HETATM   20  C   UNL     1     -21.180 -13.695  -6.910  1.00  0.00     0.119 C 
BRANCH  20  21
HETATM   21  C   UNL     1     -20.148 -12.928  -7.711  1.00  0.00     0.139 C 
HETATM   22  O   UNL     1     -19.655 -13.227  -8.781  1.00  0.00    -0.650 OA
BRANCH  21  23
HETATM   23  O   UNL     1     -19.847 -11.743  -7.111  1.00  0.00    -0.776 OA
HETATM   24  H   UNL     1     -19.340 -11.122  -7.670  1.00  0.00     0.167 HD
ENDBRANCH  21  23
ENDBRANCH  20  21
ENDBRANCH  19  20
ENDBRANCH  17  19
ENDBRANCH  16  17
ENDBRANCH  10  16
BRANCH  11  25
HETATM   25  O   UNL     1     -21.943 -10.280  -1.908  1.00  0.00    -0.310 OA
BRANCH  25  26
HETATM   26  C   UNL     1     -22.120 -10.391  -0.580  1.00  0.00     0.259 C 
HETATM   27  O   UNL     1     -23.116 -10.887  -0.033  1.00  0.00    -0.265 OA
BRANCH  26  28
HETATM   28  C   UNL     1     -20.945  -9.774   0.131  1.00  0.00     0.121 C 
BRANCH  28  29
HETATM   29  C   UNL     1     -21.372  -8.559   0.946  1.00  0.00     0.119 C 
BRANCH  29  30
HETATM   30  C   UNL     1     -22.471  -7.738   0.306  1.00  0.00     0.139 C 
HETATM   31  O   UNL     1     -22.307  -6.904  -0.571  1.00  0.00    -0.650 OA
BRANCH  30  32
HETATM   32  O   UNL     1     -23.680  -7.928   0.866  1.00  0.00    -0.776 OA
HETATM   33  H   UNL     1     -23.882  -8.870   1.047  1.00  0.00     0.167 HD
ENDBRANCH  30  32
ENDBRANCH  29  30
ENDBRANCH  28  29
ENDBRANCH  26  28
ENDBRANCH  25  26
ENDBRANCH  11  25
BRANCH  12  34
HETATM   34  O   UNL     1     -21.108  -8.982  -4.303  1.00  0.00    -0.311 OA
BRANCH  34  35
HETATM   35  C   UNL     1     -21.577  -7.733  -4.489  1.00  0.00     0.259 C 
HETATM   36  O   UNL     1     -21.822  -6.934  -3.593  1.00  0.00    -0.265 OA
BRANCH  35  37
HETATM   37  C   UNL     1     -21.717  -7.421  -5.957  1.00  0.00     0.121 C 
BRANCH  37  38
HETATM   38  C   UNL     1     -21.559  -5.938  -6.253  1.00  0.00     0.119 C 
BRANCH  38  39
HETATM   39  C   UNL     1     -20.134  -5.568  -6.565  1.00  0.00     0.139 C 
HETATM   40  O   UNL     1     -19.642  -4.490  -6.260  1.00  0.00    -0.650 OA
BRANCH  39  41
HETATM   41  O   UNL     1     -19.419  -6.512  -7.213  1.00  0.00    -0.776 OA
HETATM   42  H   UNL     1     -18.755  -6.191  -7.852  1.00  0.00     0.167 HD
ENDBRANCH  39  41
ENDBRANCH  38  39
ENDBRANCH  37  38
ENDBRANCH  35  37
ENDBRANCH  34  35
ENDBRANCH  12  34
ENDBRANCH   8   9
ENDBRANCH   7   8
ENDBRANCH   1   7
BRANCH   2  43
HETATM   43  O   UNL     1     -14.649 -13.815  -3.536  1.00  0.00    -0.311 OA
BRANCH  43  44
HETATM   44  C   UNL     1     -13.862 -13.042  -4.297  1.00  0.00     0.259 C 
HETATM   45  O   UNL     1     -13.000 -12.277  -3.900  1.00  0.00    -0.265 OA
BRANCH  44  46
HETATM   46  C   UNL     1     -14.290 -13.222  -5.731  1.00  0.00     0.121 C 
BRANCH  46  47
HETATM   47  C   UNL     1     -14.362 -11.881  -6.438  1.00  0.00     0.119 C 
BRANCH  47  48
HETATM   48  C   UNL     1     -15.665 -11.187  -6.118  1.00  0.00     0.139 C 
HETATM   49  O   UNL     1     -15.749 -10.082  -5.612  1.00  0.00    -0.650 OA
BRANCH  48  50
HETATM   50  O   UNL     1     -16.750 -11.914  -6.463  1.00  0.00    -0.776 OA
HETATM   51  H   UNL     1     -17.505 -11.383  -6.778  1.00  0.00     0.167 HD
ENDBRANCH  48  50
ENDBRANCH  47  48
ENDBRANCH  46  47
ENDBRANCH  44  46
ENDBRANCH  43  44
ENDBRANCH   2  43
BRANCH   3  52
HETATM   52  O   UNL     1     -14.431 -16.271  -4.295  1.00  0.00    -0.310 OA
BRANCH  52  53
HETATM   53  C   UNL     1     -14.298 -16.803  -5.533  1.00  0.00     0.259 C 
HETATM   54  O   UNL     1     -13.250 -16.880  -6.150  1.00  0.00    -0.265 OA
BRANCH  53  55
HETATM   55  C   UNL     1     -15.704 -17.071  -6.070  1.00  0.00     0.121 C 
BRANCH  55  56
HETATM   56  C   UNL     1     -15.689 -16.822  -7.583  1.00  0.00     0.119 C 
BRANCH  56  57
HETATM   57  C   UNL     1     -16.885 -15.974  -7.740  1.00  0.00     0.139 C 
HETATM   58  O   UNL     1     -16.972 -14.898  -7.160  1.00  0.00    -0.650 OA
BRANCH  57  59
HETATM   59  O   UNL     1     -17.916 -16.540  -8.392  1.00  0.00    -0.776 OA
HETATM   60  H   UNL     1     -17.765 -17.238  -9.067  1.00  0.00     0.167 HD
ENDBRANCH  57  59
ENDBRANCH  56  57
ENDBRANCH  55  56
ENDBRANCH  53  55
ENDBRANCH  52  53
ENDBRANCH   3  52
BRANCH   5  61
HETATM   61  O   UNL     1     -17.539 -16.431  -0.589  1.00  0.00    -0.311 OA
BRANCH  61  62
HETATM   62  C   UNL     1     -18.750 -16.083   0.033  1.00  0.00     0.157 C 
HETATM   63  C   UNL     1     -18.792 -15.832   1.356  1.00  0.00     0.124 C 
HETATM   64  O   UNL     1     -19.879 -15.516   2.117  1.00  0.00    -0.306 OA
HETATM   65  C   UNL     1     -21.040 -15.230   1.483  1.00  0.00     0.096 A 
HETATM   66  C   UNL     1     -22.016 -14.644   2.295  1.00  0.00     0.075 A 
HETATM   67  C   UNL     1     -21.236 -15.481   0.133  1.00  0.00     0.084 A 
HETATM   68  C   UNL     1     -23.235 -14.313   1.744  1.00  0.00     0.071 A 
HETATM   69  C   UNL     1     -23.505 -14.627   0.428  1.00  0.00     0.074 A 
HETATM   70  C   UNL     1     -22.502 -15.192  -0.363  1.00  0.00     0.085 A 
HETATM   71  C   UNL     1     -20.074 -15.983  -0.680  1.00  0.00     0.223 C 
HETATM   72  O   UNL     1     -20.170 -16.262  -1.872  1.00  0.00    -0.284 OA
BRANCH  63  73
HETATM   73  C   UNL     1     -17.591 -15.709   2.151  1.00  0.00     0.004 C 
HETATM   74  C   UNL     1     -16.757 -14.620   1.868  1.00  0.00     0.053 C 
HETATM   75  C   UNL     1     -15.538 -14.532   2.504  1.00  0.00     0.099 C 
HETATM   76  C   UNL     1     -15.194 -15.498   3.447  1.00  0.00     0.098 C 
HETATM   77  C   UNL     1     -16.084 -16.504   3.824  1.00  0.00     0.040 C 
HETATM   78  C   UNL     1     -17.298 -16.616   3.167  1.00  0.00     0.017 C 
BRANCH  75  79
HETATM   79  O   UNL     1     -14.658 -13.549   2.162  1.00  0.00    -0.358 OA
HETATM   80  H   UNL     1     -14.136 -13.848   1.399  1.00  0.00     0.217 HD
ENDBRANCH  75  79
BRANCH  76  81
HETATM   81  O   UNL     1     -13.928 -15.543   3.949  1.00  0.00    -0.358 OA
HETATM   82  H   UNL     1     -13.374 -15.285   3.190  1.00  0.00     0.217 HD
ENDBRANCH  76  81
ENDBRANCH  63  73
BRANCH  68  83
HETATM   83  O   UNL     1     -24.140 -13.551   2.420  1.00  0.00    -0.361 OA
HETATM   84  H   UNL     1     -23.698 -13.153   3.194  1.00  0.00     0.217 HD
ENDBRANCH  68  83
BRANCH  70  85
HETATM   85  O   UNL     1     -22.842 -15.434  -1.646  1.00  0.00    -0.360 OA
HETATM   86  H   UNL     1     -23.764 -15.111  -1.769  1.00  0.00     0.217 HD
ENDBRANCH  70  85
ENDBRANCH  61  62
ENDBRANCH   5  61
BRANCH   4  87
HETATM   87  O   UNL     1     -14.826 -15.641  -1.526  1.00  0.00    -0.308 OA
BRANCH  87  88
HETATM   88  C   UNL     1     -14.255 -16.414  -0.566  1.00  0.00     0.259 C 
HETATM   89  O   UNL     1     -14.876 -17.180   0.166  1.00  0.00    -0.265 OA
BRANCH  88  90
HETATM   90  C   UNL     1     -12.757 -16.263  -0.427  1.00  0.00     0.121 C 
BRANCH  90  91
HETATM   91  C   UNL     1     -12.154 -16.500   0.945  1.00  0.00     0.119 C 
BRANCH  91  92
HETATM   92  C   UNL     1     -11.528 -15.250   1.502  1.00  0.00     0.139 C 
HETATM   93  O   UNL     1     -10.655 -15.250   2.359  1.00  0.00    -0.650 OA
BRANCH  92  94
HETATM   94  O   UNL     1     -12.007 -14.113   0.956  1.00  0.00    -0.776 OA
HETATM   95  H   UNL     1     -11.603 -13.295   1.307  1.00  0.00     0.167 HD
ENDBRANCH  92  94
ENDBRANCH  91  92
ENDBRANCH  90  91
ENDBRANCH  88  90
ENDBRANCH  87  88
ENDBRANCH   4  87
TORSDOF 46
ENDMDL
MODEL 4
REMARK VINA RESULT:      -5.2      2.046      7.446
REMARK WARNING: 32 MAX_TORS EXCEEDED!!!
REMARK  46 active torsions:
REMARK  status: ('A' for Active; 'I' for Inactive)
REMARK    1  A    between atoms: C_3  and  O_78 
REMARK    2  A    between atoms: C_4  and  O_70 
REMARK    3  A    between atoms: C_5  and  O_62 
REMARK    4  A    between atoms: C_6  and  O_8 
REMARK    5  A    between atoms: O_8  and  C_9 
REMARK    6  A    between atoms: C_9  and  C_10 
REMARK    7  A    between atoms: C_11  and  O_54 
REMARK    8  A    between atoms: C_12  and  O_46 
REMARK    9  A    between atoms: C_13  and  O_38 
REMARK   10  A    between atoms: C_14  and  O_16 
REMARK   11  A    between atoms: O_16  and  C_17 
REMARK   12  A    between atoms: C_18  and  C_30 
REMARK   13  A    between atoms: C_22  and  O_29 
REMARK   14  A    between atoms: C_24  and  O_28 
REMARK   15  A    between atoms: C_32  and  O_37 
REMARK   16  A    between atoms: C_33  and  O_36 
REMARK   17  A    between atoms: O_38  and  C_39 
REMARK   18  A    between atoms: C_39  and  C_41 
REMARK   19  A    between atoms: C_41  and  C_42 
REMARK   20  A    between atoms: C_42  and  C_43 
REMARK   21  A    between atoms: C_43  and  O_45 
REMARK   22  A    between atoms: O_46  and  C_47 
REMARK   23  A    between atoms: C_47  and  C_49 
REMARK   24  A    between atoms: C_49  and  C_50 
REMARK   25  A    between atoms: C_50  and  C_51 
REMARK   26  A    between atoms: C_51  and  O_53 
REMARK   27  A    between atoms: O_54  and  C_55 
REMARK   28  A    between atoms: C_55  and  C_57 
REMARK   29  A    between atoms: C_57  and  C_58 
REMARK   30  A    between atoms: C_58  and  C_59 
REMARK   31  A    between atoms: C_59  and  O_61 
REMARK   32  A    between atoms: O_62  and  C_63 
REMARK   33  A    between atoms: C_63  and  C_65 
REMARK   34  A    between atoms: C_65  and  C_66 
REMARK   35  A    between atoms: C_66  and  C_67 
REMARK   36  A    between atoms: C_67  and  O_69 
REMARK   37  A    between atoms: O_70  and  C_71 
REMARK   38  A    between atoms: C_71  and  C_73 
REMARK   39  A    between atoms: C_73  and  C_74 
REMARK   40  A    between atoms: C_74  and  C_75 
REMARK   41  A    between atoms: C_75  and  O_77 
REMARK   42  A    between atoms: O_78  and  C_79 
REMARK   43  A    between atoms: C_79  and  C_81 
REMARK   44  A    between atoms: C_81  and  C_82 
REMARK   45  A    between atoms: C_82  and  C_83 
REMARK   46  A    between atoms: C_83  and  O_85 
ROOT
HETATM    1  C   UNL     1     -18.631 -11.715  -2.320  1.00  0.00     0.180 C 
HETATM    2  C   UNL     1     -18.776 -10.210  -1.967  1.00  0.00     0.195 C 
HETATM    3  C   UNL     1     -20.223  -9.752  -2.136  1.00  0.00     0.198 C 
HETATM    4  C   UNL     1     -20.791 -10.183  -3.508  1.00  0.00     0.219 C 
HETATM    5  C   UNL     1     -20.731 -11.719  -3.550  1.00  0.00     0.299 C 
HETATM    6  O   UNL     1     -19.340 -12.107  -3.525  1.00  0.00    -0.348 OA
ENDROOT
BRANCH   1   7
HETATM    7  C   UNL     1     -19.025 -12.641  -1.139  1.00  0.00     0.205 C 
BRANCH   7   8
HETATM    8  O   UNL     1     -17.860 -13.162  -0.476  1.00  0.00    -0.356 OA
BRANCH   8   9
HETATM    9  C   UNL     1     -16.806 -13.495  -1.379  1.00  0.00     0.292 C 
HETATM   10  C   UNL     1     -16.785 -15.031  -1.736  1.00  0.00     0.219 C 
HETATM   11  C   UNL     1     -15.545 -15.220  -2.649  1.00  0.00     0.198 C 
HETATM   12  C   UNL     1     -14.259 -14.729  -1.983  1.00  0.00     0.192 C 
HETATM   13  C   UNL     1     -14.414 -13.238  -1.639  1.00  0.00     0.152 C 
HETATM   14  C   UNL     1     -14.394 -12.339  -2.879  1.00  0.00     0.042 C 
HETATM   15  O   UNL     1     -15.578 -13.022  -0.834  1.00  0.00    -0.351 OA
BRANCH  10  16
HETATM   16  O   UNL     1     -16.782 -15.930  -0.552  1.00  0.00    -0.308 OA
BRANCH  16  17
HETATM   17  C   UNL     1     -17.943 -16.506  -0.105  1.00  0.00     0.259 C 
HETATM   18  O   UNL     1     -18.776 -17.087  -0.801  1.00  0.00    -0.265 OA
BRANCH  17  19
HETATM   19  C   UNL     1     -18.199 -16.471   1.383  1.00  0.00     0.121 C 
BRANCH  19  20
HETATM   20  C   UNL     1     -19.441 -15.608   1.669  1.00  0.00     0.119 C 
BRANCH  20  21
HETATM   21  C   UNL     1     -20.781 -16.146   2.128  1.00  0.00     0.139 C 
HETATM   22  O   UNL     1     -21.428 -17.056   1.648  1.00  0.00    -0.650 OA
BRANCH  21  23
HETATM   23  O   UNL     1     -21.198 -15.513   3.260  1.00  0.00    -0.776 OA
HETATM   24  H   UNL     1     -20.480 -15.278   3.881  1.00  0.00     0.167 HD
ENDBRANCH  21  23
ENDBRANCH  20  21
ENDBRANCH  19  20
ENDBRANCH  17  19
ENDBRANCH  16  17
ENDBRANCH  10  16
BRANCH  11  25
HETATM   25  O   UNL     1     -15.467 -16.620  -3.015  1.00  0.00    -0.310 OA
BRANCH  25  26
HETATM   26  C   UNL     1     -15.915 -16.990  -4.228  1.00  0.00     0.259 C 
HETATM   27  O   UNL     1     -17.104 -17.181  -4.520  1.00  0.00    -0.265 OA
BRANCH  26  28
HETATM   28  C   UNL     1     -14.742 -17.183  -5.152  1.00  0.00     0.121 C 
BRANCH  28  29
HETATM   29  C   UNL     1     -14.609 -16.014  -6.121  1.00  0.00     0.119 C 
BRANCH  29  30
HETATM   30  C   UNL     1     -13.180 -15.622  -6.427  1.00  0.00     0.139 C 
HETATM   31  O   UNL     1     -12.257 -16.402  -6.606  1.00  0.00    -0.650 OA
BRANCH  30  32
HETATM   32  O   UNL     1     -12.967 -14.293  -6.388  1.00  0.00    -0.776 OA
HETATM   33  H   UNL     1     -12.158 -14.043  -5.896  1.00  0.00     0.167 HD
ENDBRANCH  30  32
ENDBRANCH  29  30
ENDBRANCH  28  29
ENDBRANCH  26  28
ENDBRANCH  25  26
ENDBRANCH  11  25
BRANCH  12  34
HETATM   34  O   UNL     1     -14.050 -15.532  -0.795  1.00  0.00    -0.311 OA
BRANCH  34  35
HETATM   35  C   UNL     1     -12.881 -15.357  -0.150  1.00  0.00     0.259 C 
HETATM   36  O   UNL     1     -11.868 -14.879  -0.649  1.00  0.00    -0.265 OA
BRANCH  35  37
HETATM   37  C   UNL     1     -12.990 -15.781   1.292  1.00  0.00     0.121 C 
BRANCH  37  38
HETATM   38  C   UNL     1     -14.430 -16.019   1.719  1.00  0.00     0.119 C 
BRANCH  38  39
HETATM   39  C   UNL     1     -15.016 -14.833   2.437  1.00  0.00     0.139 C 
HETATM   40  O   UNL     1     -15.581 -14.919   3.518  1.00  0.00    -0.650 OA
BRANCH  39  41
HETATM   41  O   UNL     1     -14.878 -13.648   1.804  1.00  0.00    -0.776 OA
HETATM   42  H   UNL     1     -15.253 -13.590   0.906  1.00  0.00     0.167 HD
ENDBRANCH  39  41
ENDBRANCH  38  39
ENDBRANCH  37  38
ENDBRANCH  35  37
ENDBRANCH  34  35
ENDBRANCH  12  34
ENDBRANCH   8   9
ENDBRANCH   7   8
ENDBRANCH   1   7
BRANCH   2  43
HETATM   43  O   UNL     1     -18.052  -9.255  -2.783  1.00  0.00    -0.311 OA
BRANCH  43  44
HETATM   44  C   UNL     1     -16.802  -9.465  -3.221  1.00  0.00     0.259 C 
HETATM   45  O   UNL     1     -15.790  -9.466  -2.541  1.00  0.00    -0.265 OA
BRANCH  44  46
HETATM   46  C   UNL     1     -16.859  -9.614  -4.719  1.00  0.00     0.121 C 
BRANCH  46  47
HETATM   47  C   UNL     1     -15.492  -9.972  -5.272  1.00  0.00     0.119 C 
BRANCH  47  48
HETATM   48  C   UNL     1     -15.575 -11.226  -6.109  1.00  0.00     0.139 C 
HETATM   49  O   UNL     1     -14.609 -11.841  -6.526  1.00  0.00    -0.650 OA
BRANCH  48  50
HETATM   50  O   UNL     1     -16.846 -11.620  -6.347  1.00  0.00    -0.776 OA
HETATM   51  H   UNL     1     -16.980 -12.585  -6.313  1.00  0.00     0.167 HD
ENDBRANCH  48  50
ENDBRANCH  47  48
ENDBRANCH  46  47
ENDBRANCH  44  46
ENDBRANCH  43  44
ENDBRANCH   2  43
BRANCH   3  52
HETATM   52  O   UNL     1     -20.348  -8.313  -2.082  1.00  0.00    -0.310 OA
BRANCH  52  53
HETATM   53  C   UNL     1     -21.464  -7.763  -1.548  1.00  0.00     0.259 C 
HETATM   54  O   UNL     1     -21.707  -6.568  -1.519  1.00  0.00    -0.265 OA
BRANCH  53  55
HETATM   55  C   UNL     1     -22.220  -8.874  -0.819  1.00  0.00     0.121 C 
BRANCH  55  56
HETATM   56  C   UNL     1     -21.895  -8.765   0.676  1.00  0.00     0.119 C 
BRANCH  56  57
HETATM   57  C   UNL     1     -21.268 -10.077   0.923  1.00  0.00     0.139 C 
HETATM   58  O   UNL     1     -21.889 -11.115   0.726  1.00  0.00    -0.650 OA
BRANCH  57  59
HETATM   59  O   UNL     1     -20.075 -10.043   1.539  1.00  0.00    -0.776 OA
HETATM   60  H   UNL     1     -19.682  -9.192   1.835  1.00  0.00     0.167 HD
ENDBRANCH  57  59
ENDBRANCH  56  57
ENDBRANCH  55  56
ENDBRANCH  53  55
ENDBRANCH  52  53
ENDBRANCH   3  52
BRANCH   5  61
HETATM   61  O   UNL     1     -21.412 -12.237  -4.706  1.00  0.00    -0.311 OA
BRANCH  61  62
HETATM   62  C   UNL     1     -20.740 -13.164  -5.520  1.00  0.00     0.157 C 
HETATM   63  C   UNL     1     -20.870 -14.487  -5.301  1.00  0.00     0.124 C 
HETATM   64  O   UNL     1     -20.269 -15.512  -5.971  1.00  0.00    -0.306 OA
HETATM   65  C   UNL     1     -19.599 -15.224  -7.110  1.00  0.00     0.096 A 
HETATM   66  C   UNL     1     -19.260 -16.339  -7.883  1.00  0.00     0.075 A 
HETATM   67  C   UNL     1     -19.292 -13.925  -7.488  1.00  0.00     0.084 A 
HETATM   68  C   UNL     1     -18.576 -16.152  -9.065  1.00  0.00     0.071 A 
HETATM   69  C   UNL     1     -18.172 -14.886  -9.435  1.00  0.00     0.074 A 
HETATM   70  C   UNL     1     -18.544 -13.790  -8.653  1.00  0.00     0.085 A 
HETATM   71  C   UNL     1     -19.825 -12.790  -6.658  1.00  0.00     0.223 C 
HETATM   72  O   UNL     1     -19.573 -11.614  -6.903  1.00  0.00    -0.284 OA
BRANCH  63  73
HETATM   73  C   UNL     1     -21.843 -15.019  -4.374  1.00  0.00     0.004 C 
HETATM   74  C   UNL     1     -21.361 -15.437  -3.126  1.00  0.00     0.053 C 
HETATM   75  C   UNL     1     -22.223 -16.073  -2.259  1.00  0.00     0.099 C 
HETATM   76  C   UNL     1     -23.557 -16.234  -2.626  1.00  0.00     0.098 C 
HETATM   77  C   UNL     1     -24.062 -15.697  -3.809  1.00  0.00     0.040 C 
HETATM   78  C   UNL     1     -23.196 -15.084  -4.700  1.00  0.00     0.017 C 
BRANCH  75  79
HETATM   79  O   UNL     1     -21.754 -16.595  -1.091  1.00  0.00    -0.358 OA
HETATM   80  H   UNL     1     -21.762 -17.563  -1.155  1.00  0.00     0.217 HD
ENDBRANCH  75  79
BRANCH  76  81
HETATM   81  O   UNL     1     -24.381 -17.020  -1.878  1.00  0.00    -0.358 OA
HETATM   82  H   UNL     1     -23.768 -17.632  -1.432  1.00  0.00     0.217 HD
ENDBRANCH  76  81
ENDBRANCH  63  73
BRANCH  68  83
HETATM   83  O   UNL     1     -18.409 -17.165  -9.960  1.00  0.00    -0.361 OA
HETATM   84  H   UNL     1     -19.245 -17.664 -10.029  1.00  0.00     0.217 HD
ENDBRANCH  68  83
BRANCH  70  85
HETATM   85  O   UNL     1     -18.136 -12.587  -9.107  1.00  0.00    -0.360 OA
HETATM   86  H   UNL     1     -17.408 -12.285  -8.516  1.00  0.00     0.217 HD
ENDBRANCH  70  85
ENDBRANCH  61  62
ENDBRANCH   5  61
BRANCH   4  87
HETATM   87  O   UNL     1     -20.027  -9.603  -4.621  1.00  0.00    -0.308 OA
BRANCH  87  88
HETATM   88  C   UNL     1     -20.655  -8.649  -5.358  1.00  0.00     0.259 C 
HETATM   89  O   UNL     1     -21.629  -8.857  -6.075  1.00  0.00    -0.265 OA
BRANCH  88  90
HETATM   90  C   UNL     1     -20.057  -7.263  -5.257  1.00  0.00     0.121 C 
BRANCH  90  91
HETATM   91  C   UNL     1     -20.114  -6.385  -6.493  1.00  0.00     0.119 C 
BRANCH  91  92
HETATM   92  C   UNL     1     -20.480  -4.965  -6.151  1.00  0.00     0.139 C 
HETATM   93  O   UNL     1     -20.234  -4.440  -5.074  1.00  0.00    -0.650 OA
BRANCH  92  94
HETATM   94  O   UNL     1     -21.099  -4.308  -7.154  1.00  0.00    -0.776 OA
HETATM   95  H   UNL     1     -20.510  -4.050  -7.891  1.00  0.00     0.167 HD
ENDBRANCH  92  94
ENDBRANCH  91  92
ENDBRANCH  90  91
ENDBRANCH  88  90
ENDBRANCH  87  88
ENDBRANCH   4  87
TORSDOF 46
ENDMDL
MODEL 5
REMARK VINA RESULT:      -5.0      1.953      9.331
REMARK WARNING: 32 MAX_TORS EXCEEDED!!!
REMARK  46 active torsions:
REMARK  status: ('A' for Active; 'I' for Inactive)
REMARK    1  A    between atoms: C_3  and  O_78 
REMARK    2  A    between atoms: C_4  and  O_70 
REMARK    3  A    between atoms: C_5  and  O_62 
REMARK    4  A    between atoms: C_6  and  O_8 
REMARK    5  A    between atoms: O_8  and  C_9 
REMARK    6  A    between atoms: C_9  and  C_10 
REMARK    7  A    between atoms: C_11  and  O_54 
REMARK    8  A    between atoms: C_12  and  O_46 
REMARK    9  A    between atoms: C_13  and  O_38 
REMARK   10  A    between atoms: C_14  and  O_16 
REMARK   11  A    between atoms: O_16  and  C_17 
REMARK   12  A    between atoms: C_18  and  C_30 
REMARK   13  A    between atoms: C_22  and  O_29 
REMARK   14  A    between atoms: C_24  and  O_28 
REMARK   15  A    between atoms: C_32  and  O_37 
REMARK   16  A    between atoms: C_33  and  O_36 
REMARK   17  A    between atoms: O_38  and  C_39 
REMARK   18  A    between atoms: C_39  and  C_41 
REMARK   19  A    between atoms: C_41  and  C_42 
REMARK   20  A    between atoms: C_42  and  C_43 
REMARK   21  A    between atoms: C_43  and  O_45 
REMARK   22  A    between atoms: O_46  and  C_47 
REMARK   23  A    between atoms: C_47  and  C_49 
REMARK   24  A    between atoms: C_49  and  C_50 
REMARK   25  A    between atoms: C_50  and  C_51 
REMARK   26  A    between atoms: C_51  and  O_53 
REMARK   27  A    between atoms: O_54  and  C_55 
REMARK   28  A    between atoms: C_55  and  C_57 
REMARK   29  A    between atoms: C_57  and  C_58 
REMARK   30  A    between atoms: C_58  and  C_59 
REMARK   31  A    between atoms: C_59  and  O_61 
REMARK   32  A    between atoms: O_62  and  C_63 
REMARK   33  A    between atoms: C_63  and  C_65 
REMARK   34  A    between atoms: C_65  and  C_66 
REMARK   35  A    between atoms: C_66  and  C_67 
REMARK   36  A    between atoms: C_67  and  O_69 
REMARK   37  A    between atoms: O_70  and  C_71 
REMARK   38  A    between atoms: C_71  and  C_73 
REMARK   39  A    between atoms: C_73  and  C_74 
REMARK   40  A    between atoms: C_74  and  C_75 
REMARK   41  A    between atoms: C_75  and  O_77 
REMARK   42  A    between atoms: O_78  and  C_79 
REMARK   43  A    between atoms: C_79  and  C_81 
REMARK   44  A    between atoms: C_81  and  C_82 
REMARK   45  A    between atoms: C_82  and  C_83 
REMARK   46  A    between atoms: C_83  and  O_85 
ROOT
HETATM    1  C   UNL     1     -17.694 -13.205  -3.903  1.00  0.00     0.180 C 
HETATM    2  C   UNL     1     -16.750 -13.704  -5.030  1.00  0.00     0.195 C 
HETATM    3  C   UNL     1     -16.771 -15.228  -5.117  1.00  0.00     0.198 C 
HETATM    4  C   UNL     1     -16.564 -15.873  -3.726  1.00  0.00     0.219 C 
HETATM    5  C   UNL     1     -17.725 -15.393  -2.839  1.00  0.00     0.299 C 
HETATM    6  O   UNL     1     -17.591 -13.965  -2.670  1.00  0.00    -0.348 OA
ENDROOT
BRANCH   1   7
HETATM    7  C   UNL     1     -19.174 -13.123  -4.363  1.00  0.00     0.205 C 
BRANCH   7   8
HETATM    8  O   UNL     1     -20.041 -12.782  -3.268  1.00  0.00    -0.356 OA
BRANCH   8   9
HETATM    9  C   UNL     1     -19.942 -11.410  -2.884  1.00  0.00     0.292 C 
HETATM   10  C   UNL     1     -21.352 -10.770  -2.580  1.00  0.00     0.219 C 
HETATM   11  C   UNL     1     -21.061  -9.280  -2.262  1.00  0.00     0.198 C 
HETATM   12  C   UNL     1     -20.304  -8.585  -3.395  1.00  0.00     0.192 C 
HETATM   13  C   UNL     1     -18.976  -9.322  -3.633  1.00  0.00     0.152 C 
HETATM   14  C   UNL     1     -17.965  -9.098  -2.503  1.00  0.00     0.042 C 
HETATM   15  O   UNL     1     -19.205 -10.713  -3.883  1.00  0.00    -0.351 OA
BRANCH  10  16
HETATM   16  O   UNL     1     -22.348 -10.953  -3.667  1.00  0.00    -0.308 OA
BRANCH  16  17
HETATM   17  C   UNL     1     -22.574 -12.191  -4.211  1.00  0.00     0.259 C 
HETATM   18  O   UNL     1     -22.463 -12.489  -5.401  1.00  0.00    -0.265 OA
BRANCH  17  19
HETATM   19  C   UNL     1     -22.942 -13.303  -3.259  1.00  0.00     0.121 C 
BRANCH  19  20
HETATM   20  C   UNL     1     -23.481 -14.504  -4.057  1.00  0.00     0.119 C 
BRANCH  20  21
HETATM   21  C   UNL     1     -22.705 -15.773  -4.340  1.00  0.00     0.139 C 
HETATM   22  O   UNL     1     -23.092 -16.922  -4.264  1.00  0.00    -0.650 OA
BRANCH  21  23
HETATM   23  O   UNL     1     -21.452 -15.488  -4.792  1.00  0.00    -0.776 OA
HETATM   24  H   UNL     1     -20.739 -16.000  -4.363  1.00  0.00     0.167 HD
ENDBRANCH  21  23
ENDBRANCH  20  21
ENDBRANCH  19  20
ENDBRANCH  17  19
ENDBRANCH  16  17
ENDBRANCH  10  16
BRANCH  11  25
HETATM   25  O   UNL     1     -22.323  -8.629  -1.972  1.00  0.00    -0.310 OA
BRANCH  25  26
HETATM   26  C   UNL     1     -22.316  -7.545  -1.178  1.00  0.00     0.259 C 
HETATM   27  O   UNL     1     -21.979  -6.406  -1.530  1.00  0.00    -0.265 OA
BRANCH  26  28
HETATM   28  C   UNL     1     -22.735  -7.945   0.212  1.00  0.00     0.121 C 
BRANCH  28  29
HETATM   29  C   UNL     1     -21.527  -8.084   1.130  1.00  0.00     0.119 C 
BRANCH  29  30
HETATM   30  C   UNL     1     -21.100  -9.515   1.382  1.00  0.00     0.139 C 
HETATM   31  O   UNL     1     -20.132  -9.856   2.042  1.00  0.00    -0.650 OA
BRANCH  30  32
HETATM   32  O   UNL     1     -21.838 -10.420   0.713  1.00  0.00    -0.776 OA
HETATM   33  H   UNL     1     -21.828 -11.311   1.123  1.00  0.00     0.167 HD
ENDBRANCH  30  32
ENDBRANCH  29  30
ENDBRANCH  28  29
ENDBRANCH  26  28
ENDBRANCH  25  26
ENDBRANCH  11  25
BRANCH  12  34
HETATM   34  O   UNL     1     -21.153  -8.622  -4.570  1.00  0.00    -0.311 OA
BRANCH  34  35
HETATM   35  C   UNL     1     -21.558  -7.432  -5.055  1.00  0.00     0.259 C 
HETATM   36  O   UNL     1     -22.670  -6.946  -4.885  1.00  0.00    -0.265 OA
BRANCH  35  37
HETATM   37  C   UNL     1     -20.441  -6.743  -5.797  1.00  0.00     0.121 C 
BRANCH  37  38
HETATM   38  C   UNL     1     -20.520  -5.228  -5.689  1.00  0.00     0.119 C 
BRANCH  38  39
HETATM   39  C   UNL     1     -21.046  -4.593  -6.948  1.00  0.00     0.139 C 
HETATM   40  O   UNL     1     -21.208  -3.386  -7.069  1.00  0.00    -0.650 OA
BRANCH  39  41
HETATM   41  O   UNL     1     -21.332  -5.448  -7.951  1.00  0.00    -0.776 OA
HETATM   42  H   UNL     1     -20.590  -5.984  -8.291  1.00  0.00     0.167 HD
ENDBRANCH  39  41
ENDBRANCH  38  39
ENDBRANCH  37  38
ENDBRANCH  35  37
ENDBRANCH  34  35
ENDBRANCH  12  34
ENDBRANCH   8   9
ENDBRANCH   7   8
ENDBRANCH   1   7
BRANCH   2  43
HETATM   43  O   UNL     1     -15.334 -13.421  -4.896  1.00  0.00    -0.311 OA
BRANCH  43  44
HETATM   44  C   UNL     1     -14.692 -12.523  -5.657  1.00  0.00     0.259 C 
HETATM   45  O   UNL     1     -13.505 -12.252  -5.606  1.00  0.00    -0.265 OA
BRANCH  44  46
HETATM   46  C   UNL     1     -15.716 -11.845  -6.529  1.00  0.00     0.121 C 
BRANCH  46  47
HETATM   47  C   UNL     1     -16.088 -10.488  -5.958  1.00  0.00     0.119 C 
BRANCH  47  48
HETATM   48  C   UNL     1     -17.405 -10.021  -6.530  1.00  0.00     0.139 C 
HETATM   49  O   UNL     1     -17.712  -8.851  -6.683  1.00  0.00    -0.650 OA
BRANCH  48  50
HETATM   50  O   UNL     1     -18.223 -11.039  -6.875  1.00  0.00    -0.776 OA
HETATM   51  H   UNL     1     -18.061 -11.867  -6.385  1.00  0.00     0.167 HD
ENDBRANCH  48  50
ENDBRANCH  47  48
ENDBRANCH  46  47
ENDBRANCH  44  46
ENDBRANCH  43  44
ENDBRANCH   2  43
BRANCH   3  52
HETATM   52  O   UNL     1     -15.713 -15.740  -5.960  1.00  0.00    -0.310 OA
BRANCH  52  53
HETATM   53  C   UNL     1     -16.027 -16.530  -7.014  1.00  0.00     0.259 C 
HETATM   54  O   UNL     1     -15.225 -17.183  -7.659  1.00  0.00    -0.265 OA
BRANCH  53  55
HETATM   55  C   UNL     1     -17.494 -16.271  -7.361  1.00  0.00     0.121 C 
BRANCH  55  56
HETATM   56  C   UNL     1     -17.536 -15.430  -8.642  1.00  0.00     0.119 C 
BRANCH  56  57
HETATM   57  C   UNL     1     -18.585 -14.451  -8.301  1.00  0.00     0.139 C 
HETATM   58  O   UNL     1     -18.509 -13.290  -8.686  1.00  0.00    -0.650 OA
BRANCH  57  59
HETATM   59  O   UNL     1     -19.500 -14.868  -7.409  1.00  0.00    -0.776 OA
HETATM   60  H   UNL     1     -19.700 -14.338  -6.605  1.00  0.00     0.167 HD
ENDBRANCH  57  59
ENDBRANCH  56  57
ENDBRANCH  55  56
ENDBRANCH  53  55
ENDBRANCH  52  53
ENDBRANCH   3  52
BRANCH   5  61
HETATM   61  O   UNL     1     -17.738 -16.084  -1.578  1.00  0.00    -0.311 OA
BRANCH  61  62
HETATM   62  C   UNL     1     -18.815 -15.860  -0.703  1.00  0.00     0.157 C 
HETATM   63  C   UNL     1     -18.608 -15.304   0.507  1.00  0.00     0.124 C 
HETATM   64  O   UNL     1     -19.528 -15.050   1.482  1.00  0.00    -0.306 OA
HETATM   65  C   UNL     1     -20.838 -15.186   1.174  1.00  0.00     0.096 A 
HETATM   66  C   UNL     1     -21.716 -14.639   2.116  1.00  0.00     0.075 A 
HETATM   67  C   UNL     1     -21.272 -15.799   0.008  1.00  0.00     0.084 A 
HETATM   68  C   UNL     1     -23.074 -14.724   1.895  1.00  0.00     0.071 A 
HETATM   69  C   UNL     1     -23.551 -15.405   0.794  1.00  0.00     0.074 A 
HETATM   70  C   UNL     1     -22.650 -15.920  -0.140  1.00  0.00     0.085 A 
HETATM   71  C   UNL     1     -20.245 -16.226  -1.004  1.00  0.00     0.223 C 
HETATM   72  O   UNL     1     -20.541 -16.805  -2.045  1.00  0.00    -0.284 OA
BRANCH  63  73
HETATM   73  C   UNL     1     -17.335 -14.733   0.881  1.00  0.00     0.004 C 
HETATM   74  C   UNL     1     -17.149 -13.372   0.608  1.00  0.00     0.053 C 
HETATM   75  C   UNL     1     -15.908 -12.813   0.821  1.00  0.00     0.099 C 
HETATM   76  C   UNL     1     -14.891 -13.603   1.352  1.00  0.00     0.098 C 
HETATM   77  C   UNL     1     -15.117 -14.921   1.749  1.00  0.00     0.040 C 
HETATM   78  C   UNL     1     -16.353 -15.498   1.508  1.00  0.00     0.017 C 
BRANCH  75  79
HETATM   79  O   UNL     1     -15.667 -11.523   0.454  1.00  0.00    -0.358 OA
HETATM   80  H   UNL     1     -15.622 -10.974   1.253  1.00  0.00     0.217 HD
ENDBRANCH  75  79
BRANCH  76  81
HETATM   81  O   UNL     1     -13.613 -13.133   1.397  1.00  0.00    -0.358 OA
HETATM   82  H   UNL     1     -13.704 -12.269   1.837  1.00  0.00     0.217 HD
ENDBRANCH  76  81
ENDBRANCH  63  73
BRANCH  68  83
HETATM   83  O   UNL     1     -23.966 -14.031   2.656  1.00  0.00    -0.361 OA
HETATM   84  H   UNL     1     -24.586 -14.664   3.066  1.00  0.00     0.217 HD
ENDBRANCH  68  83
BRANCH  70  85
HETATM   85  O   UNL     1     -23.204 -16.539  -1.202  1.00  0.00    -0.360 OA
HETATM   86  H   UNL     1     -23.942 -17.096  -0.862  1.00  0.00     0.217 HD
ENDBRANCH  70  85
ENDBRANCH  61  62
ENDBRANCH   5  61
BRANCH   4  87
HETATM   87  O   UNL     1     -15.272 -15.496  -3.138  1.00  0.00    -0.308 OA
BRANCH  87  88
HETATM   88  C   UNL     1     -14.435 -16.515  -2.806  1.00  0.00     0.259 C 
HETATM   89  O   UNL     1     -13.801 -17.182  -3.619  1.00  0.00    -0.265 OA
BRANCH  88  90
HETATM   90  C   UNL     1     -14.334 -16.807  -1.326  1.00  0.00     0.121 C 
BRANCH  90  91
HETATM   91  C   UNL     1     -12.947 -17.005  -0.744  1.00  0.00     0.119 C 
BRANCH  91  92
HETATM   92  C   UNL     1     -12.331 -15.701  -0.316  1.00  0.00     0.139 C 
HETATM   93  O   UNL     1     -12.325 -14.692  -1.008  1.00  0.00    -0.650 OA
BRANCH  92  94
HETATM   94  O   UNL     1     -11.793 -15.735   0.921  1.00  0.00    -0.776 OA
HETATM   95  H   UNL     1     -10.849 -15.484   0.958  1.00  0.00     0.167 HD
ENDBRANCH  92  94
ENDBRANCH  91  92
ENDBRANCH  90  91
ENDBRANCH  88  90
ENDBRANCH  87  88
ENDBRANCH   4  87
TORSDOF 46
ENDMDL
MODEL 6
REMARK VINA RESULT:      -4.9      2.039      9.474
REMARK WARNING: 32 MAX_TORS EXCEEDED!!!
REMARK  46 active torsions:
REMARK  status: ('A' for Active; 'I' for Inactive)
REMARK    1  A    between atoms: C_3  and  O_78 
REMARK    2  A    between atoms: C_4  and  O_70 
REMARK    3  A    between atoms: C_5  and  O_62 
REMARK    4  A    between atoms: C_6  and  O_8 
REMARK    5  A    between atoms: O_8  and  C_9 
REMARK    6  A    between atoms: C_9  and  C_10 
REMARK    7  A    between atoms: C_11  and  O_54 
REMARK    8  A    between atoms: C_12  and  O_46 
REMARK    9  A    between atoms: C_13  and  O_38 
REMARK   10  A    between atoms: C_14  and  O_16 
REMARK   11  A    between atoms: O_16  and  C_17 
REMARK   12  A    between atoms: C_18  and  C_30 
REMARK   13  A    between atoms: C_22  and  O_29 
REMARK   14  A    between atoms: C_24  and  O_28 
REMARK   15  A    between atoms: C_32  and  O_37 
REMARK   16  A    between atoms: C_33  and  O_36 
REMARK   17  A    between atoms: O_38  and  C_39 
REMARK   18  A    between atoms: C_39  and  C_41 
REMARK   19  A    between atoms: C_41  and  C_42 
REMARK   20  A    between atoms: C_42  and  C_43 
REMARK   21  A    between atoms: C_43  and  O_45 
REMARK   22  A    between atoms: O_46  and  C_47 
REMARK   23  A    between atoms: C_47  and  C_49 
REMARK   24  A    between atoms: C_49  and  C_50 
REMARK   25  A    between atoms: C_50  and  C_51 
REMARK   26  A    between atoms: C_51  and  O_53 
REMARK   27  A    between atoms: O_54  and  C_55 
REMARK   28  A    between atoms: C_55  and  C_57 
REMARK   29  A    between atoms: C_57  and  C_58 
REMARK   30  A    between atoms: C_58  and  C_59 
REMARK   31  A    between atoms: C_59  and  O_61 
REMARK   32  A    between atoms: O_62  and  C_63 
REMARK   33  A    between atoms: C_63  and  C_65 
REMARK   34  A    between atoms: C_65  and  C_66 
REMARK   35  A    between atoms: C_66  and  C_67 
REMARK   36  A    between atoms: C_67  and  O_69 
REMARK   37  A    between atoms: O_70  and  C_71 
REMARK   38  A    between atoms: C_71  and  C_73 
REMARK   39  A    between atoms: C_73  and  C_74 
REMARK   40  A    between atoms: C_74  and  C_75 
REMARK   41  A    between atoms: C_75  and  O_77 
REMARK   42  A    between atoms: O_78  and  C_79 
REMARK   43  A    between atoms: C_79  and  C_81 
REMARK   44  A    between atoms: C_81  and  C_82 
REMARK   45  A    between atoms: C_82  and  C_83 
REMARK   46  A    between atoms: C_83  and  O_85 
ROOT
HETATM    1  C   UNL     1     -17.779 -13.328  -3.631  1.00  0.00     0.180 C 
HETATM    2  C   UNL     1     -16.660 -13.763  -4.615  1.00  0.00     0.195 C 
HETATM    3  C   UNL     1     -16.552 -15.286  -4.671  1.00  0.00     0.198 C 
HETATM    4  C   UNL     1     -16.482 -15.897  -3.252  1.00  0.00     0.219 C 
HETATM    5  C   UNL     1     -17.783 -15.500  -2.535  1.00  0.00     0.299 C 
HETATM    6  O   UNL     1     -17.782 -14.065  -2.380  1.00  0.00    -0.348 OA
ENDROOT
BRANCH   1   7
HETATM    7  C   UNL     1     -19.188 -13.368  -4.283  1.00  0.00     0.205 C 
BRANCH   7   8
HETATM    8  O   UNL     1     -20.166 -12.727  -3.447  1.00  0.00    -0.356 OA
BRANCH   8   9
HETATM    9  C   UNL     1     -19.834 -11.373  -3.137  1.00  0.00     0.292 C 
HETATM   10  C   UNL     1     -21.115 -10.468  -2.962  1.00  0.00     0.219 C 
HETATM   11  C   UNL     1     -20.570  -9.036  -2.714  1.00  0.00     0.198 C 
HETATM   12  C   UNL     1     -19.639  -8.571  -3.835  1.00  0.00     0.192 C 
HETATM   13  C   UNL     1     -18.459  -9.552  -3.943  1.00  0.00     0.152 C 
HETATM   14  C   UNL     1     -17.485  -9.438  -2.766  1.00  0.00     0.042 C 
HETATM   15  O   UNL     1     -18.929 -10.892  -4.126  1.00  0.00    -0.351 OA
BRANCH  10  16
HETATM   16  O   UNL     1     -22.069 -10.540  -4.099  1.00  0.00    -0.308 OA
BRANCH  16  17
HETATM   17  C   UNL     1     -22.093 -11.634  -4.926  1.00  0.00     0.259 C 
HETATM   18  O   UNL     1     -21.525 -11.730  -6.014  1.00  0.00    -0.265 OA
BRANCH  17  19
HETATM   19  C   UNL     1     -22.842 -12.850  -4.435  1.00  0.00     0.121 C 
BRANCH  19  20
HETATM   20  C   UNL     1     -22.801 -13.948  -5.514  1.00  0.00     0.119 C 
BRANCH  20  21
HETATM   21  C   UNL     1     -23.808 -15.072  -5.643  1.00  0.00     0.139 C 
HETATM   22  O   UNL     1     -24.196 -15.617  -6.657  1.00  0.00    -0.650 OA
BRANCH  21  23
HETATM   23  O   UNL     1     -24.221 -15.500  -4.418  1.00  0.00    -0.776 OA
HETATM   24  H   UNL     1     -24.476 -16.443  -4.383  1.00  0.00     0.167 HD
ENDBRANCH  21  23
ENDBRANCH  20  21
ENDBRANCH  19  20
ENDBRANCH  17  19
ENDBRANCH  16  17
ENDBRANCH  10  16
BRANCH  11  25
HETATM   25  O   UNL     1     -21.702  -8.149  -2.545  1.00  0.00    -0.310 OA
BRANCH  25  26
HETATM   26  C   UNL     1     -21.741  -7.361  -1.456  1.00  0.00     0.259 C 
HETATM   27  O   UNL     1     -22.370  -6.297  -1.369  1.00  0.00    -0.265 OA
BRANCH  26  28
HETATM   28  C   UNL     1     -20.862  -7.950  -0.385  1.00  0.00     0.121 C 
BRANCH  28  29
HETATM   29  C   UNL     1     -21.694  -8.487   0.773  1.00  0.00     0.119 C 
BRANCH  29  30
HETATM   30  C   UNL     1     -23.129  -8.806   0.411  1.00  0.00     0.139 C 
HETATM   31  O   UNL     1     -23.517  -9.859  -0.070  1.00  0.00    -0.650 OA
BRANCH  30  32
HETATM   32  O   UNL     1     -23.967  -7.765   0.571  1.00  0.00    -0.776 OA
HETATM   33  H   UNL     1     -23.656  -7.112   1.232  1.00  0.00     0.167 HD
ENDBRANCH  30  32
ENDBRANCH  29  30
ENDBRANCH  28  29
ENDBRANCH  26  28
ENDBRANCH  25  26
ENDBRANCH  11  25
BRANCH  12  34
HETATM   34  O   UNL     1     -20.416  -8.534  -5.058  1.00  0.00    -0.311 OA
BRANCH  34  35
HETATM   35  C   UNL     1     -20.227  -7.466  -5.857  1.00  0.00     0.259 C 
HETATM   36  O   UNL     1     -19.338  -7.364  -6.695  1.00  0.00    -0.265 OA
BRANCH  35  37
HETATM   37  C   UNL     1     -21.287  -6.421  -5.622  1.00  0.00     0.121 C 
BRANCH  37  38
HETATM   38  C   UNL     1     -20.700  -5.029  -5.442  1.00  0.00     0.119 C 
BRANCH  38  39
HETATM   39  C   UNL     1     -20.644  -4.263  -6.736  1.00  0.00     0.139 C 
HETATM   40  O   UNL     1     -21.563  -3.561  -7.136  1.00  0.00    -0.650 OA
BRANCH  39  41
HETATM   41  O   UNL     1     -19.500  -4.397  -7.439  1.00  0.00    -0.776 OA
HETATM   42  H   UNL     1     -18.671  -4.393  -6.924  1.00  0.00     0.167 HD
ENDBRANCH  39  41
ENDBRANCH  38  39
ENDBRANCH  37  38
ENDBRANCH  35  37
ENDBRANCH  34  35
ENDBRANCH  12  34
ENDBRANCH   8   9
ENDBRANCH   7   8
ENDBRANCH   1   7
BRANCH   2  43
HETATM   43  O   UNL     1     -15.300 -13.368  -4.302  1.00  0.00    -0.311 OA
BRANCH  43  44
HETATM   44  C   UNL     1     -14.954 -12.109  -4.001  1.00  0.00     0.259 C 
HETATM   45  O   UNL     1     -14.967 -11.156  -4.760  1.00  0.00    -0.265 OA
BRANCH  44  46
HETATM   46  C   UNL     1     -14.463 -12.096  -2.576  1.00  0.00     0.121 C 
BRANCH  46  47
HETATM   47  C   UNL     1     -15.420 -11.321  -1.689  1.00  0.00     0.119 C 
BRANCH  47  48
HETATM   48  C   UNL     1     -15.677 -12.077  -0.406  1.00  0.00     0.139 C 
HETATM   49  O   UNL     1     -15.880 -11.550   0.673  1.00  0.00    -0.650 OA
BRANCH  48  50
HETATM   50  O   UNL     1     -15.673 -13.418  -0.573  1.00  0.00    -0.776 OA
HETATM   51  H   UNL     1     -15.547 -13.924   0.252  1.00  0.00     0.167 HD
ENDBRANCH  48  50
ENDBRANCH  47  48
ENDBRANCH  46  47
ENDBRANCH  44  46
ENDBRANCH  43  44
ENDBRANCH   2  43
BRANCH   3  52
HETATM   52  O   UNL     1     -15.356 -15.722  -5.358  1.00  0.00    -0.310 OA
BRANCH  52  53
HETATM   53  C   UNL     1     -15.469 -16.402  -6.523  1.00  0.00     0.259 C 
HETATM   54  O   UNL     1     -14.539 -16.684  -7.259  1.00  0.00    -0.265 OA
BRANCH  53  55
HETATM   55  C   UNL     1     -16.960 -16.540  -6.831  1.00  0.00     0.121 C 
BRANCH  55  56
HETATM   56  C   UNL     1     -17.194 -16.058  -8.267  1.00  0.00     0.119 C 
BRANCH  56  57
HETATM   57  C   UNL     1     -17.937 -14.807  -8.027  1.00  0.00     0.139 C 
HETATM   58  O   UNL     1     -17.379 -13.719  -8.116  1.00  0.00    -0.650 OA
BRANCH  57  59
HETATM   59  O   UNL     1     -19.179 -14.954  -7.534  1.00  0.00    -0.776 OA
HETATM   60  H   UNL     1     -19.332 -15.412  -6.678  1.00  0.00     0.167 HD
ENDBRANCH  57  59
ENDBRANCH  56  57
ENDBRANCH  55  56
ENDBRANCH  53  55
ENDBRANCH  52  53
ENDBRANCH   3  52
BRANCH   5  61
HETATM   61  O   UNL     1     -17.909 -16.177  -1.272  1.00  0.00    -0.311 OA
BRANCH  61  62
HETATM   62  C   UNL     1     -19.068 -15.957  -0.508  1.00  0.00     0.157 C 
HETATM   63  C   UNL     1     -19.010 -15.960   0.838  1.00  0.00     0.124 C 
HETATM   64  O   UNL     1     -20.035 -15.797   1.723  1.00  0.00    -0.306 OA
HETATM   65  C   UNL     1     -21.236 -15.403   1.243  1.00  0.00     0.096 A 
HETATM   66  C   UNL     1     -22.145 -14.983   2.220  1.00  0.00     0.075 A 
HETATM   67  C   UNL     1     -21.534 -15.396  -0.112  1.00  0.00     0.084 A 
HETATM   68  C   UNL     1     -23.398 -14.561   1.833  1.00  0.00     0.071 A 
HETATM   69  C   UNL     1     -23.767 -14.624   0.505  1.00  0.00     0.074 A 
HETATM   70  C   UNL     1     -22.831 -15.025  -0.450  1.00  0.00     0.085 A 
HETATM   71  C   UNL     1     -20.440 -15.732  -1.089  1.00  0.00     0.223 C 
HETATM   72  O   UNL     1     -20.626 -15.782  -2.302  1.00  0.00    -0.284 OA
BRANCH  63  73
HETATM   73  C   UNL     1     -17.753 -15.982   1.551  1.00  0.00     0.004 C 
HETATM   74  C   UNL     1     -17.211 -14.742   1.913  1.00  0.00     0.053 C 
HETATM   75  C   UNL     1     -15.953 -14.703   2.474  1.00  0.00     0.099 C 
HETATM   76  C   UNL     1     -15.280 -15.898   2.712  1.00  0.00     0.098 C 
HETATM   77  C   UNL     1     -15.878 -17.136   2.476  1.00  0.00     0.040 C 
HETATM   78  C   UNL     1     -17.129 -17.183   1.883  1.00  0.00     0.017 C 
BRANCH  75  79
HETATM   79  O   UNL     1     -15.355 -13.505   2.727  1.00  0.00    -0.358 OA
HETATM   80  H   UNL     1     -15.573 -13.231   3.633  1.00  0.00     0.217 HD
ENDBRANCH  75  79
BRANCH  76  81
HETATM   81  O   UNL     1     -13.971 -15.882   3.087  1.00  0.00    -0.358 OA
HETATM   82  H   UNL     1     -13.669 -16.790   2.899  1.00  0.00     0.217 HD
ENDBRANCH  76  81
ENDBRANCH  63  73
BRANCH  68  83
HETATM   83  O   UNL     1     -24.243 -13.943   2.704  1.00  0.00    -0.361 OA
HETATM   84  H   UNL     1     -24.105 -12.978   2.644  1.00  0.00     0.217 HD
ENDBRANCH  68  83
BRANCH  70  85
HETATM   85  O   UNL     1     -23.266 -15.024  -1.727  1.00  0.00    -0.360 OA
HETATM   86  H   UNL     1     -22.542 -15.395  -2.282  1.00  0.00     0.217 HD
ENDBRANCH  70  85
ENDBRANCH  61  62
ENDBRANCH   5  61
BRANCH   4  87
HETATM   87  O   UNL     1     -15.311 -15.414  -2.508  1.00  0.00    -0.308 OA
BRANCH  87  88
HETATM   88  C   UNL     1     -14.378 -16.343  -2.171  1.00  0.00     0.259 C 
HETATM   89  O   UNL     1     -13.717 -16.985  -2.983  1.00  0.00    -0.265 OA
BRANCH  88  90
HETATM   90  C   UNL     1     -14.202 -16.568  -0.686  1.00  0.00     0.121 C 
BRANCH  90  91
HETATM   91  C   UNL     1     -12.810 -16.386  -0.111  1.00  0.00     0.119 C 
BRANCH  91  92
HETATM   92  C   UNL     1     -12.471 -14.932   0.079  1.00  0.00     0.139 C 
HETATM   93  O   UNL     1     -13.187 -14.140   0.676  1.00  0.00    -0.650 OA
BRANCH  92  94
HETATM   94  O   UNL     1     -11.286 -14.576  -0.459  1.00  0.00    -0.776 OA
HETATM   95  H   UNL     1     -11.339 -14.277  -1.389  1.00  0.00     0.167 HD
ENDBRANCH  92  94
ENDBRANCH  91  92
ENDBRANCH  90  91
ENDBRANCH  88  90
ENDBRANCH  87  88
ENDBRANCH   4  87
TORSDOF 46
ENDMDL
MODEL 7
REMARK VINA RESULT:      -4.4      2.154      4.654
REMARK WARNING: 32 MAX_TORS EXCEEDED!!!
REMARK  46 active torsions:
REMARK  status: ('A' for Active; 'I' for Inactive)
REMARK    1  A    between atoms: C_3  and  O_78 
REMARK    2  A    between atoms: C_4  and  O_70 
REMARK    3  A    between atoms: C_5  and  O_62 
REMARK    4  A    between atoms: C_6  and  O_8 
REMARK    5  A    between atoms: O_8  and  C_9 
REMARK    6  A    between atoms: C_9  and  C_10 
REMARK    7  A    between atoms: C_11  and  O_54 
REMARK    8  A    between atoms: C_12  and  O_46 
REMARK    9  A    between atoms: C_13  and  O_38 
REMARK   10  A    between atoms: C_14  and  O_16 
REMARK   11  A    between atoms: O_16  and  C_17 
REMARK   12  A    between atoms: C_18  and  C_30 
REMARK   13  A    between atoms: C_22  and  O_29 
REMARK   14  A    between atoms: C_24  and  O_28 
REMARK   15  A    between atoms: C_32  and  O_37 
REMARK   16  A    between atoms: C_33  and  O_36 
REMARK   17  A    between atoms: O_38  and  C_39 
REMARK   18  A    between atoms: C_39  and  C_41 
REMARK   19  A    between atoms: C_41  and  C_42 
REMARK   20  A    between atoms: C_42  and  C_43 
REMARK   21  A    between atoms: C_43  and  O_45 
REMARK   22  A    between atoms: O_46  and  C_47 
REMARK   23  A    between atoms: C_47  and  C_49 
REMARK   24  A    between atoms: C_49  and  C_50 
REMARK   25  A    between atoms: C_50  and  C_51 
REMARK   26  A    between atoms: C_51  and  O_53 
REMARK   27  A    between atoms: O_54  and  C_55 
REMARK   28  A    between atoms: C_55  and  C_57 
REMARK   29  A    between atoms: C_57  and  C_58 
REMARK   30  A    between atoms: C_58  and  C_59 
REMARK   31  A    between atoms: C_59  and  O_61 
REMARK   32  A    between atoms: O_62  and  C_63 
REMARK   33  A    between atoms: C_63  and  C_65 
REMARK   34  A    between atoms: C_65  and  C_66 
REMARK   35  A    between atoms: C_66  and  C_67 
REMARK   36  A    between atoms: C_67  and  O_69 
REMARK   37  A    between atoms: O_70  and  C_71 
REMARK   38  A    between atoms: C_71  and  C_73 
REMARK   39  A    between atoms: C_73  and  C_74 
REMARK   40  A    between atoms: C_74  and  C_75 
REMARK   41  A    between atoms: C_75  and  O_77 
REMARK   42  A    between atoms: O_78  and  C_79 
REMARK   43  A    between atoms: C_79  and  C_81 
REMARK   44  A    between atoms: C_81  and  C_82 
REMARK   45  A    between atoms: C_82  and  C_83 
REMARK   46  A    between atoms: C_83  and  O_85 
ROOT
HETATM    1  C   UNL     1     -17.591 -13.135  -1.717  1.00  0.00     0.180 C 
HETATM    2  C   UNL     1     -18.788 -14.114  -1.590  1.00  0.00     0.195 C 
HETATM    3  C   UNL     1     -20.055 -13.497  -2.179  1.00  0.00     0.198 C 
HETATM    4  C   UNL     1     -20.289 -12.068  -1.635  1.00  0.00     0.219 C 
HETATM    5  C   UNL     1     -19.068 -11.231  -2.052  1.00  0.00     0.299 C 
HETATM    6  O   UNL     1     -17.913 -11.763  -1.368  1.00  0.00    -0.348 OA
ENDROOT
BRANCH   1   7
HETATM    7  C   UNL     1     -16.925 -13.192  -3.118  1.00  0.00     0.205 C 
BRANCH   7   8
HETATM    8  O   UNL     1     -17.903 -13.400  -4.151  1.00  0.00    -0.356 OA
BRANCH   8   9
HETATM    9  C   UNL     1     -17.641 -14.558  -4.943  1.00  0.00     0.292 C 
HETATM   10  C   UNL     1     -16.215 -14.512  -5.617  1.00  0.00     0.219 C 
HETATM   11  C   UNL     1     -16.137 -15.792  -6.491  1.00  0.00     0.198 C 
HETATM   12  C   UNL     1     -17.288 -15.876  -7.495  1.00  0.00     0.192 C 
HETATM   13  C   UNL     1     -18.621 -15.864  -6.729  1.00  0.00     0.152 C 
HETATM   14  C   UNL     1     -18.878 -17.170  -5.968  1.00  0.00     0.042 C 
HETATM   15  O   UNL     1     -18.705 -14.717  -5.875  1.00  0.00    -0.351 OA
BRANCH  10  16
HETATM   16  O   UNL     1     -15.945 -13.266  -6.381  1.00  0.00    -0.308 OA
BRANCH  16  17
HETATM   17  C   UNL     1     -14.985 -12.380  -5.962  1.00  0.00     0.259 C 
HETATM   18  O   UNL     1     -15.085 -11.153  -5.961  1.00  0.00    -0.265 OA
BRANCH  17  19
HETATM   19  C   UNL     1     -13.709 -12.964  -5.403  1.00  0.00     0.121 C 
BRANCH  19  20
HETATM   20  C   UNL     1     -13.557 -12.545  -3.929  1.00  0.00     0.119 C 
BRANCH  20  21
HETATM   21  C   UNL     1     -13.272 -13.495  -2.785  1.00  0.00     0.139 C 
HETATM   22  O   UNL     1     -13.907 -13.646  -1.760  1.00  0.00    -0.650 OA
BRANCH  21  23
HETATM   23  O   UNL     1     -12.191 -14.278  -3.059  1.00  0.00    -0.776 OA
HETATM   24  H   UNL     1     -11.691 -14.014  -3.857  1.00  0.00     0.167 HD
ENDBRANCH  21  23
ENDBRANCH  20  21
ENDBRANCH  19  20
ENDBRANCH  17  19
ENDBRANCH  16  17
ENDBRANCH  10  16
BRANCH  11  25
HETATM   25  O   UNL     1     -14.844 -15.811  -7.143  1.00  0.00    -0.310 OA
BRANCH  25  26
HETATM   26  C   UNL     1     -13.806 -16.362  -6.490  1.00  0.00     0.259 C 
HETATM   27  O   UNL     1     -12.616 -16.243  -6.815  1.00  0.00    -0.265 OA
BRANCH  26  28
HETATM   28  C   UNL     1     -14.322 -17.182  -5.338  1.00  0.00     0.121 C 
BRANCH  28  29
HETATM   29  C   UNL     1     -13.345 -17.163  -4.168  1.00  0.00     0.119 C 
BRANCH  29  30
HETATM   30  C   UNL     1     -14.008 -17.109  -2.808  1.00  0.00     0.139 C 
HETATM   31  O   UNL     1     -15.209 -17.012  -2.613  1.00  0.00    -0.650 OA
BRANCH  30  32
HETATM   32  O   UNL     1     -13.133 -17.072  -1.786  1.00  0.00    -0.776 OA
HETATM   33  H   UNL     1     -13.546 -16.839  -0.928  1.00  0.00     0.167 HD
ENDBRANCH  30  32
ENDBRANCH  29  30
ENDBRANCH  28  29
ENDBRANCH  26  28
ENDBRANCH  25  26
ENDBRANCH  11  25
BRANCH  12  34
HETATM   34  O   UNL     1     -17.173 -14.736  -8.383  1.00  0.00    -0.311 OA
BRANCH  34  35
HETATM   35  C   UNL     1     -18.107 -14.631  -9.348  1.00  0.00     0.259 C 
HETATM   36  O   UNL     1     -18.478 -15.549 -10.070  1.00  0.00    -0.265 OA
BRANCH  35  37
HETATM   37  C   UNL     1     -18.680 -13.238  -9.395  1.00  0.00     0.121 C 
BRANCH  37  38
HETATM   38  C   UNL     1     -19.661 -12.976  -8.262  1.00  0.00     0.119 C 
BRANCH  38  39
HETATM   39  C   UNL     1     -19.144 -11.955  -7.285  1.00  0.00     0.139 C 
HETATM   40  O   UNL     1     -18.213 -11.202  -7.537  1.00  0.00    -0.650 OA
BRANCH  39  41
HETATM   41  O   UNL     1     -19.779 -11.920  -6.095  1.00  0.00    -0.776 OA
HETATM   42  H   UNL     1     -19.667 -11.107  -5.567  1.00  0.00     0.167 HD
ENDBRANCH  39  41
ENDBRANCH  38  39
ENDBRANCH  37  38
ENDBRANCH  35  37
ENDBRANCH  34  35
ENDBRANCH  12  34
ENDBRANCH   8   9
ENDBRANCH   7   8
ENDBRANCH   1   7
BRANCH   2  43
HETATM   43  O   UNL     1     -19.216 -14.484  -0.255  1.00  0.00    -0.311 OA
BRANCH  43  44
HETATM   44  C   UNL     1     -18.824 -15.613   0.353  1.00  0.00     0.259 C 
HETATM   45  O   UNL     1     -19.090 -16.750   0.005  1.00  0.00    -0.265 OA
BRANCH  44  46
HETATM   46  C   UNL     1     -18.066 -15.224   1.597  1.00  0.00     0.121 C 
BRANCH  46  47
HETATM   47  C   UNL     1     -16.641 -14.830   1.252  1.00  0.00     0.119 C 
BRANCH  47  48
HETATM   48  C   UNL     1     -16.253 -13.568   1.985  1.00  0.00     0.139 C 
HETATM   49  O   UNL     1     -15.554 -13.540   2.982  1.00  0.00    -0.650 OA
BRANCH  48  50
HETATM   50  O   UNL     1     -16.753 -12.450   1.414  1.00  0.00    -0.776 OA
HETATM   51  H   UNL     1     -16.301 -11.627   1.680  1.00  0.00     0.167 HD
ENDBRANCH  48  50
ENDBRANCH  47  48
ENDBRANCH  46  47
ENDBRANCH  44  46
ENDBRANCH  43  44
ENDBRANCH   2  43
BRANCH   3  52
HETATM   52  O   UNL     1     -21.239 -14.256  -1.839  1.00  0.00    -0.310 OA
BRANCH  52  53
HETATM   53  C   UNL     1     -22.211 -14.421  -2.767  1.00  0.00     0.259 C 
HETATM   54  O   UNL     1     -23.300 -14.928  -2.554  1.00  0.00    -0.265 OA
BRANCH  53  55
HETATM   55  C   UNL     1     -21.612 -14.066  -4.128  1.00  0.00     0.121 C 
BRANCH  55  56
HETATM   56  C   UNL     1     -22.714 -13.425  -4.979  1.00  0.00     0.119 C 
BRANCH  56  57
HETATM   57  C   UNL     1     -22.970 -14.496  -5.960  1.00  0.00     0.139 C 
HETATM   58  O   UNL     1     -24.077 -15.014  -6.049  1.00  0.00    -0.650 OA
BRANCH  57  59
HETATM   59  O   UNL     1     -21.886 -14.973  -6.594  1.00  0.00    -0.776 OA
HETATM   60  H   UNL     1     -21.011 -14.536  -6.499  1.00  0.00     0.167 HD
ENDBRANCH  57  59
ENDBRANCH  56  57
ENDBRANCH  55  56
ENDBRANCH  53  55
ENDBRANCH  52  53
ENDBRANCH   3  52
BRANCH   5  61
HETATM   61  O   UNL     1     -19.269  -9.837  -1.763  1.00  0.00    -0.311 OA
BRANCH  61  62
HETATM   62  C   UNL     1     -19.742  -9.002  -2.790  1.00  0.00     0.157 C 
HETATM   63  C   UNL     1     -20.793  -8.186  -2.579  1.00  0.00     0.124 C 
HETATM   64  O   UNL     1     -21.393  -7.343  -3.467  1.00  0.00    -0.306 OA
HETATM   65  C   UNL     1     -20.785  -7.131  -4.657  1.00  0.00     0.096 A 
HETATM   66  C   UNL     1     -21.296  -6.053  -5.388  1.00  0.00     0.075 A 
HETATM   67  C   UNL     1     -19.727  -7.909  -5.104  1.00  0.00     0.084 A 
HETATM   68  C   UNL     1     -20.744  -5.753  -6.614  1.00  0.00     0.071 A 
HETATM   69  C   UNL     1     -19.751  -6.556  -7.138  1.00  0.00     0.074 A 
HETATM   70  C   UNL     1     -19.246  -7.611  -6.375  1.00  0.00     0.085 A 
HETATM   71  C   UNL     1     -19.162  -8.953  -4.181  1.00  0.00     0.223 C 
HETATM   72  O   UNL     1     -18.250  -9.705  -4.509  1.00  0.00    -0.284 OA
BRANCH  63  73
HETATM   73  C   UNL     1     -21.349  -7.977  -1.261  1.00  0.00     0.004 C 
HETATM   74  C   UNL     1     -20.680  -8.585  -0.191  1.00  0.00     0.053 C 
HETATM   75  C   UNL     1     -21.244  -8.529   1.065  1.00  0.00     0.099 C 
HETATM   76  C   UNL     1     -22.433  -7.826   1.243  1.00  0.00     0.098 C 
HETATM   77  C   UNL     1     -23.024  -7.109   0.203  1.00  0.00     0.040 C 
HETATM   78  C   UNL     1     -22.481  -7.187  -1.069  1.00  0.00     0.017 C 
BRANCH  75  79
HETATM   79  O   UNL     1     -20.675  -9.210   2.100  1.00  0.00    -0.358 OA
HETATM   80  H   UNL     1     -20.777  -8.687   2.911  1.00  0.00     0.217 HD
ENDBRANCH  75  79
BRANCH  76  81
HETATM   81  O   UNL     1     -23.106  -7.912   2.424  1.00  0.00    -0.358 OA
HETATM   82  H   UNL     1     -22.406  -7.807   3.093  1.00  0.00     0.217 HD
ENDBRANCH  76  81
ENDBRANCH  63  73
BRANCH  68  83
HETATM   83  O   UNL     1     -21.047  -4.599  -7.270  1.00  0.00    -0.361 OA
HETATM   84  H   UNL     1     -22.013  -4.561  -7.407  1.00  0.00     0.217 HD
ENDBRANCH  68  83
BRANCH  70  85
HETATM   85  O   UNL     1     -18.254  -8.321  -6.950  1.00  0.00    -0.360 OA
HETATM   86  H   UNL     1     -18.172  -9.165  -6.449  1.00  0.00     0.217 HD
ENDBRANCH  70  85
ENDBRANCH  61  62
ENDBRANCH   5  61
BRANCH   4  87
HETATM   87  O   UNL     1     -20.449 -12.060  -0.174  1.00  0.00    -0.308 OA
BRANCH  87  88
HETATM   88  C   UNL     1     -21.723 -12.083   0.298  1.00  0.00     0.259 C 
HETATM   89  O   UNL     1     -22.672 -11.520  -0.241  1.00  0.00    -0.265 OA
BRANCH  88  90
HETATM   90  C   UNL     1     -21.917 -12.855   1.584  1.00  0.00     0.121 C 
BRANCH  90  91
HETATM   91  C   UNL     1     -22.084 -14.359   1.479  1.00  0.00     0.119 C 
BRANCH  91  92
HETATM   92  C   UNL     1     -23.506 -14.742   1.168  1.00  0.00     0.139 C 
HETATM   93  O   UNL     1     -24.184 -15.471   1.877  1.00  0.00    -0.650 OA
BRANCH  92  94
HETATM   94  O   UNL     1     -23.979 -14.191   0.031  1.00  0.00    -0.776 OA
HETATM   95  H   UNL     1     -24.118 -14.827  -0.699  1.00  0.00     0.167 HD
ENDBRANCH  92  94
ENDBRANCH  91  92
ENDBRANCH  90  91
ENDBRANCH  88  90
ENDBRANCH  87  88
ENDBRANCH   4  87
TORSDOF 46
ENDMDL
MODEL 8
REMARK VINA RESULT:      -4.3      2.553      9.412
REMARK WARNING: 32 MAX_TORS EXCEEDED!!!
REMARK  46 active torsions:
REMARK  status: ('A' for Active; 'I' for Inactive)
REMARK    1  A    between atoms: C_3  and  O_78 
REMARK    2  A    between atoms: C_4  and  O_70 
REMARK    3  A    between atoms: C_5  and  O_62 
REMARK    4  A    between atoms: C_6  and  O_8 
REMARK    5  A    between atoms: O_8  and  C_9 
REMARK    6  A    between atoms: C_9  and  C_10 
REMARK    7  A    between atoms: C_11  and  O_54 
REMARK    8  A    between atoms: C_12  and  O_46 
REMARK    9  A    between atoms: C_13  and  O_38 
REMARK   10  A    between atoms: C_14  and  O_16 
REMARK   11  A    between atoms: O_16  and  C_17 
REMARK   12  A    between atoms: C_18  and  C_30 
REMARK   13  A    between atoms: C_22  and  O_29 
REMARK   14  A    between atoms: C_24  and  O_28 
REMARK   15  A    between atoms: C_32  and  O_37 
REMARK   16  A    between atoms: C_33  and  O_36 
REMARK   17  A    between atoms: O_38  and  C_39 
REMARK   18  A    between atoms: C_39  and  C_41 
REMARK   19  A    between atoms: C_41  and  C_42 
REMARK   20  A    between atoms: C_42  and  C_43 
REMARK   21  A    between atoms: C_43  and  O_45 
REMARK   22  A    between atoms: O_46  and  C_47 
REMARK   23  A    between atoms: C_47  and  C_49 
REMARK   24  A    between atoms: C_49  and  C_50 
REMARK   25  A    between atoms: C_50  and  C_51 
REMARK   26  A    between atoms: C_51  and  O_53 
REMARK   27  A    between atoms: O_54  and  C_55 
REMARK   28  A    between atoms: C_55  and  C_57 
REMARK   29  A    between atoms: C_57  and  C_58 
REMARK   30  A    between atoms: C_58  and  C_59 
REMARK   31  A    between atoms: C_59  and  O_61 
REMARK   32  A    between atoms: O_62  and  C_63 
REMARK   33  A    between atoms: C_63  and  C_65 
REMARK   34  A    between atoms: C_65  and  C_66 
REMARK   35  A    between atoms: C_66  and  C_67 
REMARK   36  A    between atoms: C_67  and  O_69 
REMARK   37  A    between atoms: O_70  and  C_71 
REMARK   38  A    between atoms: C_71  and  C_73 
REMARK   39  A    between atoms: C_73  and  C_74 
REMARK   40  A    between atoms: C_74  and  C_75 
REMARK   41  A    between atoms: C_75  and  O_77 
REMARK   42  A    between atoms: O_78  and  C_79 
REMARK   43  A    between atoms: C_79  and  C_81 
REMARK   44  A    between atoms: C_81  and  C_82 
REMARK   45  A    between atoms: C_82  and  C_83 
REMARK   46  A    between atoms: C_83  and  O_85 
ROOT
HETATM    1  C   UNL     1     -19.054 -12.632  -2.114  1.00  0.00     0.180 C 
HETATM    2  C   UNL     1     -18.513 -12.453  -0.670  1.00  0.00     0.195 C 
HETATM    3  C   UNL     1     -17.464 -13.516  -0.351  1.00  0.00     0.198 C 
HETATM    4  C   UNL     1     -17.971 -14.932  -0.714  1.00  0.00     0.219 C 
HETATM    5  C   UNL     1     -18.254 -14.927  -2.226  1.00  0.00     0.299 C 
HETATM    6  O   UNL     1     -19.343 -14.010  -2.468  1.00  0.00    -0.348 OA
ENDROOT
BRANCH   1   7
HETATM    7  C   UNL     1     -18.127 -11.986  -3.178  1.00  0.00     0.205 C 
BRANCH   7   8
HETATM    8  O   UNL     1     -18.672 -12.132  -4.501  1.00  0.00    -0.356 OA
BRANCH   8   9
HETATM    9  C   UNL     1     -19.682 -11.168  -4.798  1.00  0.00     0.292 C 
HETATM   10  C   UNL     1     -19.078  -9.810  -5.325  1.00  0.00     0.219 C 
HETATM   11  C   UNL     1     -20.297  -8.869  -5.516  1.00  0.00     0.198 C 
HETATM   12  C   UNL     1     -21.116  -8.719  -4.234  1.00  0.00     0.192 C 
HETATM   13  C   UNL     1     -21.610 -10.107  -3.792  1.00  0.00     0.152 C 
HETATM   14  C   UNL     1     -22.706 -10.665  -4.706  1.00  0.00     0.042 C 
HETATM   15  O   UNL     1     -20.511 -11.015  -3.651  1.00  0.00    -0.351 OA
BRANCH  10  16
HETATM   16  O   UNL     1     -18.027  -9.232  -4.447  1.00  0.00    -0.308 OA
BRANCH  16  17
HETATM   17  C   UNL     1     -16.701  -9.508  -4.664  1.00  0.00     0.259 C 
HETATM   18  O   UNL     1     -15.805  -9.459  -3.821  1.00  0.00    -0.265 OA
BRANCH  17  19
HETATM   19  C   UNL     1     -16.313  -9.962  -6.051  1.00  0.00     0.121 C 
BRANCH  19  20
HETATM   20  C   UNL     1     -15.376 -11.180  -5.948  1.00  0.00     0.119 C 
BRANCH  20  21
HETATM   21  C   UNL     1     -15.778 -12.609  -6.251  1.00  0.00     0.139 C 
HETATM   22  O   UNL     1     -15.527 -13.610  -5.610  1.00  0.00    -0.650 OA
BRANCH  21  23
HETATM   23  O   UNL     1     -16.570 -12.668  -7.357  1.00  0.00    -0.776 OA
HETATM   24  H   UNL     1     -17.180 -11.911  -7.461  1.00  0.00     0.167 HD
ENDBRANCH  21  23
ENDBRANCH  20  21
ENDBRANCH  19  20
ENDBRANCH  17  19
ENDBRANCH  16  17
ENDBRANCH  10  16
BRANCH  11  25
HETATM   25  O   UNL     1     -19.808  -7.595  -6.001  1.00  0.00    -0.310 OA
BRANCH  25  26
HETATM   26  C   UNL     1     -20.704  -6.645  -6.320  1.00  0.00     0.259 C 
HETATM   27  O   UNL     1     -21.764  -6.434  -5.714  1.00  0.00    -0.265 OA
BRANCH  26  28
HETATM   28  C   UNL     1     -20.239  -5.917  -7.553  1.00  0.00     0.121 C 
BRANCH  28  29
HETATM   29  C   UNL     1     -21.283  -4.912  -8.025  1.00  0.00     0.119 C 
BRANCH  29  30
HETATM   30  C   UNL     1     -21.092  -4.442  -9.451  1.00  0.00     0.139 C 
HETATM   31  O   UNL     1     -20.097  -4.638 -10.130  1.00  0.00    -0.650 OA
BRANCH  30  32
HETATM   32  O   UNL     1     -22.100  -3.673  -9.903  1.00  0.00    -0.776 OA
HETATM   33  H   UNL     1     -22.012  -2.729  -9.653  1.00  0.00     0.167 HD
ENDBRANCH  30  32
ENDBRANCH  29  30
ENDBRANCH  28  29
ENDBRANCH  26  28
ENDBRANCH  25  26
ENDBRANCH  11  25
BRANCH  12  34
HETATM   34  O   UNL     1     -20.255  -8.116  -3.236  1.00  0.00    -0.311 OA
BRANCH  34  35
HETATM   35  C   UNL     1     -20.867  -7.436  -2.247  1.00  0.00     0.259 C 
HETATM   36  O   UNL     1     -21.430  -6.356  -2.381  1.00  0.00    -0.265 OA
BRANCH  35  37
HETATM   37  C   UNL     1     -20.815  -8.204  -0.951  1.00  0.00     0.121 C 
BRANCH  37  38
HETATM   38  C   UNL     1     -22.190  -8.672  -0.498  1.00  0.00     0.119 C 
BRANCH  38  39
HETATM   39  C   UNL     1     -22.655  -7.958   0.742  1.00  0.00     0.139 C 
HETATM   40  O   UNL     1     -21.958  -7.829   1.739  1.00  0.00    -0.650 OA
BRANCH  39  41
HETATM   41  O   UNL     1     -23.909  -7.461   0.687  1.00  0.00    -0.776 OA
HETATM   42  H   UNL     1     -24.079  -6.787   0.002  1.00  0.00     0.167 HD
ENDBRANCH  39  41
ENDBRANCH  38  39
ENDBRANCH  37  38
ENDBRANCH  35  37
ENDBRANCH  34  35
ENDBRANCH  12  34
ENDBRANCH   8   9
ENDBRANCH   7   8
ENDBRANCH   1   7
BRANCH   2  43
HETATM   43  O   UNL     1     -19.452 -12.607   0.424  1.00  0.00    -0.311 OA
BRANCH  43  44
HETATM   44  C   UNL     1     -20.377 -11.686   0.729  1.00  0.00     0.259 C 
HETATM   45  O   UNL     1     -20.203 -10.685   1.401  1.00  0.00    -0.265 OA
BRANCH  44  46
HETATM   46  C   UNL     1     -21.694 -12.155   0.167  1.00  0.00     0.121 C 
BRANCH  46  47
HETATM   47  C   UNL     1     -21.860 -13.649   0.371  1.00  0.00     0.119 C 
BRANCH  47  48
HETATM   48  C   UNL     1     -23.280 -13.971   0.773  1.00  0.00     0.139 C 
HETATM   49  O   UNL     1     -24.046 -14.648   0.109  1.00  0.00    -0.650 OA
BRANCH  48  50
HETATM   50  O   UNL     1     -23.626 -13.439   1.965  1.00  0.00    -0.776 OA
HETATM   51  H   UNL     1     -24.480 -13.757   2.314  1.00  0.00     0.167 HD
ENDBRANCH  48  50
ENDBRANCH  47  48
ENDBRANCH  46  47
ENDBRANCH  44  46
ENDBRANCH  43  44
ENDBRANCH   2  43
BRANCH   3  52
HETATM   52  O   UNL     1     -17.138 -13.554   1.057  1.00  0.00    -0.310 OA
BRANCH  52  53
HETATM   53  C   UNL     1     -16.078 -12.845   1.513  1.00  0.00     0.259 C 
HETATM   54  O   UNL     1     -15.567 -11.903   0.931  1.00  0.00    -0.265 OA
BRANCH  53  55
HETATM   55  C   UNL     1     -15.531 -13.575   2.740  1.00  0.00     0.121 C 
BRANCH  55  56
HETATM   56  C   UNL     1     -16.156 -14.974   2.777  1.00  0.00     0.119 C 
BRANCH  56  57
HETATM   57  C   UNL     1     -15.143 -15.714   3.552  1.00  0.00     0.139 C 
HETATM   58  O   UNL     1     -15.434 -16.247   4.616  1.00  0.00    -0.650 OA
BRANCH  57  59
HETATM   59  O   UNL     1     -13.879 -15.601   3.111  1.00  0.00    -0.776 OA
HETATM   60  H   UNL     1     -13.155 -15.326   3.717  1.00  0.00     0.167 HD
ENDBRANCH  57  59
ENDBRANCH  56  57
ENDBRANCH  55  56
ENDBRANCH  53  55
ENDBRANCH  52  53
ENDBRANCH   3  52
BRANCH   5  61
HETATM   61  O   UNL     1     -18.548 -16.250  -2.705  1.00  0.00    -0.311 OA
BRANCH  61  62
HETATM   62  C   UNL     1     -18.545 -16.476  -4.092  1.00  0.00     0.157 C 
HETATM   63  C   UNL     1     -19.703 -16.516  -4.781  1.00  0.00     0.124 C 
HETATM   64  O   UNL     1     -19.880 -16.754  -6.112  1.00  0.00    -0.306 OA
HETATM   65  C   UNL     1     -18.786 -16.776  -6.908  1.00  0.00     0.096 A 
HETATM   66  C   UNL     1     -19.062 -16.737  -8.278  1.00  0.00     0.075 A 
HETATM   67  C   UNL     1     -17.495 -16.813  -6.402  1.00  0.00     0.084 A 
HETATM   68  C   UNL     1     -18.014 -16.755  -9.174  1.00  0.00     0.071 A 
HETATM   69  C   UNL     1     -16.719 -16.883  -8.717  1.00  0.00     0.074 A 
HETATM   70  C   UNL     1     -16.473 -16.897  -7.342  1.00  0.00     0.085 A 
HETATM   71  C   UNL     1     -17.303 -16.710  -4.913  1.00  0.00     0.223 C 
HETATM   72  O   UNL     1     -16.199 -16.769  -4.381  1.00  0.00    -0.284 OA
BRANCH  63  73
HETATM   73  C   UNL     1     -20.963 -16.136  -4.185  1.00  0.00     0.004 C 
HETATM   74  C   UNL     1     -21.292 -16.742  -2.965  1.00  0.00     0.053 C 
HETATM   75  C   UNL     1     -22.539 -16.515  -2.424  1.00  0.00     0.099 C 
HETATM   76  C   UNL     1     -23.414 -15.651  -3.078  1.00  0.00     0.098 C 
HETATM   77  C   UNL     1     -23.034 -14.946  -4.219  1.00  0.00     0.040 C 
HETATM   78  C   UNL     1     -21.794 -15.192  -4.786  1.00  0.00     0.017 C 
BRANCH  75  79
HETATM   79  O   UNL     1     -22.928 -17.183  -1.301  1.00  0.00    -0.358 OA
HETATM   80  H   UNL     1     -22.854 -16.584  -0.540  1.00  0.00     0.217 HD
ENDBRANCH  75  79
BRANCH  76  81
HETATM   81  O   UNL     1     -24.711 -15.557  -2.671  1.00  0.00    -0.358 OA
HETATM   82  H   UNL     1     -24.718 -14.755  -2.117  1.00  0.00     0.217 HD
ENDBRANCH  76  81
ENDBRANCH  63  73
BRANCH  68  83
HETATM   83  O   UNL     1     -18.204 -16.503 -10.499  1.00  0.00    -0.361 OA
HETATM   84  H   UNL     1     -17.865 -15.610 -10.700  1.00  0.00     0.217 HD
ENDBRANCH  68  83
BRANCH  70  85
HETATM   85  O   UNL     1     -15.176 -16.989  -6.984  1.00  0.00    -0.360 OA
HETATM   86  H   UNL     1     -15.039 -16.377  -6.225  1.00  0.00     0.217 HD
ENDBRANCH  70  85
ENDBRANCH  61  62
ENDBRANCH   5  61
BRANCH   4  87
HETATM   87  O   UNL     1     -19.182 -15.287   0.039  1.00  0.00    -0.308 OA
BRANCH  87  88
HETATM   88  C   UNL     1     -19.127 -16.428   0.776  1.00  0.00     0.259 C 
HETATM   89  O   UNL     1     -18.145 -17.163   0.842  1.00  0.00    -0.265 OA
BRANCH  88  90
HETATM   90  C   UNL     1     -20.395 -16.770   1.525  1.00  0.00     0.121 C 
BRANCH  90  91
HETATM   91  C   UNL     1     -20.582 -16.156   2.900  1.00  0.00     0.119 C 
BRANCH  91  92
HETATM   92  C   UNL     1     -22.025 -16.180   3.329  1.00  0.00     0.139 C 
HETATM   93  O   UNL     1     -22.803 -17.081   3.048  1.00  0.00    -0.650 OA
BRANCH  92  94
HETATM   94  O   UNL     1     -22.386 -15.115   4.075  1.00  0.00    -0.776 OA
HETATM   95  H   UNL     1     -22.370 -14.263   3.596  1.00  0.00     0.167 HD
ENDBRANCH  92  94
ENDBRANCH  91  92
ENDBRANCH  90  91
ENDBRANCH  88  90
ENDBRANCH  87  88
ENDBRANCH   4  87
TORSDOF 46
ENDMDL
MODEL 9
REMARK VINA RESULT:      -4.0      2.281      7.800
REMARK WARNING: 32 MAX_TORS EXCEEDED!!!
REMARK  46 active torsions:
REMARK  status: ('A' for Active; 'I' for Inactive)
REMARK    1  A    between atoms: C_3  and  O_78 
REMARK    2  A    between atoms: C_4  and  O_70 
REMARK    3  A    between atoms: C_5  and  O_62 
REMARK    4  A    between atoms: C_6  and  O_8 
REMARK    5  A    between atoms: O_8  and  C_9 
REMARK    6  A    between atoms: C_9  and  C_10 
REMARK    7  A    between atoms: C_11  and  O_54 
REMARK    8  A    between atoms: C_12  and  O_46 
REMARK    9  A    between atoms: C_13  and  O_38 
REMARK   10  A    between atoms: C_14  and  O_16 
REMARK   11  A    between atoms: O_16  and  C_17 
REMARK   12  A    between atoms: C_18  and  C_30 
REMARK   13  A    between atoms: C_22  and  O_29 
REMARK   14  A    between atoms: C_24  and  O_28 
REMARK   15  A    between atoms: C_32  and  O_37 
REMARK   16  A    between atoms: C_33  and  O_36 
REMARK   17  A    between atoms: O_38  and  C_39 
REMARK   18  A    between atoms: C_39  and  C_41 
REMARK   19  A    between atoms: C_41  and  C_42 
REMARK   20  A    between atoms: C_42  and  C_43 
REMARK   21  A    between atoms: C_43  and  O_45 
REMARK   22  A    between atoms: O_46  and  C_47 
REMARK   23  A    between atoms: C_47  and  C_49 
REMARK   24  A    between atoms: C_49  and  C_50 
REMARK   25  A    between atoms: C_50  and  C_51 
REMARK   26  A    between atoms: C_51  and  O_53 
REMARK   27  A    between atoms: O_54  and  C_55 
REMARK   28  A    between atoms: C_55  and  C_57 
REMARK   29  A    between atoms: C_57  and  C_58 
REMARK   30  A    between atoms: C_58  and  C_59 
REMARK   31  A    between atoms: C_59  and  O_61 
REMARK   32  A    between atoms: O_62  and  C_63 
REMARK   33  A    between atoms: C_63  and  C_65 
REMARK   34  A    between atoms: C_65  and  C_66 
REMARK   35  A    between atoms: C_66  and  C_67 
REMARK   36  A    between atoms: C_67  and  O_69 
REMARK   37  A    between atoms: O_70  and  C_71 
REMARK   38  A    between atoms: C_71  and  C_73 
REMARK   39  A    between atoms: C_73  and  C_74 
REMARK   40  A    between atoms: C_74  and  C_75 
REMARK   41  A    between atoms: C_75  and  O_77 
REMARK   42  A    between atoms: O_78  and  C_79 
REMARK   43  A    between atoms: C_79  and  C_81 
REMARK   44  A    between atoms: C_81  and  C_82 
REMARK   45  A    between atoms: C_82  and  C_83 
REMARK   46  A    between atoms: C_83  and  O_85 
ROOT
HETATM    1  C   UNL     1     -18.062  -9.430  -4.887  1.00  0.00     0.180 C 
HETATM    2  C   UNL     1     -19.493  -9.126  -4.369  1.00  0.00     0.195 C 
HETATM    3  C   UNL     1     -20.189 -10.409  -3.920  1.00  0.00     0.198 C 
HETATM    4  C   UNL     1     -20.079 -11.514  -4.997  1.00  0.00     0.219 C 
HETATM    5  C   UNL     1     -18.579 -11.787  -5.200  1.00  0.00     0.299 C 
HETATM    6  O   UNL     1     -17.984 -10.593  -5.753  1.00  0.00    -0.348 OA
ENDROOT
BRANCH   1   7
HETATM    7  C   UNL     1     -17.027  -9.546  -3.736  1.00  0.00     0.205 C 
BRANCH   7   8
HETATM    8  O   UNL     1     -17.473 -10.467  -2.727  1.00  0.00    -0.356 OA
BRANCH   8   9
HETATM    9  C   UNL     1     -16.636 -11.618  -2.612  1.00  0.00     0.292 C 
HETATM   10  C   UNL     1     -17.352 -12.807  -1.862  1.00  0.00     0.219 C 
HETATM   11  C   UNL     1     -16.281 -13.926  -1.760  1.00  0.00     0.198 C 
HETATM   12  C   UNL     1     -15.006 -13.443  -1.067  1.00  0.00     0.192 C 
HETATM   13  C   UNL     1     -14.428 -12.258  -1.857  1.00  0.00     0.152 C 
HETATM   14  C   UNL     1     -13.820 -12.681  -3.199  1.00  0.00     0.042 C 
HETATM   15  O   UNL     1     -15.407 -11.224  -2.010  1.00  0.00    -0.351 OA
BRANCH  10  16
HETATM   16  O   UNL     1     -17.932 -12.433  -0.546  1.00  0.00    -0.308 OA
BRANCH  16  17
HETATM   17  C   UNL     1     -19.133 -12.954  -0.135  1.00  0.00     0.259 C 
HETATM   18  O   UNL     1     -20.171 -12.319   0.049  1.00  0.00    -0.265 OA
BRANCH  17  19
HETATM   19  C   UNL     1     -19.201 -14.450   0.061  1.00  0.00     0.121 C 
BRANCH  19  20
HETATM   20  C   UNL     1     -20.666 -14.912  -0.028  1.00  0.00     0.119 C 
BRANCH  20  21
HETATM   21  C   UNL     1     -21.433 -15.579   1.095  1.00  0.00     0.139 C 
HETATM   22  O   UNL     1     -21.372 -16.736   1.460  1.00  0.00    -0.650 OA
BRANCH  21  23
HETATM   23  O   UNL     1     -22.210 -14.677   1.757  1.00  0.00    -0.776 OA
HETATM   24  H   UNL     1     -22.290 -14.840   2.718  1.00  0.00     0.167 HD
ENDBRANCH  21  23
ENDBRANCH  20  21
ENDBRANCH  19  20
ENDBRANCH  17  19
ENDBRANCH  16  17
ENDBRANCH  10  16
BRANCH  11  25
HETATM   25  O   UNL     1     -16.877 -15.055  -1.075  1.00  0.00    -0.310 OA
BRANCH  25  26
HETATM   26  C   UNL     1     -16.392 -16.284  -1.324  1.00  0.00     0.259 C 
HETATM   27  O   UNL     1     -16.823 -17.058  -2.191  1.00  0.00    -0.265 OA
BRANCH  26  28
HETATM   28  C   UNL     1     -15.281 -16.585  -0.354  1.00  0.00     0.121 C 
BRANCH  28  29
HETATM   29  C   UNL     1     -14.061 -17.148  -1.073  1.00  0.00     0.119 C 
BRANCH  29  30
HETATM   30  C   UNL     1     -12.968 -16.133  -1.329  1.00  0.00     0.139 C 
HETATM   31  O   UNL     1     -12.631 -15.722  -2.428  1.00  0.00    -0.650 OA
BRANCH  30  32
HETATM   32  O   UNL     1     -12.297 -15.774  -0.219  1.00  0.00    -0.776 OA
HETATM   33  H   UNL     1     -11.973 -16.537   0.304  1.00  0.00     0.167 HD
ENDBRANCH  30  32
ENDBRANCH  29  30
ENDBRANCH  28  29
ENDBRANCH  26  28
ENDBRANCH  25  26
ENDBRANCH  11  25
BRANCH  12  34
HETATM   34  O   UNL     1     -15.365 -13.060   0.285  1.00  0.00    -0.311 OA
BRANCH  34  35
HETATM   35  C   UNL     1     -14.505 -13.419   1.257  1.00  0.00     0.259 C 
HETATM   36  O   UNL     1     -13.292 -13.526   1.118  1.00  0.00    -0.265 OA
BRANCH  35  37
HETATM   37  C   UNL     1     -15.224 -13.626   2.565  1.00  0.00     0.121 C 
BRANCH  37  38
HETATM   38  C   UNL     1     -16.478 -14.473   2.410  1.00  0.00     0.119 C 
BRANCH  38  39
HETATM   39  C   UNL     1     -16.336 -15.825   3.056  1.00  0.00     0.139 C 
HETATM   40  O   UNL     1     -17.198 -16.691   2.988  1.00  0.00    -0.650 OA
BRANCH  39  41
HETATM   41  O   UNL     1     -15.183 -16.027   3.728  1.00  0.00    -0.776 OA
HETATM   42  H   UNL     1     -15.089 -16.888   4.179  1.00  0.00     0.167 HD
ENDBRANCH  39  41
ENDBRANCH  38  39
ENDBRANCH  37  38
ENDBRANCH  35  37
ENDBRANCH  34  35
ENDBRANCH  12  34
ENDBRANCH   8   9
ENDBRANCH   7   8
ENDBRANCH   1   7
BRANCH   2  43
HETATM   43  O   UNL     1     -20.446  -8.571  -5.311  1.00  0.00    -0.311 OA
BRANCH  43  44
HETATM   44  C   UNL     1     -20.789  -7.276  -5.327  1.00  0.00     0.259 C 
HETATM   45  O   UNL     1     -21.192  -6.624  -4.379  1.00  0.00    -0.265 OA
BRANCH  44  46
HETATM   46  C   UNL     1     -20.673  -6.788  -6.748  1.00  0.00     0.121 C 
BRANCH  46  47
HETATM   47  C   UNL     1     -19.653  -5.668  -6.846  1.00  0.00     0.119 C 
BRANCH  47  48
HETATM   48  C   UNL     1     -20.285  -4.430  -7.436  1.00  0.00     0.139 C 
HETATM   49  O   UNL     1     -19.956  -3.928  -8.496  1.00  0.00    -0.650 OA
BRANCH  48  50
HETATM   50  O   UNL     1     -21.280  -3.929  -6.671  1.00  0.00    -0.776 OA
HETATM   51  H   UNL     1     -21.500  -2.997  -6.860  1.00  0.00     0.167 HD
ENDBRANCH  48  50
ENDBRANCH  47  48
ENDBRANCH  46  47
ENDBRANCH  44  46
ENDBRANCH  43  44
ENDBRANCH   2  43
BRANCH   3  52
HETATM   52  O   UNL     1     -21.603 -10.210  -3.690  1.00  0.00    -0.310 OA
BRANCH  52  53
HETATM   53  C   UNL     1     -22.030  -9.840  -2.460  1.00  0.00     0.259 C 
HETATM   54  O   UNL     1     -22.067  -8.691  -2.051  1.00  0.00    -0.265 OA
BRANCH  53  55
HETATM   55  C   UNL     1     -22.232 -11.115  -1.640  1.00  0.00     0.121 C 
BRANCH  55  56
HETATM   56  C   UNL     1     -23.346 -10.851  -0.621  1.00  0.00     0.119 C 
BRANCH  56  57
HETATM   57  C   UNL     1     -23.760 -12.228  -0.295  1.00  0.00     0.139 C 
HETATM   58  O   UNL     1     -24.274 -12.946  -1.146  1.00  0.00    -0.650 OA
BRANCH  57  59
HETATM   59  O   UNL     1     -23.708 -12.558   1.007  1.00  0.00    -0.776 OA
HETATM   60  H   UNL     1     -22.885 -12.918   1.405  1.00  0.00     0.167 HD
ENDBRANCH  57  59
ENDBRANCH  56  57
ENDBRANCH  55  56
ENDBRANCH  53  55
ENDBRANCH  52  53
ENDBRANCH   3  52
BRANCH   5  61
HETATM   61  O   UNL     1     -18.367 -12.933  -6.043  1.00  0.00    -0.311 OA
BRANCH  61  62
HETATM   62  C   UNL     1     -17.180 -13.669  -5.885  1.00  0.00     0.157 C 
HETATM   63  C   UNL     1     -17.209 -14.907  -5.353  1.00  0.00     0.124 C 
HETATM   64  O   UNL     1     -16.157 -15.737  -5.102  1.00  0.00    -0.306 OA
HETATM   65  C   UNL     1     -14.944 -15.398  -5.595  1.00  0.00     0.096 A 
HETATM   66  C   UNL     1     -13.990 -16.420  -5.548  1.00  0.00     0.075 A 
HETATM   67  C   UNL     1     -14.677 -14.143  -6.123  1.00  0.00     0.084 A 
HETATM   68  C   UNL     1     -12.722 -16.175  -6.028  1.00  0.00     0.071 A 
HETATM   69  C   UNL     1     -12.386 -14.915  -6.478  1.00  0.00     0.074 A 
HETATM   70  C   UNL     1     -13.367 -13.921  -6.534  1.00  0.00     0.085 A 
HETATM   71  C   UNL     1     -15.810 -13.163  -6.255  1.00  0.00     0.223 C 
HETATM   72  O   UNL     1     -15.654 -12.022  -6.680  1.00  0.00    -0.284 OA
BRANCH  63  73
HETATM   73  C   UNL     1     -18.449 -15.608  -5.111  1.00  0.00     0.004 C 
HETATM   74  C   UNL     1     -19.083 -16.172  -6.227  1.00  0.00     0.053 C 
HETATM   75  C   UNL     1     -20.331 -16.734  -6.070  1.00  0.00     0.099 C 
HETATM   76  C   UNL     1     -20.903 -16.772  -4.801  1.00  0.00     0.098 C 
HETATM   77  C   UNL     1     -20.213 -16.332  -3.672  1.00  0.00     0.040 C 
HETATM   78  C   UNL     1     -18.971 -15.738  -3.826  1.00  0.00     0.017 C 
BRANCH  75  79
HETATM   79  O   UNL     1     -21.019 -17.183  -7.158  1.00  0.00    -0.358 OA
HETATM   80  H   UNL     1     -20.522 -17.912  -7.563  1.00  0.00     0.217 HD
ENDBRANCH  75  79
BRANCH  76  81
HETATM   81  O   UNL     1     -22.204 -17.146  -4.649  1.00  0.00    -0.358 OA
HETATM   82  H   UNL     1     -22.407 -16.893  -3.730  1.00  0.00     0.217 HD
ENDBRANCH  76  81
ENDBRANCH  63  73
BRANCH  68  83
HETATM   83  O   UNL     1     -11.821 -17.181  -6.208  1.00  0.00    -0.361 OA
HETATM   84  H   UNL     1     -11.667 -17.296  -7.166  1.00  0.00     0.217 HD
ENDBRANCH  68  83
BRANCH  70  85
HETATM   85  O   UNL     1     -12.960 -12.731  -7.019  1.00  0.00    -0.360 OA
HETATM   86  H   UNL     1     -13.469 -12.033  -6.544  1.00  0.00     0.217 HD
ENDBRANCH  70  85
ENDBRANCH  61  62
ENDBRANCH   5  61
BRANCH   4  87
HETATM   87  O   UNL     1     -20.708 -11.107  -6.262  1.00  0.00    -0.308 OA
BRANCH  87  88
HETATM   88  C   UNL     1     -21.440 -12.052  -6.908  1.00  0.00     0.259 C 
HETATM   89  O   UNL     1     -21.053 -12.675  -7.893  1.00  0.00    -0.265 OA
BRANCH  88  90
HETATM   90  C   UNL     1     -22.821 -12.294  -6.339  1.00  0.00     0.121 C 
BRANCH  90  91
HETATM   91  C   UNL     1     -22.950 -13.319  -5.228  1.00  0.00     0.119 C 
BRANCH  91  92
HETATM   92  C   UNL     1     -23.545 -14.609  -5.725  1.00  0.00     0.139 C 
HETATM   93  O   UNL     1     -24.372 -15.260  -5.103  1.00  0.00    -0.650 OA
BRANCH  92  94
HETATM   94  O   UNL     1     -23.093 -14.982  -6.940  1.00  0.00    -0.776 OA
HETATM   95  H   UNL     1     -23.539 -14.539  -7.690  1.00  0.00     0.167 HD
ENDBRANCH  92  94
ENDBRANCH  91  92
ENDBRANCH  90  91
ENDBRANCH  88  90
ENDBRANCH  87  88
ENDBRANCH   4  87
TORSDOF 46
ENDMDL
