MODEL 1
REMARK VINA RESULT:      -5.0      0.000      0.000
REMARK  2 active torsions:
REMARK  status: ('A' for Active; 'I' for Inactive)
REMARK    1  A    between atoms: C_2  and  O_10 
REMARK    2  A    between atoms: C_6  and  O_9 
ROOT
HETATM    1  C   UNL     1     -24.114  -4.925 -10.182  1.00  0.00     0.202 C 
HETATM    2  C   UNL     1     -24.553  -3.483 -10.381  1.00  0.00     0.173 C 
HETATM    3  C   UNL     1     -23.292  -2.828 -10.914  1.00  0.00     0.183 C 
HETATM    4  C   UNL     1     -22.175  -3.615 -10.242  1.00  0.00     0.183 C 
HETATM    5  O   UNL     1     -22.730  -4.866  -9.785  1.00  0.00    -0.378 OA
HETATM    6  C   UNL     1     -21.173  -3.828 -11.359  1.00  0.00     0.173 C 
HETATM    7  C   UNL     1     -22.064  -3.905 -12.588  1.00  0.00     0.202 C 
HETATM    8  O   UNL     1     -23.164  -3.011 -12.339  1.00  0.00    -0.378 OA
ENDROOT
BRANCH   2   9
HETATM    9  O   UNL     1     -24.919  -2.898  -9.127  1.00  0.00    -0.391 OA
HETATM   10  H   UNL     1     -24.578  -1.985  -9.109  1.00  0.00     0.210 HD
ENDBRANCH   2   9
BRANCH   6  11
HETATM   11  O   UNL     1     -20.294  -2.702 -11.455  1.00  0.00    -0.391 OA
HETATM   12  H   UNL     1     -20.077  -2.413 -10.550  1.00  0.00     0.210 HD
ENDBRANCH   6  11
TORSDOF 2
ENDMDL
MODEL 2
REMARK VINA RESULT:      -4.8      1.626      2.431
REMARK  2 active torsions:
REMARK  status: ('A' for Active; 'I' for Inactive)
REMARK    1  A    between atoms: C_2  and  O_10 
REMARK    2  A    between atoms: C_6  and  O_9 
ROOT
HETATM    1  C   UNL     1     -24.595  -3.341  -9.978  1.00  0.00     0.202 C 
HETATM    2  C   UNL     1     -23.777  -4.623  -9.984  1.00  0.00     0.173 C 
HETATM    3  C   UNL     1     -22.987  -4.501 -11.273  1.00  0.00     0.183 C 
HETATM    4  C   UNL     1     -23.923  -3.721 -12.187  1.00  0.00     0.183 C 
HETATM    5  O   UNL     1     -24.901  -3.060 -11.358  1.00  0.00    -0.378 OA
HETATM    6  C   UNL     1     -23.003  -2.723 -12.863  1.00  0.00     0.173 C 
HETATM    7  C   UNL     1     -21.954  -2.468 -11.794  1.00  0.00     0.202 C 
HETATM    8  O   UNL     1     -21.794  -3.713 -11.089  1.00  0.00    -0.378 OA
ENDROOT
BRANCH   2   9
HETATM    9  O   UNL     1     -24.643  -5.761 -10.042  1.00  0.00    -0.391 OA
HETATM   10  H   UNL     1     -24.113  -6.552  -9.830  1.00  0.00     0.210 HD
ENDBRANCH   2   9
BRANCH   6  11
HETATM   11  O   UNL     1     -22.399  -3.313 -14.019  1.00  0.00    -0.391 OA
HETATM   12  H   UNL     1     -22.975  -4.038 -14.321  1.00  0.00     0.210 HD
ENDBRANCH   6  11
TORSDOF 2
ENDMDL
MODEL 3
REMARK VINA RESULT:      -4.8      1.603      3.448
REMARK  2 active torsions:
REMARK  status: ('A' for Active; 'I' for Inactive)
REMARK    1  A    between atoms: C_2  and  O_10 
REMARK    2  A    between atoms: C_6  and  O_9 
ROOT
HETATM    1  C   UNL     1     -21.925  -2.535 -11.699  1.00  0.00     0.202 C 
HETATM    2  C   UNL     1     -22.979  -2.746 -12.774  1.00  0.00     0.173 C 
HETATM    3  C   UNL     1     -23.939  -3.711 -12.104  1.00  0.00     0.183 C 
HETATM    4  C   UNL     1     -23.037  -4.531 -11.192  1.00  0.00     0.183 C 
HETATM    5  O   UNL     1     -21.813  -3.791 -11.002  1.00  0.00    -0.378 OA
HETATM    6  C   UNL     1     -23.832  -4.629  -9.906  1.00  0.00     0.173 C 
HETATM    7  C   UNL     1     -24.602  -3.319  -9.896  1.00  0.00     0.202 C 
HETATM    8  O   UNL     1     -24.892  -3.018 -11.274  1.00  0.00    -0.378 OA
ENDROOT
BRANCH   2   9
HETATM    9  O   UNL     1     -22.394  -3.355 -13.929  1.00  0.00    -0.391 OA
HETATM   10  H   UNL     1     -22.089  -2.644 -14.522  1.00  0.00     0.210 HD
ENDBRANCH   2   9
BRANCH   6  11
HETATM   11  O   UNL     1     -24.738  -5.735  -9.968  1.00  0.00    -0.391 OA
HETATM   12  H   UNL     1     -24.263  -6.529  -9.662  1.00  0.00     0.210 HD
ENDBRANCH   6  11
TORSDOF 2
ENDMDL
MODEL 4
REMARK VINA RESULT:      -4.8     16.462     17.317
REMARK  2 active torsions:
REMARK  status: ('A' for Active; 'I' for Inactive)
REMARK    1  A    between atoms: C_2  and  O_10 
REMARK    2  A    between atoms: C_6  and  O_9 
ROOT
HETATM    1  C   UNL     1     -29.532 -16.963 -21.776  1.00  0.00     0.202 C 
HETATM    2  C   UNL     1     -30.798 -16.298 -22.292  1.00  0.00     0.173 C 
HETATM    3  C   UNL     1     -30.950 -15.114 -21.355  1.00  0.00     0.183 C 
HETATM    4  C   UNL     1     -30.361 -15.622 -20.046  1.00  0.00     0.183 C 
HETATM    5  O   UNL     1     -29.534 -16.764 -20.349  1.00  0.00    -0.378 OA
HETATM    6  C   UNL     1     -29.532 -14.451 -19.556  1.00  0.00     0.173 C 
HETATM    7  C   UNL     1     -29.078 -13.805 -20.854  1.00  0.00     0.202 C 
HETATM    8  O   UNL     1     -30.156 -13.992 -21.790  1.00  0.00    -0.378 OA
ENDROOT
BRANCH   2   9
HETATM    9  O   UNL     1     -31.914 -17.183 -22.152  1.00  0.00    -0.391 OA
HETATM   10  H   UNL     1     -32.201 -17.449 -23.045  1.00  0.00     0.210 HD
ENDBRANCH   2   9
BRANCH   6  11
HETATM   11  O   UNL     1     -30.351 -13.544 -18.811  1.00  0.00    -0.391 OA
HETATM   12  H   UNL     1     -30.359 -12.691 -19.283  1.00  0.00     0.210 HD
ENDBRANCH   6  11
TORSDOF 2
ENDMDL
MODEL 5
REMARK VINA RESULT:      -4.8      1.572      2.554
REMARK  2 active torsions:
REMARK  status: ('A' for Active; 'I' for Inactive)
REMARK    1  A    between atoms: C_2  and  O_10 
REMARK    2  A    between atoms: C_6  and  O_9 
ROOT
HETATM    1  C   UNL     1     -23.681  -4.898 -11.765  1.00  0.00     0.202 C 
HETATM    2  C   UNL     1     -23.319  -3.441 -12.005  1.00  0.00     0.173 C 
HETATM    3  C   UNL     1     -22.725  -3.028 -10.671  1.00  0.00     0.183 C 
HETATM    4  C   UNL     1     -23.488  -3.881  -9.667  1.00  0.00     0.183 C 
HETATM    5  O   UNL     1     -24.078  -4.985 -10.383  1.00  0.00    -0.378 OA
HETATM    6  C   UNL     1     -22.408  -4.351  -8.713  1.00  0.00     0.173 C 
HETATM    7  C   UNL     1     -21.190  -4.442  -9.617  1.00  0.00     0.202 C 
HETATM    8  O   UNL     1     -21.331  -3.383 -10.582  1.00  0.00    -0.378 OA
ENDROOT
BRANCH   2   9
HETATM    9  O   UNL     1     -24.499  -2.676 -12.277  1.00  0.00    -0.391 OA
HETATM   10  H   UNL     1     -25.150  -2.870 -11.577  1.00  0.00     0.210 HD
ENDBRANCH   2   9
BRANCH   6  11
HETATM   11  O   UNL     1     -22.193  -3.374  -7.689  1.00  0.00    -0.391 OA
HETATM   12  H   UNL     1     -23.032  -2.899  -7.547  1.00  0.00     0.210 HD
ENDBRANCH   6  11
TORSDOF 2
ENDMDL
MODEL 6
REMARK VINA RESULT:      -4.7      1.581      2.671
REMARK  2 active torsions:
REMARK  status: ('A' for Active; 'I' for Inactive)
REMARK    1  A    between atoms: C_2  and  O_10 
REMARK    2  A    between atoms: C_6  and  O_9 
ROOT
HETATM    1  C   UNL     1     -21.204  -4.471  -9.571  1.00  0.00     0.202 C 
HETATM    2  C   UNL     1     -22.424  -4.343  -8.672  1.00  0.00     0.173 C 
HETATM    3  C   UNL     1     -23.490  -3.859  -9.636  1.00  0.00     0.183 C 
HETATM    4  C   UNL     1     -22.705  -3.032 -10.645  1.00  0.00     0.183 C 
HETATM    5  O   UNL     1     -21.318  -3.416 -10.545  1.00  0.00    -0.378 OA
HETATM    6  C   UNL     1     -23.301  -3.444 -11.977  1.00  0.00     0.173 C 
HETATM    7  C   UNL     1     -23.697  -4.889 -11.725  1.00  0.00     0.202 C 
HETATM    8  O   UNL     1     -24.100  -4.957 -10.345  1.00  0.00    -0.378 OA
ENDROOT
BRANCH   2   9
HETATM    9  O   UNL     1     -22.191  -3.358  -7.659  1.00  0.00    -0.391 OA
HETATM   10  H   UNL     1     -22.585  -3.683  -6.828  1.00  0.00     0.210 HD
ENDBRANCH   2   9
BRANCH   6  11
HETATM   11  O   UNL     1     -24.460  -2.655 -12.264  1.00  0.00    -0.391 OA
HETATM   12  H   UNL     1     -25.131  -2.849 -11.584  1.00  0.00     0.210 HD
ENDBRANCH   6  11
TORSDOF 2
ENDMDL
MODEL 7
REMARK VINA RESULT:      -4.7     12.878     14.463
REMARK  2 active torsions:
REMARK  status: ('A' for Active; 'I' for Inactive)
REMARK    1  A    between atoms: C_2  and  O_10 
REMARK    2  A    between atoms: C_6  and  O_9 
ROOT
HETATM    1  C   UNL     1     -35.101  -1.371 -13.158  1.00  0.00     0.202 C 
HETATM    2  C   UNL     1     -36.270  -0.819 -12.357  1.00  0.00     0.173 C 
HETATM    3  C   UNL     1     -36.963   0.077 -13.367  1.00  0.00     0.183 C 
HETATM    4  C   UNL     1     -35.820   0.576 -14.239  1.00  0.00     0.183 C 
HETATM    5  O   UNL     1     -34.701  -0.316 -14.054  1.00  0.00    -0.378 OA
HETATM    6  C   UNL     1     -36.381   0.479 -15.644  1.00  0.00     0.173 C 
HETATM    7  C   UNL     1     -37.320  -0.711 -15.540  1.00  0.00     0.202 C 
HETATM    8  O   UNL     1     -37.864  -0.673 -14.207  1.00  0.00    -0.378 OA
ENDROOT
BRANCH   2   9
HETATM    9  O   UNL     1     -35.791  -0.041 -11.255  1.00  0.00    -0.391 OA
HETATM   10  H   UNL     1     -34.819   0.004 -11.319  1.00  0.00     0.210 HD
ENDBRANCH   2   9
BRANCH   6  11
HETATM   11  O   UNL     1     -37.116   1.664 -15.966  1.00  0.00    -0.391 OA
HETATM   12  H   UNL     1     -36.476   2.388 -16.096  1.00  0.00     0.210 HD
ENDBRANCH   6  11
TORSDOF 2
ENDMDL
MODEL 8
REMARK VINA RESULT:      -4.7     10.240     11.790
REMARK  2 active torsions:
REMARK  status: ('A' for Active; 'I' for Inactive)
REMARK    1  A    between atoms: C_2  and  O_10 
REMARK    2  A    between atoms: C_6  and  O_9 
ROOT
HETATM    1  C   UNL     1     -34.558  -4.902 -11.874  1.00  0.00     0.202 C 
HETATM    2  C   UNL     1     -33.207  -4.447 -11.346  1.00  0.00     0.173 C 
HETATM    3  C   UNL     1     -33.347  -2.937 -11.350  1.00  0.00     0.183 C 
HETATM    4  C   UNL     1     -34.279  -2.672 -12.524  1.00  0.00     0.183 C 
HETATM    5  O   UNL     1     -34.968  -3.902 -12.826  1.00  0.00    -0.378 OA
HETATM    6  C   UNL     1     -35.230  -1.620 -11.988  1.00  0.00     0.173 C 
HETATM    7  C   UNL     1     -35.302  -1.967 -10.510  1.00  0.00     0.202 C 
HETATM    8  O   UNL     1     -33.999  -2.464 -10.154  1.00  0.00    -0.378 OA
ENDROOT
BRANCH   2   9
HETATM    9  O   UNL     1     -32.165  -4.848 -12.242  1.00  0.00    -0.391 OA
HETATM   10  H   UNL     1     -31.696  -5.603 -11.841  1.00  0.00     0.210 HD
ENDBRANCH   2   9
BRANCH   6  11
HETATM   11  O   UNL     1     -34.672  -0.314 -12.163  1.00  0.00    -0.391 OA
HETATM   12  H   UNL     1     -33.727  -0.357 -11.925  1.00  0.00     0.210 HD
ENDBRANCH   6  11
TORSDOF 2
ENDMDL
MODEL 9
REMARK VINA RESULT:      -4.7      1.611      2.829
REMARK  2 active torsions:
REMARK  status: ('A' for Active; 'I' for Inactive)
REMARK    1  A    between atoms: C_2  and  O_10 
REMARK    2  A    between atoms: C_6  and  O_9 
ROOT
HETATM    1  C   UNL     1     -23.637  -2.578 -12.132  1.00  0.00     0.202 C 
HETATM    2  C   UNL     1     -24.012  -4.043 -12.292  1.00  0.00     0.173 C 
HETATM    3  C   UNL     1     -22.834  -4.753 -11.651  1.00  0.00     0.183 C 
HETATM    4  C   UNL     1     -21.664  -3.821 -11.933  1.00  0.00     0.183 C 
HETATM    5  O   UNL     1     -22.203  -2.521 -12.252  1.00  0.00    -0.378 OA
HETATM    6  C   UNL     1     -20.906  -3.800 -10.620  1.00  0.00     0.173 C 
HETATM    7  C   UNL     1     -22.016  -3.987  -9.598  1.00  0.00     0.202 C 
HETATM    8  O   UNL     1     -22.989  -4.847 -10.220  1.00  0.00    -0.378 OA
ENDROOT
BRANCH   2   9
HETATM    9  O   UNL     1     -24.096  -4.384 -13.680  1.00  0.00    -0.391 OA
HETATM   10  H   UNL     1     -24.432  -3.605 -14.161  1.00  0.00     0.210 HD
ENDBRANCH   2   9
BRANCH   6  11
HETATM   11  O   UNL     1     -19.990  -4.898 -10.562  1.00  0.00    -0.391 OA
HETATM   12  H   UNL     1     -19.726  -5.117 -11.474  1.00  0.00     0.210 HD
ENDBRANCH   6  11
TORSDOF 2
ENDMDL
