MODEL 1
REMARK VINA RESULT:      -6.4      0.000      0.000
REMARK  13 active torsions:
REMARK  status: ('A' for Active; 'I' for Inactive)
REMARK    1  A    between atoms: C_2  and  C_3 
REMARK    2  A    between atoms: C_3  and  C_4 
REMARK    3  A    between atoms: C_4  and  C_5 
REMARK    4  A    between atoms: C_5  and  C_6 
REMARK    5  A    between atoms: C_6  and  C_7 
REMARK    6  A    between atoms: C_7  and  C_8 
REMARK    7  A    between atoms: C_8  and  C_9 
REMARK    8  A    between atoms: C_9  and  C_10 
REMARK    9  A    between atoms: C_10  and  C_11 
REMARK   10  A    between atoms: C_11  and  C_12 
REMARK   11  A    between atoms: C_12  and  C_13 
REMARK   12  A    between atoms: C_13  and  C_14 
REMARK   13  A    between atoms: C_14  and  N_15 
ROOT
HETATM    1  C   UNL     1     -20.547  -4.756  -6.208  1.00  0.00     0.000 C 
ENDROOT
BRANCH   1   2
HETATM    2  C   UNL     1     -20.950  -6.193  -6.492  1.00  0.00     0.000 C 
BRANCH   2   3
HETATM    3  C   UNL     1     -20.859  -7.035  -5.227  1.00  0.00     0.000 C 
BRANCH   3   4
HETATM    4  C   UNL     1     -21.977  -6.657  -4.267  1.00  0.00     0.000 C 
BRANCH   4   5
HETATM    5  C   UNL     1     -21.406  -6.154  -2.949  1.00  0.00     0.000 C 
BRANCH   5   6
HETATM    6  C   UNL     1     -21.453  -7.252  -1.891  1.00  0.00     0.000 C 
BRANCH   6   7
HETATM    7  C   UNL     1     -22.485  -6.919  -0.819  1.00  0.00    -0.000 C 
BRANCH   7   8
HETATM    8  C   UNL     1     -22.486  -7.968   0.287  1.00  0.00    -0.005 C 
HETATM    9  C   UNL     1     -21.204  -8.784   0.263  1.00  0.00     0.005 C 
ENDBRANCH   7   8
ENDBRANCH   6   7
ENDBRANCH   5   6
ENDBRANCH   4   5
ENDBRANCH   3   4
ENDBRANCH   2   3
ENDBRANCH   1   2
BRANCH   1  10
HETATM   10  C   UNL     1     -21.145  -3.825  -7.254  1.00  0.00     0.000 C 
BRANCH  10  11
HETATM   11  C   UNL     1     -21.417  -4.592  -8.536  1.00  0.00     0.000 C 
BRANCH  11  12
HETATM   12  C   UNL     1     -20.503  -4.122  -9.663  1.00  0.00     0.002 C 
BRANCH  12  13
HETATM   13  C   UNL     1     -21.317  -3.996 -10.942  1.00  0.00     0.036 C 
BRANCH  13  14
HETATM   14  C   UNL     1     -22.539  -3.110 -10.747  1.00  0.00     0.311 C 
BRANCH  14  15
HETATM   15  N   UNL     1     -23.745  -3.496 -11.585  1.00  0.00     0.005 N 
HETATM   16  C   UNL     1     -23.778  -2.725 -12.874  1.00  0.00     0.355 C 
HETATM   17  C   UNL     1     -23.755  -4.971 -11.873  1.00  0.00     0.355 C 
HETATM   18  O   UNL     1     -24.882  -3.188 -10.867  1.00  0.00    -0.065 OA
ENDBRANCH  14  15
ENDBRANCH  13  14
ENDBRANCH  12  13
ENDBRANCH  11  12
ENDBRANCH  10  11
ENDBRANCH   1  10
TORSDOF 13
ENDMDL
MODEL 2
REMARK VINA RESULT:      -6.4      1.445      2.076
REMARK  13 active torsions:
REMARK  status: ('A' for Active; 'I' for Inactive)
REMARK    1  A    between atoms: C_2  and  C_3 
REMARK    2  A    between atoms: C_3  and  C_4 
REMARK    3  A    between atoms: C_4  and  C_5 
REMARK    4  A    between atoms: C_5  and  C_6 
REMARK    5  A    between atoms: C_6  and  C_7 
REMARK    6  A    between atoms: C_7  and  C_8 
REMARK    7  A    between atoms: C_8  and  C_9 
REMARK    8  A    between atoms: C_9  and  C_10 
REMARK    9  A    between atoms: C_10  and  C_11 
REMARK   10  A    between atoms: C_11  and  C_12 
REMARK   11  A    between atoms: C_12  and  C_13 
REMARK   12  A    between atoms: C_13  and  C_14 
REMARK   13  A    between atoms: C_14  and  N_15 
ROOT
HETATM    1  C   UNL     1     -20.710  -5.517  -5.497  1.00  0.00     0.000 C 
ENDROOT
BRANCH   1   2
HETATM    2  C   UNL     1     -21.672  -6.642  -5.150  1.00  0.00     0.000 C 
BRANCH   2   3
HETATM    3  C   UNL     1     -21.379  -7.186  -3.759  1.00  0.00     0.000 C 
BRANCH   3   4
HETATM    4  C   UNL     1     -21.484  -6.071  -2.730  1.00  0.00     0.000 C 
BRANCH   4   5
HETATM    5  C   UNL     1     -22.319  -6.518  -1.539  1.00  0.00     0.000 C 
BRANCH   5   6
HETATM    6  C   UNL     1     -21.651  -7.688  -0.824  1.00  0.00     0.000 C 
BRANCH   6   7
HETATM    7  C   UNL     1     -22.668  -8.457   0.012  1.00  0.00    -0.000 C 
BRANCH   7   8
HETATM    8  C   UNL     1     -22.616  -9.949  -0.296  1.00  0.00    -0.005 C 
HETATM    9  C   UNL     1     -23.978 -10.594  -0.094  1.00  0.00     0.005 C 
ENDBRANCH   7   8
ENDBRANCH   6   7
ENDBRANCH   5   6
ENDBRANCH   4   5
ENDBRANCH   3   4
ENDBRANCH   2   3
ENDBRANCH   1   2
BRANCH   1  10
HETATM   10  C   UNL     1     -20.081  -5.765  -6.860  1.00  0.00     0.000 C 
BRANCH  10  11
HETATM   11  C   UNL     1     -20.159  -4.505  -7.704  1.00  0.00     0.000 C 
BRANCH  11  12
HETATM   12  C   UNL     1     -21.389  -3.677  -7.347  1.00  0.00     0.002 C 
BRANCH  12  13
HETATM   13  C   UNL     1     -22.547  -4.098  -8.238  1.00  0.00     0.036 C 
BRANCH  13  14
HETATM   14  C   UNL     1     -22.257  -3.825  -9.707  1.00  0.00     0.311 C 
BRANCH  14  15
HETATM   15  N   UNL     1     -23.483  -3.789 -10.602  1.00  0.00     0.005 N 
HETATM   16  C   UNL     1     -24.711  -3.409  -9.824  1.00  0.00     0.355 C 
HETATM   17  C   UNL     1     -23.290  -2.835 -11.748  1.00  0.00     0.355 C 
HETATM   18  O   UNL     1     -23.673  -5.054 -11.120  1.00  0.00    -0.065 OA
ENDBRANCH  14  15
ENDBRANCH  13  14
ENDBRANCH  12  13
ENDBRANCH  11  12
ENDBRANCH  10  11
ENDBRANCH   1  10
TORSDOF 13
ENDMDL
MODEL 3
REMARK VINA RESULT:      -6.1      4.440      9.000
REMARK  13 active torsions:
REMARK  status: ('A' for Active; 'I' for Inactive)
REMARK    1  A    between atoms: C_2  and  C_3 
REMARK    2  A    between atoms: C_3  and  C_4 
REMARK    3  A    between atoms: C_4  and  C_5 
REMARK    4  A    between atoms: C_5  and  C_6 
REMARK    5  A    between atoms: C_6  and  C_7 
REMARK    6  A    between atoms: C_7  and  C_8 
REMARK    7  A    between atoms: C_8  and  C_9 
REMARK    8  A    between atoms: C_9  and  C_10 
REMARK    9  A    between atoms: C_10  and  C_11 
REMARK   10  A    between atoms: C_11  and  C_12 
REMARK   11  A    between atoms: C_12  and  C_13 
REMARK   12  A    between atoms: C_13  and  C_14 
REMARK   13  A    between atoms: C_14  and  N_15 
ROOT
HETATM    1  C   UNL     1     -20.881  -6.989  -5.478  1.00  0.00     0.000 C 
ENDROOT
BRANCH   1   2
HETATM    2  C   UNL     1     -20.942  -6.167  -6.754  1.00  0.00     0.000 C 
BRANCH   2   3
HETATM    3  C   UNL     1     -20.366  -4.777  -6.523  1.00  0.00     0.000 C 
BRANCH   3   4
HETATM    4  C   UNL     1     -21.316  -3.722  -7.070  1.00  0.00     0.000 C 
BRANCH   4   5
HETATM    5  C   UNL     1     -22.589  -4.368  -7.598  1.00  0.00     0.000 C 
BRANCH   5   6
HETATM    6  C   UNL     1     -23.003  -3.733  -8.921  1.00  0.00     0.000 C 
BRANCH   6   7
HETATM    7  C   UNL     1     -22.722  -4.681 -10.082  1.00  0.00    -0.000 C 
BRANCH   7   8
HETATM    8  C   UNL     1     -21.711  -4.079 -11.051  1.00  0.00    -0.005 C 
HETATM    9  C   UNL     1     -20.289  -4.396 -10.619  1.00  0.00     0.005 C 
ENDBRANCH   7   8
ENDBRANCH   6   7
ENDBRANCH   5   6
ENDBRANCH   4   5
ENDBRANCH   3   4
ENDBRANCH   2   3
ENDBRANCH   1   2
BRANCH   1  10
HETATM   10  C   UNL     1     -21.905  -6.479  -4.474  1.00  0.00     0.000 C 
BRANCH  10  11
HETATM   11  C   UNL     1     -21.234  -6.207  -3.140  1.00  0.00     0.000 C 
BRANCH  11  12
HETATM   12  C   UNL     1     -22.257  -6.137  -2.011  1.00  0.00     0.002 C 
BRANCH  12  13
HETATM   13  C   UNL     1     -22.055  -7.326  -1.084  1.00  0.00     0.036 C 
BRANCH  13  14
HETATM   14  C   UNL     1     -20.702  -7.987  -1.303  1.00  0.00     0.311 C 
BRANCH  14  15
HETATM   15  N   UNL     1     -20.755  -9.492  -1.507  1.00  0.00     0.005 N 
HETATM   16  C   UNL     1     -21.984  -9.891  -2.273  1.00  0.00     0.355 C 
HETATM   17  C   UNL     1     -19.526  -9.985  -2.220  1.00  0.00     0.355 C 
HETATM   18  O   UNL     1     -20.804 -10.091  -0.266  1.00  0.00    -0.065 OA
ENDBRANCH  14  15
ENDBRANCH  13  14
ENDBRANCH  12  13
ENDBRANCH  11  12
ENDBRANCH  10  11
ENDBRANCH   1  10
TORSDOF 13
ENDMDL
MODEL 4
REMARK VINA RESULT:      -6.1      4.639      9.741
REMARK  13 active torsions:
REMARK  status: ('A' for Active; 'I' for Inactive)
REMARK    1  A    between atoms: C_2  and  C_3 
REMARK    2  A    between atoms: C_3  and  C_4 
REMARK    3  A    between atoms: C_4  and  C_5 
REMARK    4  A    between atoms: C_5  and  C_6 
REMARK    5  A    between atoms: C_6  and  C_7 
REMARK    6  A    between atoms: C_7  and  C_8 
REMARK    7  A    between atoms: C_8  and  C_9 
REMARK    8  A    between atoms: C_9  and  C_10 
REMARK    9  A    between atoms: C_10  and  C_11 
REMARK   10  A    between atoms: C_11  and  C_12 
REMARK   11  A    between atoms: C_12  and  C_13 
REMARK   12  A    between atoms: C_13  and  C_14 
REMARK   13  A    between atoms: C_14  and  N_15 
ROOT
HETATM    1  C   UNL     1     -20.677  -6.270  -5.479  1.00  0.00     0.000 C 
ENDROOT
BRANCH   1   2
HETATM    2  C   UNL     1     -20.300  -4.798  -5.471  1.00  0.00     0.000 C 
BRANCH   2   3
HETATM    3  C   UNL     1     -20.719  -4.131  -6.773  1.00  0.00     0.000 C 
BRANCH   3   4
HETATM    4  C   UNL     1     -19.769  -4.529  -7.892  1.00  0.00     0.000 C 
BRANCH   4   5
HETATM    5  C   UNL     1     -20.358  -4.169  -9.249  1.00  0.00     0.000 C 
BRANCH   5   6
HETATM    6  C   UNL     1     -21.881  -4.240  -9.208  1.00  0.00     0.000 C 
BRANCH   6   7
HETATM    7  C   UNL     1     -22.443  -4.497 -10.602  1.00  0.00    -0.000 C 
BRANCH   7   8
HETATM    8  C   UNL     1     -21.639  -3.756 -11.664  1.00  0.00    -0.005 C 
HETATM    9  C   UNL     1     -22.556  -2.984 -12.599  1.00  0.00     0.005 C 
ENDBRANCH   7   8
ENDBRANCH   6   7
ENDBRANCH   5   6
ENDBRANCH   4   5
ENDBRANCH   3   4
ENDBRANCH   2   3
ENDBRANCH   1   2
BRANCH   1  10
HETATM   10  C   UNL     1     -21.829  -6.524  -4.517  1.00  0.00     0.000 C 
BRANCH  10  11
HETATM   11  C   UNL     1     -21.294  -6.745  -3.114  1.00  0.00     0.000 C 
BRANCH  11  12
HETATM   12  C   UNL     1     -22.216  -6.126  -2.068  1.00  0.00     0.002 C 
BRANCH  12  13
HETATM   13  C   UNL     1     -22.217  -7.002  -0.825  1.00  0.00     0.036 C 
BRANCH  13  14
HETATM   14  C   UNL     1     -21.143  -8.078  -0.894  1.00  0.00     0.311 C 
BRANCH  14  15
HETATM   15  N   UNL     1     -21.435  -9.322  -0.072  1.00  0.00     0.005 N 
HETATM   16  C   UNL     1     -22.886  -9.700  -0.160  1.00  0.00     0.355 C 
HETATM   17  C   UNL     1     -20.580 -10.477  -0.515  1.00  0.00     0.355 C 
HETATM   18  O   UNL     1     -21.139  -9.044   1.246  1.00  0.00    -0.065 OA
ENDBRANCH  14  15
ENDBRANCH  13  14
ENDBRANCH  12  13
ENDBRANCH  11  12
ENDBRANCH  10  11
ENDBRANCH   1  10
TORSDOF 13
ENDMDL
MODEL 5
REMARK VINA RESULT:      -6.1     13.259     15.241
REMARK  13 active torsions:
REMARK  status: ('A' for Active; 'I' for Inactive)
REMARK    1  A    between atoms: C_2  and  C_3 
REMARK    2  A    between atoms: C_3  and  C_4 
REMARK    3  A    between atoms: C_4  and  C_5 
REMARK    4  A    between atoms: C_5  and  C_6 
REMARK    5  A    between atoms: C_6  and  C_7 
REMARK    6  A    between atoms: C_7  and  C_8 
REMARK    7  A    between atoms: C_8  and  C_9 
REMARK    8  A    between atoms: C_9  and  C_10 
REMARK    9  A    between atoms: C_10  and  C_11 
REMARK   10  A    between atoms: C_11  and  C_12 
REMARK   11  A    between atoms: C_12  and  C_13 
REMARK   12  A    between atoms: C_13  and  C_14 
REMARK   13  A    between atoms: C_14  and  N_15 
ROOT
HETATM    1  C   UNL     1     -35.705  -2.325 -10.449  1.00  0.00     0.000 C 
ENDROOT
BRANCH   1   2
HETATM    2  C   UNL     1     -34.206  -2.091 -10.523  1.00  0.00     0.000 C 
BRANCH   2   3
HETATM    3  C   UNL     1     -33.545  -3.134 -11.413  1.00  0.00     0.000 C 
BRANCH   3   4
HETATM    4  C   UNL     1     -34.574  -3.747 -12.350  1.00  0.00     0.000 C 
BRANCH   4   5
HETATM    5  C   UNL     1     -34.555  -5.266 -12.247  1.00  0.00     0.000 C 
BRANCH   5   6
HETATM    6  C   UNL     1     -33.699  -5.712 -11.066  1.00  0.00     0.000 C 
BRANCH   6   7
HETATM    7  C   UNL     1     -34.575  -6.266  -9.948  1.00  0.00    -0.000 C 
BRANCH   7   8
HETATM    8  C   UNL     1     -34.962  -7.715 -10.219  1.00  0.00    -0.005 C 
HETATM    9  C   UNL     1     -33.836  -8.660  -9.832  1.00  0.00     0.005 C 
ENDBRANCH   7   8
ENDBRANCH   6   7
ENDBRANCH   5   6
ENDBRANCH   4   5
ENDBRANCH   3   4
ENDBRANCH   2   3
ENDBRANCH   1   2
BRANCH   1  10
HETATM   10  C   UNL     1     -36.399  -1.110  -9.849  1.00  0.00     0.000 C 
BRANCH  10  11
HETATM   11  C   UNL     1     -36.543  -0.023 -10.900  1.00  0.00     0.000 C 
BRANCH  11  12
HETATM   12  C   UNL     1     -37.936  -0.037 -11.520  1.00  0.00     0.002 C 
BRANCH  12  13
HETATM   13  C   UNL     1     -37.812  -0.292 -13.014  1.00  0.00     0.036 C 
BRANCH  13  14
HETATM   14  C   UNL     1     -36.357  -0.342 -13.459  1.00  0.00     0.311 C 
BRANCH  14  15
HETATM   15  N   UNL     1     -36.143  -0.185 -14.954  1.00  0.00     0.005 N 
HETATM   16  C   UNL     1     -37.452  -0.181 -15.691  1.00  0.00     0.355 C 
HETATM   17  C   UNL     1     -35.379   1.073 -15.263  1.00  0.00     0.355 C 
HETATM   18  O   UNL     1     -35.401  -1.261 -15.396  1.00  0.00    -0.065 OA
ENDBRANCH  14  15
ENDBRANCH  13  14
ENDBRANCH  12  13
ENDBRANCH  11  12
ENDBRANCH  10  11
ENDBRANCH   1  10
TORSDOF 13
ENDMDL
MODEL 6
REMARK VINA RESULT:      -6.0      4.272      9.245
REMARK  13 active torsions:
REMARK  status: ('A' for Active; 'I' for Inactive)
REMARK    1  A    between atoms: C_2  and  C_3 
REMARK    2  A    between atoms: C_3  and  C_4 
REMARK    3  A    between atoms: C_4  and  C_5 
REMARK    4  A    between atoms: C_5  and  C_6 
REMARK    5  A    between atoms: C_6  and  C_7 
REMARK    6  A    between atoms: C_7  and  C_8 
REMARK    7  A    between atoms: C_8  and  C_9 
REMARK    8  A    between atoms: C_9  and  C_10 
REMARK    9  A    between atoms: C_10  and  C_11 
REMARK   10  A    between atoms: C_11  and  C_12 
REMARK   11  A    between atoms: C_12  and  C_13 
REMARK   12  A    between atoms: C_13  and  C_14 
REMARK   13  A    between atoms: C_14  and  N_15 
ROOT
HETATM    1  C   UNL     1     -21.609  -6.121  -5.764  1.00  0.00     0.000 C 
ENDROOT
BRANCH   1   2
HETATM    2  C   UNL     1     -21.132  -5.871  -7.185  1.00  0.00     0.000 C 
BRANCH   2   3
HETATM    3  C   UNL     1     -20.915  -4.384  -7.423  1.00  0.00     0.000 C 
BRANCH   3   4
HETATM    4  C   UNL     1     -19.793  -4.175  -8.429  1.00  0.00     0.000 C 
BRANCH   4   5
HETATM    5  C   UNL     1     -20.276  -4.474  -9.841  1.00  0.00     0.000 C 
BRANCH   5   6
HETATM    6  C   UNL     1     -21.577  -3.733 -10.131  1.00  0.00     0.000 C 
BRANCH   6   7
HETATM    7  C   UNL     1     -22.457  -4.543 -11.077  1.00  0.00    -0.000 C 
BRANCH   7   8
HETATM    8  C   UNL     1     -23.849  -4.749 -10.492  1.00  0.00    -0.005 C 
HETATM    9  C   UNL     1     -24.084  -3.823  -9.309  1.00  0.00     0.005 C 
ENDBRANCH   7   8
ENDBRANCH   6   7
ENDBRANCH   5   6
ENDBRANCH   4   5
ENDBRANCH   3   4
ENDBRANCH   2   3
ENDBRANCH   1   2
BRANCH   1  10
HETATM   10  C   UNL     1     -21.015  -7.417  -5.230  1.00  0.00     0.000 C 
BRANCH  10  11
HETATM   11  C   UNL     1     -21.170  -7.475  -3.721  1.00  0.00     0.000 C 
BRANCH  11  12
HETATM   12  C   UNL     1     -21.859  -6.224  -3.188  1.00  0.00     0.002 C 
BRANCH  12  13
HETATM   13  C   UNL     1     -22.181  -6.423  -1.715  1.00  0.00     0.036 C 
BRANCH  13  14
HETATM   14  C   UNL     1     -21.519  -7.675  -1.158  1.00  0.00     0.311 C 
BRANCH  14  15
HETATM   15  N   UNL     1     -22.289  -8.359  -0.042  1.00  0.00     0.005 N 
HETATM   16  C   UNL     1     -22.776  -9.714  -0.472  1.00  0.00     0.355 C 
HETATM   17  C   UNL     1     -21.447  -8.490   1.197  1.00  0.00     0.355 C 
HETATM   18  O   UNL     1     -23.386  -7.581   0.261  1.00  0.00    -0.065 OA
ENDBRANCH  14  15
ENDBRANCH  13  14
ENDBRANCH  12  13
ENDBRANCH  11  12
ENDBRANCH  10  11
ENDBRANCH   1  10
TORSDOF 13
ENDMDL
MODEL 7
REMARK VINA RESULT:      -5.8      3.947      8.937
REMARK  13 active torsions:
REMARK  status: ('A' for Active; 'I' for Inactive)
REMARK    1  A    between atoms: C_2  and  C_3 
REMARK    2  A    between atoms: C_3  and  C_4 
REMARK    3  A    between atoms: C_4  and  C_5 
REMARK    4  A    between atoms: C_5  and  C_6 
REMARK    5  A    between atoms: C_6  and  C_7 
REMARK    6  A    between atoms: C_7  and  C_8 
REMARK    7  A    between atoms: C_8  and  C_9 
REMARK    8  A    between atoms: C_9  and  C_10 
REMARK    9  A    between atoms: C_10  and  C_11 
REMARK   10  A    between atoms: C_11  and  C_12 
REMARK   11  A    between atoms: C_12  and  C_13 
REMARK   12  A    between atoms: C_13  and  C_14 
REMARK   13  A    between atoms: C_14  and  N_15 
ROOT
HETATM    1  C   UNL     1     -21.709  -4.205  -7.104  1.00  0.00     0.000 C 
ENDROOT
BRANCH   1   2
HETATM    2  C   UNL     1     -21.820  -3.823  -8.570  1.00  0.00     0.000 C 
BRANCH   2   3
HETATM    3  C   UNL     1     -20.765  -4.547  -9.394  1.00  0.00     0.000 C 
BRANCH   3   4
HETATM    4  C   UNL     1     -20.345  -3.686 -10.576  1.00  0.00     0.000 C 
BRANCH   4   5
HETATM    5  C   UNL     1     -21.564  -3.199 -11.345  1.00  0.00     0.000 C 
BRANCH   5   6
HETATM    6  C   UNL     1     -22.207  -4.348 -12.115  1.00  0.00     0.000 C 
BRANCH   6   7
HETATM    7  C   UNL     1     -23.650  -4.553 -11.667  1.00  0.00    -0.000 C 
BRANCH   7   8
HETATM    8  C   UNL     1     -24.296  -3.230 -11.272  1.00  0.00    -0.005 C 
HETATM    9  C   UNL     1     -24.977  -3.341  -9.918  1.00  0.00     0.005 C 
ENDBRANCH   7   8
ENDBRANCH   6   7
ENDBRANCH   5   6
ENDBRANCH   4   5
ENDBRANCH   3   4
ENDBRANCH   2   3
ENDBRANCH   1   2
BRANCH   1  10
HETATM   10  C   UNL     1     -20.246  -4.336  -6.704  1.00  0.00     0.000 C 
BRANCH  10  11
HETATM   11  C   UNL     1     -20.139  -4.930  -5.311  1.00  0.00     0.000 C 
BRANCH  11  12
HETATM   12  C   UNL     1     -21.298  -5.880  -5.026  1.00  0.00     0.002 C 
BRANCH  12  13
HETATM   13  C   UNL     1     -21.373  -6.137  -3.529  1.00  0.00     0.036 C 
BRANCH  13  14
HETATM   14  C   UNL     1     -21.653  -7.601  -3.222  1.00  0.00     0.311 C 
BRANCH  14  15
HETATM   15  N   UNL     1     -21.526  -7.979  -1.756  1.00  0.00     0.005 N 
HETATM   16  C   UNL     1     -22.333  -7.057  -0.887  1.00  0.00     0.355 C 
HETATM   17  C   UNL     1     -21.953  -9.402  -1.524  1.00  0.00     0.355 C 
HETATM   18  O   UNL     1     -20.200  -7.862  -1.397  1.00  0.00    -0.065 OA
ENDBRANCH  14  15
ENDBRANCH  13  14
ENDBRANCH  12  13
ENDBRANCH  11  12
ENDBRANCH  10  11
ENDBRANCH   1  10
TORSDOF 13
ENDMDL
MODEL 8
REMARK VINA RESULT:      -5.8      4.713      9.606
REMARK  13 active torsions:
REMARK  status: ('A' for Active; 'I' for Inactive)
REMARK    1  A    between atoms: C_2  and  C_3 
REMARK    2  A    between atoms: C_3  and  C_4 
REMARK    3  A    between atoms: C_4  and  C_5 
REMARK    4  A    between atoms: C_5  and  C_6 
REMARK    5  A    between atoms: C_6  and  C_7 
REMARK    6  A    between atoms: C_7  and  C_8 
REMARK    7  A    between atoms: C_8  and  C_9 
REMARK    8  A    between atoms: C_9  and  C_10 
REMARK    9  A    between atoms: C_10  and  C_11 
REMARK   10  A    between atoms: C_11  and  C_12 
REMARK   11  A    between atoms: C_12  and  C_13 
REMARK   12  A    between atoms: C_13  and  C_14 
REMARK   13  A    between atoms: C_14  and  N_15 
ROOT
HETATM    1  C   UNL     1     -21.567  -7.398  -4.613  1.00  0.00     0.000 C 
ENDROOT
BRANCH   1   2
HETATM    2  C   UNL     1     -20.644  -6.848  -5.688  1.00  0.00     0.000 C 
BRANCH   2   3
HETATM    3  C   UNL     1     -20.452  -5.348  -5.513  1.00  0.00     0.000 C 
BRANCH   3   4
HETATM    4  C   UNL     1     -19.814  -4.755  -6.760  1.00  0.00     0.000 C 
BRANCH   4   5
HETATM    5  C   UNL     1     -20.803  -3.862  -7.495  1.00  0.00     0.000 C 
BRANCH   5   6
HETATM    6  C   UNL     1     -21.673  -4.688  -8.437  1.00  0.00     0.000 C 
BRANCH   6   7
HETATM    7  C   UNL     1     -22.547  -3.779  -9.295  1.00  0.00    -0.000 C 
BRANCH   7   8
HETATM    8  C   UNL     1     -22.392  -4.105 -10.775  1.00  0.00    -0.005 C 
HETATM    9  C   UNL     1     -21.304  -3.252 -11.408  1.00  0.00     0.005 C 
ENDBRANCH   7   8
ENDBRANCH   6   7
ENDBRANCH   5   6
ENDBRANCH   4   5
ENDBRANCH   3   4
ENDBRANCH   2   3
ENDBRANCH   1   2
BRANCH   1  10
HETATM   10  C   UNL     1     -21.831  -6.337  -3.554  1.00  0.00     0.000 C 
BRANCH  10  11
HETATM   11  C   UNL     1     -21.255  -6.781  -2.221  1.00  0.00     0.000 C 
BRANCH  11  12
HETATM   12  C   UNL     1     -22.324  -6.788  -1.133  1.00  0.00     0.002 C 
BRANCH  12  13
HETATM   13  C   UNL     1     -21.974  -7.847  -0.100  1.00  0.00     0.036 C 
BRANCH  13  14
HETATM   14  C   UNL     1     -23.099  -8.857   0.076  1.00  0.00     0.311 C 
BRANCH  14  15
HETATM   15  N   UNL     1     -22.743 -10.281  -0.316  1.00  0.00     0.005 N 
HETATM   16  C   UNL     1     -23.904 -11.209  -0.100  1.00  0.00     0.355 C 
HETATM   17  C   UNL     1     -22.294 -10.352  -1.749  1.00  0.00     0.355 C 
HETATM   18  O   UNL     1     -21.700 -10.697   0.485  1.00  0.00    -0.065 OA
ENDBRANCH  14  15
ENDBRANCH  13  14
ENDBRANCH  12  13
ENDBRANCH  11  12
ENDBRANCH  10  11
ENDBRANCH   1  10
TORSDOF 13
ENDMDL
MODEL 9
REMARK VINA RESULT:      -5.6      2.453      4.736
REMARK  13 active torsions:
REMARK  status: ('A' for Active; 'I' for Inactive)
REMARK    1  A    between atoms: C_2  and  C_3 
REMARK    2  A    between atoms: C_3  and  C_4 
REMARK    3  A    between atoms: C_4  and  C_5 
REMARK    4  A    between atoms: C_5  and  C_6 
REMARK    5  A    between atoms: C_6  and  C_7 
REMARK    6  A    between atoms: C_7  and  C_8 
REMARK    7  A    between atoms: C_8  and  C_9 
REMARK    8  A    between atoms: C_9  and  C_10 
REMARK    9  A    between atoms: C_10  and  C_11 
REMARK   10  A    between atoms: C_11  and  C_12 
REMARK   11  A    between atoms: C_12  and  C_13 
REMARK   12  A    between atoms: C_13  and  C_14 
REMARK   13  A    between atoms: C_14  and  N_15 
ROOT
HETATM    1  C   UNL     1     -21.135  -7.084  -2.217  1.00  0.00     0.000 C 
ENDROOT
BRANCH   1   2
HETATM    2  C   UNL     1     -22.179  -6.961  -1.119  1.00  0.00     0.000 C 
BRANCH   2   3
HETATM    3  C   UNL     1     -21.989  -8.051  -0.075  1.00  0.00     0.000 C 
BRANCH   3   4
HETATM    4  C   UNL     1     -23.330  -8.428   0.536  1.00  0.00     0.000 C 
BRANCH   4   5
HETATM    5  C   UNL     1     -23.706  -9.856   0.164  1.00  0.00     0.000 C 
BRANCH   5   6
HETATM    6  C   UNL     1     -22.650 -10.468  -0.749  1.00  0.00     0.000 C 
BRANCH   6   7
HETATM    7  C   UNL     1     -23.305 -11.147  -1.948  1.00  0.00    -0.000 C 
BRANCH   7   8
HETATM    8  C   UNL     1     -22.491 -10.925  -3.217  1.00  0.00    -0.005 C 
HETATM    9  C   UNL     1     -21.023 -10.705  -2.891  1.00  0.00     0.005 C 
ENDBRANCH   7   8
ENDBRANCH   6   7
ENDBRANCH   5   6
ENDBRANCH   4   5
ENDBRANCH   3   4
ENDBRANCH   2   3
ENDBRANCH   1   2
BRANCH   1  10
HETATM   10  C   UNL     1     -21.653  -6.465  -3.507  1.00  0.00     0.000 C 
BRANCH  10  11
HETATM   11  C   UNL     1     -21.957  -7.554  -4.520  1.00  0.00     0.000 C 
BRANCH  11  12
HETATM   12  C   UNL     1     -21.192  -7.327  -5.820  1.00  0.00     0.002 C 
BRANCH  12  13
HETATM   13  C   UNL     1     -21.396  -5.890  -6.273  1.00  0.00     0.036 C 
BRANCH  13  14
HETATM   14  C   UNL     1     -20.834  -5.653  -7.667  1.00  0.00     0.311 C 
BRANCH  14  15
HETATM   15  N   UNL     1     -21.229  -4.328  -8.296  1.00  0.00     0.005 N 
HETATM   16  C   UNL     1     -20.453  -4.074  -9.557  1.00  0.00     0.355 C 
HETATM   17  C   UNL     1     -22.704  -4.285  -8.587  1.00  0.00     0.355 C 
HETATM   18  O   UNL     1     -20.936  -3.324  -7.397  1.00  0.00    -0.065 OA
ENDBRANCH  14  15
ENDBRANCH  13  14
ENDBRANCH  12  13
ENDBRANCH  11  12
ENDBRANCH  10  11
ENDBRANCH   1  10
TORSDOF 13
ENDMDL
