MODEL 1
REMARK VINA RESULT:      -9.8      0.000      0.000
REMARK  1 active torsions:
REMARK  status: ('A' for Active; 'I' for Inactive)
REMARK    1  A    between atoms: C_5  and  O_32 
ROOT
HETATM    1  C   UNL     1     -30.395   7.550   5.221  1.00  0.00     0.018 C 
HETATM    2  C   UNL     1     -28.970   8.140   5.183  1.00  0.00     0.062 C 
HETATM    3  C   UNL     1     -28.798   9.062   6.367  1.00  0.00     0.159 C 
HETATM    4  O   UNL     1     -29.715   9.439   7.101  1.00  0.00    -0.295 OA
HETATM    5  C   UNL     1     -27.351   9.560   6.592  1.00  0.00     0.188 C 
HETATM    6  C   UNL     1     -26.921  10.316   5.337  1.00  0.00     0.045 C 
HETATM    7  C   UNL     1     -26.998   9.442   4.067  1.00  0.00     0.006 C 
HETATM    8  C   UNL     1     -28.530   8.906   3.866  1.00  0.00    -0.029 C 
HETATM    9  C   UNL     1     -28.520   7.944   2.667  1.00  0.00     0.011 C 
HETATM   10  C   UNL     1     -27.950   8.649   1.436  1.00  0.00     0.007 C 
HETATM   11  C   UNL     1     -26.441   8.942   1.650  1.00  0.00     0.003 C 
HETATM   12  C   UNL     1     -26.219  10.029   2.772  1.00  0.00    -0.035 C 
HETATM   13  C   UNL     1     -24.654  10.055   2.805  1.00  0.00     0.011 C 
HETATM   14  C   UNL     1     -24.026  10.600   1.419  1.00  0.00     0.011 C 
HETATM   15  C   UNL     1     -23.946   9.412   0.402  1.00  0.00    -0.032 C 
HETATM   16  C   UNL     1     -25.601   9.032   0.303  1.00  0.00    -0.032 C 
HETATM   17  C   UNL     1     -25.773   7.656  -0.396  1.00  0.00     0.011 C 
HETATM   18  C   UNL     1     -25.221   7.617  -1.795  1.00  0.00     0.010 C 
HETATM   19  C   UNL     1     -23.726   7.933  -1.817  1.00  0.00    -0.040 C 
HETATM   20  C   UNL     1     -23.483   9.407  -1.173  1.00  0.00     0.003 C 
HETATM   21  C   UNL     1     -22.155  10.000  -1.792  1.00  0.00     0.015 C 
HETATM   22  C   UNL     1     -22.272  10.131  -3.411  1.00  0.00    -0.047 C 
HETATM   23  C   UNL     1     -23.446   9.260  -3.919  1.00  0.00     0.009 C 
HETATM   24  C   UNL     1     -23.306   7.885  -3.294  1.00  0.00     0.010 C 
HETATM   25  C   UNL     1     -21.037   9.618  -4.191  1.00  0.00     0.015 C 
HETATM   26  C   UNL     1     -22.495  11.595  -3.870  1.00  0.00     0.015 C 
HETATM   27  C   UNL     1     -23.027   6.719  -1.148  1.00  0.00     0.015 C 
HETATM   28  C   UNL     1     -26.395  10.110  -0.554  1.00  0.00     0.016 C 
HETATM   29  C   UNL     1     -22.727   8.693   1.092  1.00  0.00     0.016 C 
HETATM   30  C   UNL     1     -26.557  11.537   2.672  1.00  0.00     0.016 C 
HETATM   31  C   UNL     1     -29.637   9.959   3.547  1.00  0.00     0.016 C 
ENDROOT
BRANCH   5  32
HETATM   32  O   UNL     1     -26.460   8.497   6.913  1.00  0.00    -0.388 OA
HETATM   33  H   UNL     1     -25.606   8.853   7.206  1.00  0.00     0.210 HD
ENDBRANCH   5  32
TORSDOF 1
ENDMDL
MODEL 2
REMARK VINA RESULT:      -9.5     20.233     24.144
REMARK  1 active torsions:
REMARK  status: ('A' for Active; 'I' for Inactive)
REMARK    1  A    between atoms: C_5  and  O_32 
ROOT
HETATM    1  C   UNL     1     -14.897 -16.265  -6.404  1.00  0.00     0.018 C 
HETATM    2  C   UNL     1     -14.943 -14.741  -6.169  1.00  0.00     0.062 C 
HETATM    3  C   UNL     1     -13.548 -14.185  -6.340  1.00  0.00     0.159 C 
HETATM    4  O   UNL     1     -12.526 -14.871  -6.431  1.00  0.00    -0.295 OA
HETATM    5  C   UNL     1     -13.467 -12.641  -6.353  1.00  0.00     0.188 C 
HETATM    6  C   UNL     1     -14.017 -12.136  -5.021  1.00  0.00     0.045 C 
HETATM    7  C   UNL     1     -15.470 -12.597  -4.772  1.00  0.00     0.006 C 
HETATM    8  C   UNL     1     -15.535 -14.231  -4.790  1.00  0.00    -0.029 C 
HETATM    9  C   UNL     1     -17.015 -14.626  -4.666  1.00  0.00     0.011 C 
HETATM   10  C   UNL     1     -17.619 -14.002  -3.408  1.00  0.00     0.007 C 
HETATM   11  C   UNL     1     -17.692 -12.460  -3.569  1.00  0.00     0.003 C 
HETATM   12  C   UNL     1     -16.253 -11.815  -3.587  1.00  0.00    -0.035 C 
HETATM   13  C   UNL     1     -16.640 -10.317  -3.826  1.00  0.00     0.011 C 
HETATM   14  C   UNL     1     -17.474  -9.699  -2.586  1.00  0.00     0.011 C 
HETATM   15  C   UNL     1     -18.983 -10.077  -2.758  1.00  0.00    -0.032 C 
HETATM   16  C   UNL     1     -18.842 -11.772  -2.715  1.00  0.00    -0.032 C 
HETATM   17  C   UNL     1     -20.171 -12.413  -3.200  1.00  0.00     0.011 C 
HETATM   18  C   UNL     1     -21.363 -12.041  -2.359  1.00  0.00     0.010 C 
HETATM   19  C   UNL     1     -21.588 -10.530  -2.342  1.00  0.00    -0.040 C 
HETATM   20  C   UNL     1     -20.256  -9.799  -1.760  1.00  0.00     0.003 C 
HETATM   21  C   UNL     1     -20.695  -8.425  -1.112  1.00  0.00     0.015 C 
HETATM   22  C   UNL     1     -21.755  -8.662   0.100  1.00  0.00    -0.047 C 
HETATM   23  C   UNL     1     -22.352 -10.085  -0.002  1.00  0.00     0.009 C 
HETATM   24  C   UNL     1     -22.805 -10.295  -1.434  1.00  0.00     0.010 C 
HETATM   25  C   UNL     1     -22.983  -7.719   0.078  1.00  0.00     0.015 C 
HETATM   26  C   UNL     1     -21.103  -8.488   1.497  1.00  0.00     0.015 C 
HETATM   27  C   UNL     1     -22.060 -10.156  -3.773  1.00  0.00     0.015 C 
HETATM   28  C   UNL     1     -18.567 -12.295  -1.239  1.00  0.00     0.016 C 
HETATM   29  C   UNL     1     -19.270  -9.061  -3.927  1.00  0.00     0.016 C 
HETATM   30  C   UNL     1     -15.281 -11.701  -2.386  1.00  0.00     0.016 C 
HETATM   31  C   UNL     1     -14.799 -15.004  -3.652  1.00  0.00     0.016 C 
ENDROOT
BRANCH   5  32
HETATM   32  O   UNL     1     -14.148 -12.075  -7.468  1.00  0.00    -0.388 OA
HETATM   33  H   UNL     1     -15.092 -11.976  -7.267  1.00  0.00     0.210 HD
ENDBRANCH   5  32
TORSDOF 1
ENDMDL
MODEL 3
REMARK VINA RESULT:      -8.6     20.212     24.047
REMARK  1 active torsions:
REMARK  status: ('A' for Active; 'I' for Inactive)
REMARK    1  A    between atoms: C_5  and  O_32 
ROOT
HETATM    1  C   UNL     1     -13.435 -15.722  -2.067  1.00  0.00     0.018 C 
HETATM    2  C   UNL     1     -14.281 -15.333  -3.297  1.00  0.00     0.062 C 
HETATM    3  C   UNL     1     -13.579 -15.827  -4.541  1.00  0.00     0.159 C 
HETATM    4  O   UNL     1     -12.426 -16.265  -4.568  1.00  0.00    -0.295 OA
HETATM    5  C   UNL     1     -14.410 -15.709  -5.840  1.00  0.00     0.188 C 
HETATM    6  C   UNL     1     -14.746 -14.233  -6.042  1.00  0.00     0.045 C 
HETATM    7  C   UNL     1     -15.526 -13.639  -4.849  1.00  0.00     0.006 C 
HETATM    8  C   UNL     1     -14.641 -13.800  -3.484  1.00  0.00    -0.029 C 
HETATM    9  C   UNL     1     -15.514 -13.311  -2.317  1.00  0.00     0.011 C 
HETATM   10  C   UNL     1     -15.982 -11.879  -2.580  1.00  0.00     0.007 C 
HETATM   11  C   UNL     1     -16.971 -11.860  -3.775  1.00  0.00     0.003 C 
HETATM   12  C   UNL     1     -16.242 -12.212  -5.130  1.00  0.00    -0.035 C 
HETATM   13  C   UNL     1     -17.469 -12.184  -6.101  1.00  0.00     0.011 C 
HETATM   14  C   UNL     1     -18.115 -10.707  -6.224  1.00  0.00     0.011 C 
HETATM   15  C   UNL     1     -19.104 -10.490  -5.030  1.00  0.00    -0.032 C 
HETATM   16  C   UNL     1     -18.009 -10.657  -3.740  1.00  0.00    -0.032 C 
HETATM   17  C   UNL     1     -18.797 -10.816  -2.411  1.00  0.00     0.011 C 
HETATM   18  C   UNL     1     -19.688  -9.646  -2.094  1.00  0.00     0.010 C 
HETATM   19  C   UNL     1     -20.725  -9.417  -3.191  1.00  0.00    -0.040 C 
HETATM   20  C   UNL     1     -19.960  -9.157  -4.603  1.00  0.00     0.003 C 
HETATM   21  C   UNL     1     -20.905  -8.280  -5.519  1.00  0.00     0.015 C 
HETATM   22  C   UNL     1     -21.240  -6.851  -4.814  1.00  0.00    -0.047 C 
HETATM   23  C   UNL     1     -20.908  -6.924  -3.305  1.00  0.00     0.009 C 
HETATM   24  C   UNL     1     -21.539  -8.189  -2.754  1.00  0.00     0.010 C 
HETATM   25  C   UNL     1     -22.732  -6.439  -4.868  1.00  0.00     0.015 C 
HETATM   26  C   UNL     1     -20.445  -5.679  -5.448  1.00  0.00     0.015 C 
HETATM   27  C   UNL     1     -21.707 -10.617  -3.102  1.00  0.00     0.015 C 
HETATM   28  C   UNL     1     -17.080  -9.375  -3.597  1.00  0.00     0.016 C 
HETATM   29  C   UNL     1     -20.239 -11.427  -5.592  1.00  0.00     0.016 C 
HETATM   30  C   UNL     1     -15.224 -11.322  -5.884  1.00  0.00     0.016 C 
HETATM   31  C   UNL     1     -13.310 -12.993  -3.376  1.00  0.00     0.016 C 
ENDROOT
BRANCH   5  32
HETATM   32  O   UNL     1     -15.572 -16.529  -5.813  1.00  0.00    -0.388 OA
HETATM   33  H   UNL     1     -16.371 -15.979  -5.848  1.00  0.00     0.210 HD
ENDBRANCH   5  32
TORSDOF 1
ENDMDL
MODEL 4
REMARK VINA RESULT:      -8.5     19.464     22.548
REMARK  1 active torsions:
REMARK  status: ('A' for Active; 'I' for Inactive)
REMARK    1  A    between atoms: C_5  and  O_32 
ROOT
HETATM    1  C   UNL     1     -22.431  -6.926  -1.036  1.00  0.00     0.018 C 
HETATM    2  C   UNL     1     -22.267  -8.450  -1.207  1.00  0.00     0.062 C 
HETATM    3  C   UNL     1     -23.125  -9.146  -0.176  1.00  0.00     0.159 C 
HETATM    4  O   UNL     1     -23.679  -8.583   0.771  1.00  0.00    -0.295 OA
HETATM    5  C   UNL     1     -23.240 -10.678  -0.360  1.00  0.00     0.188 C 
HETATM    6  C   UNL     1     -21.832 -11.262  -0.275  1.00  0.00     0.045 C 
HETATM    7  C   UNL     1     -20.880 -10.662  -1.334  1.00  0.00     0.006 C 
HETATM    8  C   UNL     1     -20.797  -9.041  -1.136  1.00  0.00    -0.029 C 
HETATM    9  C   UNL     1     -19.943  -8.488  -2.288  1.00  0.00     0.011 C 
HETATM   10  C   UNL     1     -18.578  -9.175  -2.304  1.00  0.00     0.007 C 
HETATM   11  C   UNL     1     -18.746 -10.668  -2.692  1.00  0.00     0.003 C 
HETATM   12  C   UNL     1     -19.497 -11.475  -1.563  1.00  0.00    -0.035 C 
HETATM   13  C   UNL     1     -19.575 -12.878  -2.253  1.00  0.00     0.011 C 
HETATM   14  C   UNL     1     -18.112 -13.529  -2.474  1.00  0.00     0.011 C 
HETATM   15  C   UNL     1     -17.502 -12.956  -3.797  1.00  0.00    -0.032 C 
HETATM   16  C   UNL     1     -17.465 -11.307  -3.383  1.00  0.00    -0.032 C 
HETATM   17  C   UNL     1     -17.205 -10.460  -4.659  1.00  0.00     0.011 C 
HETATM   18  C   UNL     1     -15.902 -10.780  -5.341  1.00  0.00     0.010 C 
HETATM   19  C   UNL     1     -15.839 -12.245  -5.769  1.00  0.00    -0.040 C 
HETATM   20  C   UNL     1     -16.018 -13.192  -4.459  1.00  0.00     0.003 C 
HETATM   21  C   UNL     1     -15.296 -14.569  -4.746  1.00  0.00     0.015 C 
HETATM   22  C   UNL     1     -13.710 -14.347  -5.039  1.00  0.00    -0.047 C 
HETATM   23  C   UNL     1     -13.445 -12.860  -5.374  1.00  0.00     0.009 C 
HETATM   24  C   UNL     1     -14.459 -12.435  -6.420  1.00  0.00     0.010 C 
HETATM   25  C   UNL     1     -13.163 -15.127  -6.259  1.00  0.00     0.015 C 
HETATM   26  C   UNL     1     -12.824 -14.756  -3.832  1.00  0.00     0.015 C 
HETATM   27  C   UNL     1     -16.865 -12.393  -6.925  1.00  0.00     0.015 C 
HETATM   28  C   UNL     1     -16.296 -10.993  -2.352  1.00  0.00     0.016 C 
HETATM   29  C   UNL     1     -18.418 -13.790  -4.770  1.00  0.00     0.016 C 
HETATM   30  C   UNL     1     -18.937 -11.841  -0.167  1.00  0.00     0.016 C 
HETATM   31  C   UNL     1     -20.138  -8.497   0.170  1.00  0.00     0.016 C 
ENDROOT
BRANCH   5  32
HETATM   32  O   UNL     1     -23.896 -11.026  -1.574  1.00  0.00    -0.388 OA
HETATM   33  H   UNL     1     -23.784 -10.320  -2.230  1.00  0.00     0.210 HD
ENDBRANCH   5  32
TORSDOF 1
ENDMDL
MODEL 5
REMARK VINA RESULT:      -8.2     20.917     24.826
REMARK  1 active torsions:
REMARK  status: ('A' for Active; 'I' for Inactive)
REMARK    1  A    between atoms: C_5  and  O_32 
ROOT
HETATM    1  C   UNL     1     -12.585 -15.740  -4.040  1.00  0.00     0.018 C 
HETATM    2  C   UNL     1     -14.003 -15.460  -4.578  1.00  0.00     0.062 C 
HETATM    3  C   UNL     1     -13.991 -15.629  -6.080  1.00  0.00     0.159 C 
HETATM    4  O   UNL     1     -12.972 -15.752  -6.763  1.00  0.00    -0.295 OA
HETATM    5  C   UNL     1     -15.388 -15.597  -6.743  1.00  0.00     0.188 C 
HETATM    6  C   UNL     1     -16.022 -14.245  -6.425  1.00  0.00     0.045 C 
HETATM    7  C   UNL     1     -16.142 -13.994  -4.906  1.00  0.00     0.006 C 
HETATM    8  C   UNL     1     -14.657 -14.060  -4.224  1.00  0.00    -0.029 C 
HETATM    9  C   UNL     1     -14.852 -13.930  -2.704  1.00  0.00     0.011 C 
HETATM   10  C   UNL     1     -15.619 -12.648  -2.383  1.00  0.00     0.007 C 
HETATM   11  C   UNL     1     -17.077 -12.763  -2.903  1.00  0.00     0.003 C 
HETATM   12  C   UNL     1     -17.125 -12.777  -4.480  1.00  0.00    -0.035 C 
HETATM   13  C   UNL     1     -18.664 -12.968  -4.692  1.00  0.00     0.011 C 
HETATM   14  C   UNL     1     -19.513 -11.701  -4.155  1.00  0.00     0.011 C 
HETATM   15  C   UNL     1     -19.744 -11.867  -2.616  1.00  0.00    -0.032 C 
HETATM   16  C   UNL     1     -18.124 -11.876  -2.101  1.00  0.00    -0.032 C 
HETATM   17  C   UNL     1     -18.053 -12.365  -0.628  1.00  0.00     0.011 C 
HETATM   18  C   UNL     1     -18.823 -11.500   0.332  1.00  0.00     0.010 C 
HETATM   19  C   UNL     1     -20.305 -11.436  -0.035  1.00  0.00    -0.040 C 
HETATM   20  C   UNL     1     -20.455 -10.847  -1.544  1.00  0.00     0.003 C 
HETATM   21  C   UNL     1     -21.872 -10.154  -1.662  1.00  0.00     0.015 C 
HETATM   22  C   UNL     1     -22.018  -8.938  -0.590  1.00  0.00    -0.047 C 
HETATM   23  C   UNL     1     -20.933  -9.075   0.505  1.00  0.00     0.009 C 
HETATM   24  C   UNL     1     -20.957 -10.508   1.002  1.00  0.00     0.010 C 
HETATM   25  C   UNL     1     -23.358  -8.919   0.186  1.00  0.00     0.015 C 
HETATM   26  C   UNL     1     -21.886  -7.544  -1.258  1.00  0.00     0.015 C 
HETATM   27  C   UNL     1     -20.876 -12.850   0.258  1.00  0.00     0.015 C 
HETATM   28  C   UNL     1     -17.489 -10.420  -2.155  1.00  0.00     0.016 C 
HETATM   29  C   UNL     1     -20.830 -13.002  -2.739  1.00  0.00     0.016 C 
HETATM   30  C   UNL     1     -16.822 -11.585  -5.420  1.00  0.00     0.016 C 
HETATM   31  C   UNL     1     -13.627 -12.953  -4.608  1.00  0.00     0.016 C 
ENDROOT
BRANCH   5  32
HETATM   32  O   UNL     1     -16.205 -16.687  -6.330  1.00  0.00    -0.388 OA
HETATM   33  H   UNL     1     -16.369 -16.639  -5.375  1.00  0.00     0.210 HD
ENDBRANCH   5  32
TORSDOF 1
ENDMDL
MODEL 6
REMARK VINA RESULT:      -8.0     19.634     23.023
REMARK  1 active torsions:
REMARK  status: ('A' for Active; 'I' for Inactive)
REMARK    1  A    between atoms: C_5  and  O_32 
ROOT
HETATM    1  C   UNL     1     -21.615  -6.835  -1.535  1.00  0.00     0.018 C 
HETATM    2  C   UNL     1     -20.983  -7.231  -2.885  1.00  0.00     0.062 C 
HETATM    3  C   UNL     1     -21.861  -6.711  -4.000  1.00  0.00     0.159 C 
HETATM    4  O   UNL     1     -22.994  -6.249  -3.842  1.00  0.00    -0.295 OA
HETATM    5  C   UNL     1     -21.249  -6.837  -5.415  1.00  0.00     0.188 C 
HETATM    6  C   UNL     1     -20.982  -8.317  -5.674  1.00  0.00     0.045 C 
HETATM    7  C   UNL     1     -20.037  -8.939  -4.622  1.00  0.00     0.006 C 
HETATM    8  C   UNL     1     -20.692  -8.770  -3.134  1.00  0.00    -0.029 C 
HETATM    9  C   UNL     1     -19.657  -9.288  -2.122  1.00  0.00     0.011 C 
HETATM   10  C   UNL     1     -19.269 -10.727  -2.462  1.00  0.00     0.007 C 
HETATM   11  C   UNL     1     -18.482 -10.757  -3.799  1.00  0.00     0.003 C 
HETATM   12  C   UNL     1     -19.407 -10.379  -5.020  1.00  0.00    -0.035 C 
HETATM   13  C   UNL     1     -18.350 -10.424  -6.173  1.00  0.00     0.011 C 
HETATM   14  C   UNL     1     -17.765 -11.914  -6.403  1.00  0.00     0.011 C 
HETATM   15  C   UNL     1     -16.605 -12.162  -5.382  1.00  0.00    -0.032 C 
HETATM   16  C   UNL     1     -17.479 -11.983  -3.934  1.00  0.00    -0.032 C 
HETATM   17  C   UNL     1     -16.488 -11.852  -2.746  1.00  0.00     0.011 C 
HETATM   18  C   UNL     1     -15.585 -13.044  -2.579  1.00  0.00     0.010 C 
HETATM   19  C   UNL     1     -14.739 -13.285  -3.828  1.00  0.00    -0.040 C 
HETATM   20  C   UNL     1     -15.723 -13.518  -5.102  1.00  0.00     0.003 C 
HETATM   21  C   UNL     1     -14.954 -14.407  -6.160  1.00  0.00     0.015 C 
HETATM   22  C   UNL     1     -14.545 -15.849  -5.524  1.00  0.00    -0.047 C 
HETATM   23  C   UNL     1     -14.633 -15.781  -3.981  1.00  0.00     0.009 C 
HETATM   24  C   UNL     1     -13.894 -14.535  -3.530  1.00  0.00     0.010 C 
HETATM   25  C   UNL     1     -13.090 -16.293  -5.815  1.00  0.00     0.015 C 
HETATM   26  C   UNL     1     -15.457 -16.997  -6.030  1.00  0.00     0.015 C 
HETATM   27  C   UNL     1     -13.728 -12.109  -3.889  1.00  0.00     0.015 C 
HETATM   28  C   UNL     1     -18.403 -13.246  -3.653  1.00  0.00     0.016 C 
HETATM   29  C   UNL     1     -15.552 -11.245  -6.111  1.00  0.00     0.016 C 
HETATM   30  C   UNL     1     -20.552 -11.240  -5.608  1.00  0.00     0.016 C 
HETATM   31  C   UNL     1     -22.008  -9.549  -2.821  1.00  0.00     0.016 C 
ENDROOT
BRANCH   5  32
HETATM   32  O   UNL     1     -20.078  -6.042  -5.567  1.00  0.00    -0.388 OA
HETATM   33  H   UNL     1     -19.695  -5.840  -4.699  1.00  0.00     0.210 HD
ENDBRANCH   5  32
TORSDOF 1
ENDMDL
MODEL 7
REMARK VINA RESULT:      -7.7     20.605     24.150
REMARK  1 active torsions:
REMARK  status: ('A' for Active; 'I' for Inactive)
REMARK    1  A    between atoms: C_5  and  O_32 
ROOT
HETATM    1  C   UNL     1     -17.991 -12.019  -7.024  1.00  0.00     0.018 C 
HETATM    2  C   UNL     1     -18.772 -11.286  -5.914  1.00  0.00     0.062 C 
HETATM    3  C   UNL     1     -18.244  -9.874  -5.804  1.00  0.00     0.159 C 
HETATM    4  O   UNL     1     -17.220  -9.464  -6.357  1.00  0.00    -0.295 OA
HETATM    5  C   UNL     1     -19.074  -8.945  -4.887  1.00  0.00     0.188 C 
HETATM    6  C   UNL     1     -19.078  -9.558  -3.489  1.00  0.00     0.045 C 
HETATM    7  C   UNL     1     -19.662 -10.987  -3.474  1.00  0.00     0.006 C 
HETATM    8  C   UNL     1     -18.786 -11.944  -4.471  1.00  0.00    -0.029 C 
HETATM    9  C   UNL     1     -19.484 -13.312  -4.515  1.00  0.00     0.011 C 
HETATM   10  C   UNL     1     -19.628 -13.870  -3.099  1.00  0.00     0.007 C 
HETATM   11  C   UNL     1     -20.631 -13.003  -2.291  1.00  0.00     0.003 C 
HETATM   12  C   UNL     1     -20.049 -11.564  -2.010  1.00  0.00    -0.035 C 
HETATM   13  C   UNL     1     -21.273 -10.927  -1.270  1.00  0.00     0.011 C 
HETATM   14  C   UNL     1     -21.575 -11.654   0.142  1.00  0.00     0.011 C 
HETATM   15  C   UNL     1     -22.447 -12.927  -0.124  1.00  0.00    -0.032 C 
HETATM   16  C   UNL     1     -21.371 -13.786  -1.122  1.00  0.00    -0.032 C 
HETATM   17  C   UNL     1     -22.125 -14.957  -1.808  1.00  0.00     0.011 C 
HETATM   18  C   UNL     1     -22.719 -15.942  -0.838  1.00  0.00     0.010 C 
HETATM   19  C   UNL     1     -23.718 -15.270   0.102  1.00  0.00    -0.040 C 
HETATM   20  C   UNL     1     -22.966 -14.082   0.920  1.00  0.00     0.003 C 
HETATM   21  C   UNL     1     -23.723 -13.876   2.293  1.00  0.00     0.015 C 
HETATM   22  C   UNL     1     -23.703 -15.239   3.182  1.00  0.00    -0.047 C 
HETATM   23  C   UNL     1     -23.342 -16.443   2.281  1.00  0.00     0.009 C 
HETATM   24  C   UNL     1     -24.220 -16.376   1.045  1.00  0.00     0.010 C 
HETATM   25  C   UNL     1     -25.065 -15.618   3.813  1.00  0.00     0.015 C 
HETATM   26  C   UNL     1     -22.690 -15.165   4.354  1.00  0.00     0.015 C 
HETATM   27  C   UNL     1     -24.940 -14.892  -0.778  1.00  0.00     0.015 C 
HETATM   28  C   UNL     1     -20.173 -14.410  -0.284  1.00  0.00     0.016 C 
HETATM   29  C   UNL     1     -23.782 -12.146  -0.421  1.00  0.00     0.016 C 
HETATM   30  C   UNL     1     -18.885 -11.214  -1.050  1.00  0.00     0.016 C 
HETATM   31  C   UNL     1     -17.304 -12.243  -4.081  1.00  0.00     0.016 C 
ENDROOT
BRANCH   5  32
HETATM   32  O   UNL     1     -20.389  -8.730  -5.387  1.00  0.00    -0.388 OA
HETATM   33  H   UNL     1     -20.706  -9.523  -5.847  1.00  0.00     0.210 HD
ENDBRANCH   5  32
TORSDOF 1
ENDMDL
MODEL 8
REMARK VINA RESULT:      -7.5      5.142      8.147
REMARK  1 active torsions:
REMARK  status: ('A' for Active; 'I' for Inactive)
REMARK    1  A    between atoms: C_5  and  O_32 
ROOT
HETATM    1  C   UNL     1     -24.212  10.103  -3.719  1.00  0.00     0.018 C 
HETATM    2  C   UNL     1     -23.872   9.330  -2.428  1.00  0.00     0.062 C 
HETATM    3  C   UNL     1     -25.080   8.517  -2.022  1.00  0.00     0.159 C 
HETATM    4  O   UNL     1     -26.202   8.633  -2.519  1.00  0.00    -0.295 OA
HETATM    5  C   UNL     1     -24.825   7.516  -0.870  1.00  0.00     0.188 C 
HETATM    6  C   UNL     1     -24.363   8.317   0.345  1.00  0.00     0.045 C 
HETATM    7  C   UNL     1     -23.090   9.142   0.058  1.00  0.00     0.006 C 
HETATM    8  C   UNL     1     -23.375  10.172  -1.180  1.00  0.00    -0.029 C 
HETATM    9  C   UNL     1     -22.045  10.871  -1.503  1.00  0.00     0.011 C 
HETATM   10  C   UNL     1     -21.496  11.554  -0.250  1.00  0.00     0.007 C 
HETATM   11  C   UNL     1     -21.073  10.484   0.790  1.00  0.00     0.003 C 
HETATM   12  C   UNL     1     -22.325   9.716   1.367  1.00  0.00    -0.035 C 
HETATM   13  C   UNL     1     -21.597   8.692   2.301  1.00  0.00     0.011 C 
HETATM   14  C   UNL     1     -20.825   9.422   3.519  1.00  0.00     0.011 C 
HETATM   15  C   UNL     1     -19.422   9.899   3.012  1.00  0.00    -0.032 C 
HETATM   16  C   UNL     1     -19.928  10.961   1.784  1.00  0.00    -0.032 C 
HETATM   17  C   UNL     1     -18.715  11.328   0.886  1.00  0.00     0.011 C 
HETATM   18  C   UNL     1     -17.596  12.004   1.631  1.00  0.00     0.010 C 
HETATM   19  C   UNL     1     -17.056  11.121   2.755  1.00  0.00    -0.040 C 
HETATM   20  C   UNL     1     -18.266  10.769   3.784  1.00  0.00     0.003 C 
HETATM   21  C   UNL     1     -17.633  10.490   5.207  1.00  0.00     0.015 C 
HETATM   22  C   UNL     1     -16.822  11.792   5.752  1.00  0.00    -0.047 C 
HETATM   23  C   UNL     1     -16.536  12.757   4.576  1.00  0.00     0.009 C 
HETATM   24  C   UNL     1     -15.950  11.939   3.441  1.00  0.00     0.010 C 
HETATM   25  C   UNL     1     -15.429  11.481   6.351  1.00  0.00     0.015 C 
HETATM   26  C   UNL     1     -17.604  12.558   6.852  1.00  0.00     0.015 C 
HETATM   27  C   UNL     1     -16.326   9.943   2.055  1.00  0.00     0.015 C 
HETATM   28  C   UNL     1     -20.505  12.314   2.387  1.00  0.00     0.016 C 
HETATM   29  C   UNL     1     -18.770   8.465   2.979  1.00  0.00     0.016 C 
HETATM   30  C   UNL     1     -23.402  10.296   2.317  1.00  0.00     0.016 C 
HETATM   31  C   UNL     1     -24.406  11.321  -0.952  1.00  0.00     0.016 C 
ENDROOT
BRANCH   5  32
HETATM   32  O   UNL     1     -23.894   6.502  -1.233  1.00  0.00    -0.388 OA
HETATM   33  H   UNL     1     -23.772   5.881  -0.498  1.00  0.00     0.210 HD
ENDBRANCH   5  32
TORSDOF 1
ENDMDL
MODEL 9
REMARK VINA RESULT:      -7.4     19.465     22.591
REMARK  1 active torsions:
REMARK  status: ('A' for Active; 'I' for Inactive)
REMARK    1  A    between atoms: C_5  and  O_32 
ROOT
HETATM    1  C   UNL     1     -21.680  -8.288   1.424  1.00  0.00     0.018 C 
HETATM    2  C   UNL     1     -21.223  -8.219  -0.048  1.00  0.00     0.062 C 
HETATM    3  C   UNL     1     -22.232  -7.409  -0.829  1.00  0.00     0.159 C 
HETATM    4  O   UNL     1     -23.333  -7.059  -0.399  1.00  0.00    -0.295 OA
HETATM    5  C   UNL     1     -21.802  -7.064  -2.274  1.00  0.00     0.188 C 
HETATM    6  C   UNL     1     -21.575  -8.379  -3.017  1.00  0.00     0.045 C 
HETATM    7  C   UNL     1     -20.508  -9.263  -2.335  1.00  0.00     0.006 C 
HETATM    8  C   UNL     1     -20.972  -9.592  -0.801  1.00  0.00    -0.029 C 
HETATM    9  C   UNL     1     -19.820 -10.363  -0.136  1.00  0.00     0.011 C 
HETATM   10  C   UNL     1     -19.483 -11.608  -0.956  1.00  0.00     0.007 C 
HETATM   11  C   UNL     1     -18.870 -11.191  -2.319  1.00  0.00     0.003 C 
HETATM   12  C   UNL     1     -19.939 -10.484  -3.238  1.00  0.00    -0.035 C 
HETATM   13  C   UNL     1     -19.034 -10.129  -4.465  1.00  0.00     0.011 C 
HETATM   14  C   UNL     1     -18.489 -11.450  -5.221  1.00  0.00     0.011 C 
HETATM   15  C   UNL     1     -17.211 -11.963  -4.476  1.00  0.00    -0.032 C 
HETATM   16  C   UNL     1     -17.897 -12.277  -2.951  1.00  0.00    -0.032 C 
HETATM   17  C   UNL     1     -16.764 -12.489  -1.910  1.00  0.00     0.011 C 
HETATM   18  C   UNL     1     -15.852 -13.641  -2.237  1.00  0.00     0.010 C 
HETATM   19  C   UNL     1     -15.170 -13.449  -3.590  1.00  0.00    -0.040 C 
HETATM   20  C   UNL     1     -16.307 -13.306  -4.745  1.00  0.00     0.003 C 
HETATM   21  C   UNL     1     -15.680 -13.792  -6.113  1.00  0.00     0.015 C 
HETATM   22  C   UNL     1     -15.200 -15.345  -6.017  1.00  0.00    -0.047 C 
HETATM   23  C   UNL     1     -15.094 -15.766  -4.532  1.00  0.00     0.009 C 
HETATM   24  C   UNL     1     -14.300 -14.698  -3.805  1.00  0.00     0.010 C 
HETATM   25  C   UNL     1     -13.795 -15.624  -6.605  1.00  0.00     0.015 C 
HETATM   26  C   UNL     1     -16.172 -16.310  -6.746  1.00  0.00     0.015 C 
HETATM   27  C   UNL     1     -14.170 -12.277  -3.399  1.00  0.00     0.015 C 
HETATM   28  C   UNL     1     -18.783 -13.597  -2.973  1.00  0.00     0.016 C 
HETATM   29  C   UNL     1     -16.254 -10.828  -5.001  1.00  0.00     0.016 C 
HETATM   30  C   UNL     1     -21.152 -11.158  -3.925  1.00  0.00     0.016 C 
HETATM   31  C   UNL     1     -22.241 -10.476  -0.595  1.00  0.00     0.016 C 
ENDROOT
BRANCH   5  32
HETATM   32  O   UNL     1     -20.656  -6.220  -2.308  1.00  0.00    -0.388 OA
HETATM   33  H   UNL     1     -20.284  -6.125  -1.417  1.00  0.00     0.210 HD
ENDBRANCH   5  32
TORSDOF 1
ENDMDL
