MODEL 1
REMARK VINA RESULT:      -5.6      0.000      0.000
REMARK  12 active torsions:
REMARK  status: ('A' for Active; 'I' for Inactive)
REMARK    1  A    between atoms: C_2  and  O_3 
REMARK    2  A    between atoms: O_3  and  C_4 
REMARK    3  A    between atoms: C_4  and  C_6 
REMARK    4  A    between atoms: C_6  and  C_7 
REMARK    5  A    between atoms: C_7  and  C_8 
REMARK    6  A    between atoms: C_7  and  C_14 
REMARK    7  A    between atoms: C_7  and  O_19 
REMARK    8  A    between atoms: C_8  and  C_9 
REMARK    9  A    between atoms: C_9  and  O_11 
REMARK   10  A    between atoms: O_11  and  C_12 
REMARK   11  A    between atoms: C_14  and  O_16 
REMARK   12  A    between atoms: O_16  and  C_17 
ROOT
HETATM    1  C   UNL     1     -22.127  -3.325 -11.675  1.00  0.00     0.162 C 
ENDROOT
BRANCH   1   2
HETATM    2  C   UNL     1     -22.947  -2.203 -12.343  1.00  0.00     0.160 C 
BRANCH   2   3
HETATM    3  C   UNL     1     -24.127  -2.717 -13.112  1.00  0.00     0.262 C 
HETATM    4  O   UNL     1     -25.232  -2.935 -12.634  1.00  0.00    -0.265 OA
BRANCH   3   5
HETATM    5  O   UNL     1     -23.769  -2.929 -14.407  1.00  0.00    -0.322 OA
BRANCH   5   6
HETATM    6  C   UNL     1     -23.031  -1.869 -15.027  1.00  0.00     0.174 C 
HETATM    7  C   UNL     1     -24.002  -0.733 -15.282  1.00  0.00     0.034 C 
ENDBRANCH   5   6
ENDBRANCH   3   5
ENDBRANCH   2   3
ENDBRANCH   1   2
BRANCH   1   8
HETATM    8  C   UNL     1     -20.846  -2.915 -10.931  1.00  0.00     0.160 C 
BRANCH   8   9
HETATM    9  C   UNL     1     -20.125  -4.075 -10.306  1.00  0.00     0.262 C 
HETATM   10  O   UNL     1     -19.713  -5.053 -10.913  1.00  0.00    -0.265 OA
BRANCH   9  11
HETATM   11  O   UNL     1     -20.111  -3.926  -8.956  1.00  0.00    -0.322 OA
BRANCH  11  12
HETATM   12  C   UNL     1     -19.945  -5.142  -8.207  1.00  0.00     0.174 C 
HETATM   13  C   UNL     1     -19.561  -4.751  -6.792  1.00  0.00     0.034 C 
ENDBRANCH  11  12
ENDBRANCH   9  11
ENDBRANCH   8   9
ENDBRANCH   1   8
BRANCH   1  14
HETATM   14  C   UNL     1     -23.009  -4.147 -10.715  1.00  0.00     0.294 C 
HETATM   15  O   UNL     1     -23.441  -5.268 -10.961  1.00  0.00    -0.262 OA
BRANCH  14  16
HETATM   16  O   UNL     1     -23.369  -3.398  -9.636  1.00  0.00    -0.319 OA
BRANCH  16  17
HETATM   17  C   UNL     1     -24.157  -4.072  -8.650  1.00  0.00     0.174 C 
HETATM   18  C   UNL     1     -23.253  -4.370  -7.468  1.00  0.00     0.034 C 
ENDBRANCH  16  17
ENDBRANCH  14  16
ENDBRANCH   1  14
BRANCH   1  19
HETATM   19  O   UNL     1     -21.748  -4.267 -12.713  1.00  0.00    -0.379 OA
HETATM   20  H   UNL     1     -22.188  -5.122 -12.507  1.00  0.00     0.211 HD
ENDBRANCH   1  19
TORSDOF 12
ENDMDL
MODEL 2
REMARK VINA RESULT:      -5.4      5.775      8.503
REMARK  12 active torsions:
REMARK  status: ('A' for Active; 'I' for Inactive)
REMARK    1  A    between atoms: C_2  and  O_3 
REMARK    2  A    between atoms: O_3  and  C_4 
REMARK    3  A    between atoms: C_4  and  C_6 
REMARK    4  A    between atoms: C_6  and  C_7 
REMARK    5  A    between atoms: C_7  and  C_8 
REMARK    6  A    between atoms: C_7  and  C_14 
REMARK    7  A    between atoms: C_7  and  O_19 
REMARK    8  A    between atoms: C_8  and  C_9 
REMARK    9  A    between atoms: C_9  and  O_11 
REMARK   10  A    between atoms: O_11  and  C_12 
REMARK   11  A    between atoms: C_14  and  O_16 
REMARK   12  A    between atoms: O_16  and  C_17 
ROOT
HETATM    1  C   UNL     1     -21.155  -7.435  -3.768  1.00  0.00     0.162 C 
ENDROOT
BRANCH   1   2
HETATM    2  C   UNL     1     -20.795  -6.188  -4.602  1.00  0.00     0.160 C 
BRANCH   2   3
HETATM    3  C   UNL     1     -21.674  -6.014  -5.805  1.00  0.00     0.262 C 
HETATM    4  O   UNL     1     -22.805  -5.549  -5.783  1.00  0.00    -0.265 OA
BRANCH   3   5
HETATM    5  O   UNL     1     -21.029  -6.477  -6.909  1.00  0.00    -0.322 OA
BRANCH   5   6
HETATM    6  C   UNL     1     -19.808  -5.806  -7.241  1.00  0.00     0.174 C 
HETATM    7  C   UNL     1     -20.101  -4.891  -8.414  1.00  0.00     0.034 C 
ENDBRANCH   5   6
ENDBRANCH   3   5
ENDBRANCH   2   3
ENDBRANCH   1   2
BRANCH   1   8
HETATM    8  C   UNL     1     -20.011  -8.396  -3.406  1.00  0.00     0.160 C 
BRANCH   8   9
HETATM    9  C   UNL     1     -19.361  -9.023  -4.605  1.00  0.00     0.262 C 
HETATM   10  O   UNL     1     -19.947  -9.365  -5.622  1.00  0.00    -0.265 OA
BRANCH   9  11
HETATM   11  O   UNL     1     -18.050  -9.262  -4.337  1.00  0.00    -0.322 OA
BRANCH  11  12
HETATM   12  C   UNL     1     -17.733  -9.457  -2.949  1.00  0.00     0.174 C 
HETATM   13  C   UNL     1     -16.222  -9.529  -2.837  1.00  0.00     0.034 C 
ENDBRANCH  11  12
ENDBRANCH   9  11
ENDBRANCH   8   9
ENDBRANCH   1   8
BRANCH   1  14
HETATM   14  C   UNL     1     -21.886  -7.032  -2.472  1.00  0.00     0.294 C 
HETATM   15  O   UNL     1     -22.277  -5.897  -2.222  1.00  0.00    -0.262 OA
BRANCH  14  16
HETATM   16  O   UNL     1     -21.894  -8.067  -1.586  1.00  0.00    -0.319 OA
BRANCH  16  17
HETATM   17  C   UNL     1     -21.837  -7.699  -0.205  1.00  0.00     0.174 C 
HETATM   18  C   UNL     1     -23.132  -8.154   0.442  1.00  0.00     0.034 C 
ENDBRANCH  16  17
ENDBRANCH  14  16
ENDBRANCH   1  14
BRANCH   1  19
HETATM   19  O   UNL     1     -22.142  -8.192  -4.518  1.00  0.00    -0.379 OA
HETATM   20  H   UNL     1     -22.811  -8.519  -3.875  1.00  0.00     0.211 HD
ENDBRANCH   1  19
TORSDOF 12
ENDMDL
MODEL 3
REMARK VINA RESULT:      -5.2      5.812      9.889
REMARK  12 active torsions:
REMARK  status: ('A' for Active; 'I' for Inactive)
REMARK    1  A    between atoms: C_2  and  O_3 
REMARK    2  A    between atoms: O_3  and  C_4 
REMARK    3  A    between atoms: C_4  and  C_6 
REMARK    4  A    between atoms: C_6  and  C_7 
REMARK    5  A    between atoms: C_7  and  C_8 
REMARK    6  A    between atoms: C_7  and  C_14 
REMARK    7  A    between atoms: C_7  and  O_19 
REMARK    8  A    between atoms: C_8  and  C_9 
REMARK    9  A    between atoms: C_9  and  O_11 
REMARK   10  A    between atoms: O_11  and  C_12 
REMARK   11  A    between atoms: C_14  and  O_16 
REMARK   12  A    between atoms: O_16  and  C_17 
ROOT
HETATM    1  C   UNL     1     -20.734  -7.562  -4.038  1.00  0.00     0.162 C 
ENDROOT
BRANCH   1   2
HETATM    2  C   UNL     1     -20.705  -7.507  -2.497  1.00  0.00     0.160 C 
BRANCH   2   3
HETATM    3  C   UNL     1     -21.957  -6.930  -1.907  1.00  0.00     0.262 C 
HETATM    4  O   UNL     1     -22.535  -5.937  -2.328  1.00  0.00    -0.265 OA
BRANCH   3   5
HETATM    5  O   UNL     1     -22.328  -7.661  -0.822  1.00  0.00    -0.322 OA
BRANCH   5   6
HETATM    6  C   UNL     1     -22.025  -9.060  -0.886  1.00  0.00     0.174 C 
HETATM    7  C   UNL     1     -23.171  -9.800  -0.226  1.00  0.00     0.034 C 
ENDBRANCH   5   6
ENDBRANCH   3   5
ENDBRANCH   2   3
ENDBRANCH   1   2
BRANCH   1   8
HETATM    8  C   UNL     1     -20.561  -6.234  -4.794  1.00  0.00     0.160 C 
BRANCH   8   9
HETATM    9  C   UNL     1     -21.601  -6.014  -5.854  1.00  0.00     0.262 C 
HETATM   10  O   UNL     1     -22.752  -5.661  -5.643  1.00  0.00    -0.265 OA
BRANCH   9  11
HETATM   11  O   UNL     1     -21.103  -6.384  -7.063  1.00  0.00    -0.322 OA
BRANCH  11  12
HETATM   12  C   UNL     1     -19.850  -5.778  -7.421  1.00  0.00     0.174 C 
HETATM   13  C   UNL     1     -20.165  -4.486  -8.152  1.00  0.00     0.034 C 
ENDBRANCH  11  12
ENDBRANCH   9  11
ENDBRANCH   8   9
ENDBRANCH   1   8
BRANCH   1  14
HETATM   14  C   UNL     1     -19.694  -8.567  -4.568  1.00  0.00     0.294 C 
HETATM   15  O   UNL     1     -19.702  -9.040  -5.699  1.00  0.00    -0.262 OA
BRANCH  14  16
HETATM   16  O   UNL     1     -18.866  -8.974  -3.564  1.00  0.00    -0.319 OA
BRANCH  16  17
HETATM   17  C   UNL     1     -17.694  -9.681  -3.978  1.00  0.00     0.174 C 
HETATM   18  C   UNL     1     -16.652  -9.517  -2.886  1.00  0.00     0.034 C 
ENDBRANCH  16  17
ENDBRANCH  14  16
ENDBRANCH   1  14
BRANCH   1  19
HETATM   19  O   UNL     1     -22.013  -8.125  -4.431  1.00  0.00    -0.379 OA
HETATM   20  H   UNL     1     -22.691  -7.776  -3.810  1.00  0.00     0.211 HD
ENDBRANCH   1  19
TORSDOF 12
ENDMDL
MODEL 4
REMARK VINA RESULT:      -5.2      7.117     10.777
REMARK  12 active torsions:
REMARK  status: ('A' for Active; 'I' for Inactive)
REMARK    1  A    between atoms: C_2  and  O_3 
REMARK    2  A    between atoms: O_3  and  C_4 
REMARK    3  A    between atoms: C_4  and  C_6 
REMARK    4  A    between atoms: C_6  and  C_7 
REMARK    5  A    between atoms: C_7  and  C_8 
REMARK    6  A    between atoms: C_7  and  C_14 
REMARK    7  A    between atoms: C_7  and  O_19 
REMARK    8  A    between atoms: C_8  and  C_9 
REMARK    9  A    between atoms: C_9  and  O_11 
REMARK   10  A    between atoms: O_11  and  C_12 
REMARK   11  A    between atoms: C_14  and  O_16 
REMARK   12  A    between atoms: O_16  and  C_17 
ROOT
HETATM    1  C   UNL     1     -20.622  -8.718  -2.858  1.00  0.00     0.162 C 
ENDROOT
BRANCH   1   2
HETATM    2  C   UNL     1     -20.685  -7.467  -1.958  1.00  0.00     0.160 C 
BRANCH   2   3
HETATM    3  C   UNL     1     -21.930  -6.657  -2.166  1.00  0.00     0.262 C 
HETATM    4  O   UNL     1     -22.196  -6.033  -3.184  1.00  0.00    -0.265 OA
BRANCH   3   5
HETATM    5  O   UNL     1     -22.695  -6.703  -1.043  1.00  0.00    -0.322 OA
BRANCH   5   6
HETATM    6  C   UNL     1     -22.175  -7.499   0.029  1.00  0.00     0.174 C 
HETATM    7  C   UNL     1     -23.325  -8.317   0.583  1.00  0.00     0.034 C 
ENDBRANCH   5   6
ENDBRANCH   3   5
ENDBRANCH   2   3
ENDBRANCH   1   2
BRANCH   1   8
HETATM    8  C   UNL     1     -19.882  -8.586  -4.199  1.00  0.00     0.160 C 
BRANCH   8   9
HETATM    9  C   UNL     1     -20.749  -8.883  -5.388  1.00  0.00     0.262 C 
HETATM   10  O   UNL     1     -20.944  -9.997  -5.853  1.00  0.00    -0.265 OA
BRANCH   9  11
HETATM   11  O   UNL     1     -21.182  -7.718  -5.937  1.00  0.00    -0.322 OA
BRANCH  11  12
HETATM   12  C   UNL     1     -20.231  -6.641  -5.920  1.00  0.00     0.174 C 
HETATM   13  C   UNL     1     -20.448  -5.827  -7.182  1.00  0.00     0.034 C 
ENDBRANCH  11  12
ENDBRANCH   9  11
ENDBRANCH   8   9
ENDBRANCH   1   8
BRANCH   1  14
HETATM   14  C   UNL     1     -20.031  -9.915  -2.088  1.00  0.00     0.294 C 
HETATM   15  O   UNL     1     -18.876 -10.311  -2.205  1.00  0.00    -0.262 OA
BRANCH  14  16
HETATM   16  O   UNL     1     -21.005 -10.562  -1.388  1.00  0.00    -0.319 OA
BRANCH  16  17
HETATM   17  C   UNL     1     -20.544 -11.463  -0.377  1.00  0.00     0.174 C 
HETATM   18  C   UNL     1     -20.563 -10.717   0.944  1.00  0.00     0.034 C 
ENDBRANCH  16  17
ENDBRANCH  14  16
ENDBRANCH   1  14
BRANCH   1  19
HETATM   19  O   UNL     1     -21.988  -9.116  -3.150  1.00  0.00    -0.379 OA
HETATM   20  H   UNL     1     -22.559  -8.327  -3.010  1.00  0.00     0.211 HD
ENDBRANCH   1  19
TORSDOF 12
ENDMDL
MODEL 5
REMARK VINA RESULT:      -5.2      5.721      9.513
REMARK  12 active torsions:
REMARK  status: ('A' for Active; 'I' for Inactive)
REMARK    1  A    between atoms: C_2  and  O_3 
REMARK    2  A    between atoms: O_3  and  C_4 
REMARK    3  A    between atoms: C_4  and  C_6 
REMARK    4  A    between atoms: C_6  and  C_7 
REMARK    5  A    between atoms: C_7  and  C_8 
REMARK    6  A    between atoms: C_7  and  C_14 
REMARK    7  A    between atoms: C_7  and  O_19 
REMARK    8  A    between atoms: C_8  and  C_9 
REMARK    9  A    between atoms: C_9  and  O_11 
REMARK   10  A    between atoms: O_11  and  C_12 
REMARK   11  A    between atoms: C_14  and  O_16 
REMARK   12  A    between atoms: O_16  and  C_17 
ROOT
HETATM    1  C   UNL     1     -20.922  -7.214  -4.742  1.00  0.00     0.162 C 
ENDROOT
BRANCH   1   2
HETATM    2  C   UNL     1     -19.700  -7.977  -5.293  1.00  0.00     0.160 C 
BRANCH   2   3
HETATM    3  C   UNL     1     -19.778  -9.456  -5.056  1.00  0.00     0.262 C 
HETATM    4  O   UNL     1     -20.337 -10.254  -5.796  1.00  0.00    -0.265 OA
BRANCH   3   5
HETATM    5  O   UNL     1     -19.159  -9.763  -3.885  1.00  0.00    -0.322 OA
BRANCH   5   6
HETATM    6  C   UNL     1     -17.777 -10.125  -3.991  1.00  0.00     0.174 C 
HETATM    7  C   UNL     1     -17.056  -9.507  -2.809  1.00  0.00     0.034 C 
ENDBRANCH   5   6
ENDBRANCH   3   5
ENDBRANCH   2   3
ENDBRANCH   1   2
BRANCH   1   8
HETATM    8  C   UNL     1     -20.705  -6.340  -3.496  1.00  0.00     0.160 C 
BRANCH   8   9
HETATM    9  C   UNL     1     -21.691  -6.614  -2.398  1.00  0.00     0.262 C 
HETATM   10  O   UNL     1     -22.744  -6.014  -2.236  1.00  0.00    -0.265 OA
BRANCH   9  11
HETATM   11  O   UNL     1     -21.179  -7.542  -1.548  1.00  0.00    -0.322 OA
BRANCH  11  12
HETATM   12  C   UNL     1     -22.151  -8.301  -0.810  1.00  0.00     0.174 C 
HETATM   13  C   UNL     1     -21.856  -8.099   0.664  1.00  0.00     0.034 C 
ENDBRANCH  11  12
ENDBRANCH   9  11
ENDBRANCH   8   9
ENDBRANCH   1   8
BRANCH   1  14
HETATM   14  C   UNL     1     -21.566  -6.348  -5.842  1.00  0.00     0.294 C 
HETATM   15  O   UNL     1     -22.572  -5.665  -5.685  1.00  0.00    -0.262 OA
BRANCH  14  16
HETATM   16  O   UNL     1     -20.959  -6.570  -7.042  1.00  0.00    -0.319 OA
BRANCH  16  17
HETATM   17  C   UNL     1     -20.659  -5.401  -7.809  1.00  0.00     0.174 C 
HETATM   18  C   UNL     1     -19.413  -4.771  -7.213  1.00  0.00     0.034 C 
ENDBRANCH  16  17
ENDBRANCH  14  16
ENDBRANCH   1  14
BRANCH   1  19
HETATM   19  O   UNL     1     -21.940  -8.196  -4.414  1.00  0.00    -0.379 OA
HETATM   20  H   UNL     1     -22.767  -7.924  -4.871  1.00  0.00     0.211 HD
ENDBRANCH   1  19
TORSDOF 12
ENDMDL
MODEL 6
REMARK VINA RESULT:      -5.1      5.789      8.387
REMARK  12 active torsions:
REMARK  status: ('A' for Active; 'I' for Inactive)
REMARK    1  A    between atoms: C_2  and  O_3 
REMARK    2  A    between atoms: O_3  and  C_4 
REMARK    3  A    between atoms: C_4  and  C_6 
REMARK    4  A    between atoms: C_6  and  C_7 
REMARK    5  A    between atoms: C_7  and  C_8 
REMARK    6  A    between atoms: C_7  and  C_14 
REMARK    7  A    between atoms: C_7  and  O_19 
REMARK    8  A    between atoms: C_8  and  C_9 
REMARK    9  A    between atoms: C_9  and  O_11 
REMARK   10  A    between atoms: O_11  and  C_12 
REMARK   11  A    between atoms: C_14  and  O_16 
REMARK   12  A    between atoms: O_16  and  C_17 
ROOT
HETATM    1  C   UNL     1     -21.177  -7.104  -4.132  1.00  0.00     0.162 C 
ENDROOT
BRANCH   1   2
HETATM    2  C   UNL     1     -20.820  -5.824  -4.914  1.00  0.00     0.160 C 
BRANCH   2   3
HETATM    3  C   UNL     1     -21.640  -5.649  -6.158  1.00  0.00     0.262 C 
HETATM    4  O   UNL     1     -22.721  -5.079  -6.207  1.00  0.00    -0.265 OA
BRANCH   3   5
HETATM    5  O   UNL     1     -21.010  -6.244  -7.205  1.00  0.00    -0.322 OA
BRANCH   5   6
HETATM    6  C   UNL     1     -19.825  -5.587  -7.670  1.00  0.00     0.174 C 
HETATM    7  C   UNL     1     -20.226  -4.706  -8.837  1.00  0.00     0.034 C 
ENDBRANCH   5   6
ENDBRANCH   3   5
ENDBRANCH   2   3
ENDBRANCH   1   2
BRANCH   1   8
HETATM    8  C   UNL     1     -20.085  -8.177  -3.998  1.00  0.00     0.160 C 
BRANCH   8   9
HETATM    9  C   UNL     1     -20.478  -9.502  -4.585  1.00  0.00     0.262 C 
HETATM   10  O   UNL     1     -20.491  -9.763  -5.779  1.00  0.00    -0.265 OA
BRANCH   9  11
HETATM   11  O   UNL     1     -20.931 -10.319  -3.598  1.00  0.00    -0.322 OA
BRANCH  11  12
HETATM   12  C   UNL     1     -22.163 -11.002  -3.885  1.00  0.00     0.174 C 
HETATM   13  C   UNL     1     -22.941 -11.096  -2.586  1.00  0.00     0.034 C 
ENDBRANCH  11  12
ENDBRANCH   9  11
ENDBRANCH   8   9
ENDBRANCH   1   8
BRANCH   1  14
HETATM   14  C   UNL     1     -21.696  -6.755  -2.723  1.00  0.00     0.294 C 
HETATM   15  O   UNL     1     -22.471  -5.836  -2.479  1.00  0.00    -0.262 OA
BRANCH  14  16
HETATM   16  O   UNL     1     -21.056  -7.500  -1.779  1.00  0.00    -0.319 OA
BRANCH  16  17
HETATM   17  C   UNL     1     -21.825  -7.816  -0.615  1.00  0.00     0.174 C 
HETATM   18  C   UNL     1     -21.194  -9.034   0.033  1.00  0.00     0.034 C 
ENDBRANCH  16  17
ENDBRANCH  14  16
ENDBRANCH   1  14
BRANCH   1  19
HETATM   19  O   UNL     1     -22.314  -7.717  -4.793  1.00  0.00    -0.379 OA
HETATM   20  H   UNL     1     -23.091  -7.614  -4.198  1.00  0.00     0.211 HD
ENDBRANCH   1  19
TORSDOF 12
ENDMDL
MODEL 7
REMARK VINA RESULT:      -5.1      6.503     10.126
REMARK  12 active torsions:
REMARK  status: ('A' for Active; 'I' for Inactive)
REMARK    1  A    between atoms: C_2  and  O_3 
REMARK    2  A    between atoms: O_3  and  C_4 
REMARK    3  A    between atoms: C_4  and  C_6 
REMARK    4  A    between atoms: C_6  and  C_7 
REMARK    5  A    between atoms: C_7  and  C_8 
REMARK    6  A    between atoms: C_7  and  C_14 
REMARK    7  A    between atoms: C_7  and  O_19 
REMARK    8  A    between atoms: C_8  and  C_9 
REMARK    9  A    between atoms: C_9  and  O_11 
REMARK   10  A    between atoms: O_11  and  C_12 
REMARK   11  A    between atoms: C_14  and  O_16 
REMARK   12  A    between atoms: O_16  and  C_17 
ROOT
HETATM    1  C   UNL     1     -20.826  -8.080  -3.847  1.00  0.00     0.162 C 
ENDROOT
BRANCH   1   2
HETATM    2  C   UNL     1     -19.628  -8.349  -4.779  1.00  0.00     0.160 C 
BRANCH   2   3
HETATM    3  C   UNL     1     -19.440  -9.805  -5.088  1.00  0.00     0.262 C 
HETATM    4  O   UNL     1     -19.920 -10.382  -6.053  1.00  0.00    -0.265 OA
BRANCH   3   5
HETATM    5  O   UNL     1     -18.684 -10.382  -4.116  1.00  0.00    -0.322 OA
BRANCH   5   6
HETATM    6  C   UNL     1     -17.507  -9.659  -3.737  1.00  0.00     0.174 C 
HETATM    7  C   UNL     1     -16.386 -10.111  -4.652  1.00  0.00     0.034 C 
ENDBRANCH   5   6
ENDBRANCH   3   5
ENDBRANCH   2   3
ENDBRANCH   1   2
BRANCH   1   8
HETATM    8  C   UNL     1     -20.531  -7.918  -2.347  1.00  0.00     0.160 C 
BRANCH   8   9
HETATM    9  C   UNL     1     -21.022  -9.068  -1.517  1.00  0.00     0.262 C 
HETATM   10  O   UNL     1     -20.407 -10.107  -1.324  1.00  0.00    -0.265 OA
BRANCH   9  11
HETATM   11  O   UNL     1     -22.298  -8.827  -1.117  1.00  0.00    -0.322 OA
BRANCH  11  12
HETATM   12  C   UNL     1     -22.477  -7.645  -0.318  1.00  0.00     0.174 C 
HETATM   13  C   UNL     1     -22.041  -7.985   1.095  1.00  0.00     0.034 C 
ENDBRANCH  11  12
ENDBRANCH   9  11
ENDBRANCH   8   9
ENDBRANCH   1   8
BRANCH   1  14
HETATM   14  C   UNL     1     -21.624  -6.851  -4.325  1.00  0.00     0.294 C 
HETATM   15  O   UNL     1     -22.370  -6.190  -3.611  1.00  0.00    -0.262 OA
BRANCH  14  16
HETATM   16  O   UNL     1     -21.509  -6.700  -5.674  1.00  0.00    -0.319 OA
BRANCH  16  17
HETATM   17  C   UNL     1     -21.486  -5.350  -6.146  1.00  0.00     0.174 C 
HETATM   18  C   UNL     1     -20.097  -4.798  -5.882  1.00  0.00     0.034 C 
ENDBRANCH  16  17
ENDBRANCH  14  16
ENDBRANCH   1  14
BRANCH   1  19
HETATM   19  O   UNL     1     -21.751  -9.189  -3.993  1.00  0.00    -0.379 OA
HETATM   20  H   UNL     1     -22.639  -8.870  -3.713  1.00  0.00     0.211 HD
ENDBRANCH   1  19
TORSDOF 12
ENDMDL
MODEL 8
REMARK VINA RESULT:      -5.0      6.205      9.545
REMARK  12 active torsions:
REMARK  status: ('A' for Active; 'I' for Inactive)
REMARK    1  A    between atoms: C_2  and  O_3 
REMARK    2  A    between atoms: O_3  and  C_4 
REMARK    3  A    between atoms: C_4  and  C_6 
REMARK    4  A    between atoms: C_6  and  C_7 
REMARK    5  A    between atoms: C_7  and  C_8 
REMARK    6  A    between atoms: C_7  and  C_14 
REMARK    7  A    between atoms: C_7  and  O_19 
REMARK    8  A    between atoms: C_8  and  C_9 
REMARK    9  A    between atoms: C_9  and  O_11 
REMARK   10  A    between atoms: O_11  and  C_12 
REMARK   11  A    between atoms: C_14  and  O_16 
REMARK   12  A    between atoms: O_16  and  C_17 
ROOT
HETATM    1  C   UNL     1     -21.048  -7.507  -4.199  1.00  0.00     0.162 C 
ENDROOT
BRANCH   1   2
HETATM    2  C   UNL     1     -19.802  -8.235  -4.743  1.00  0.00     0.160 C 
BRANCH   2   3
HETATM    3  C   UNL     1     -19.960  -9.726  -4.768  1.00  0.00     0.262 C 
HETATM    4  O   UNL     1     -19.563 -10.486  -3.896  1.00  0.00    -0.265 OA
BRANCH   3   5
HETATM    5  O   UNL     1     -20.582 -10.099  -5.918  1.00  0.00    -0.322 OA
BRANCH   5   6
HETATM    6  C   UNL     1     -21.260 -11.360  -5.875  1.00  0.00     0.174 C 
HETATM    7  C   UNL     1     -20.620 -12.252  -6.921  1.00  0.00     0.034 C 
ENDBRANCH   5   6
ENDBRANCH   3   5
ENDBRANCH   2   3
ENDBRANCH   1   2
BRANCH   1   8
HETATM    8  C   UNL     1     -20.856  -6.595  -2.977  1.00  0.00     0.160 C 
BRANCH   8   9
HETATM    9  C   UNL     1     -21.621  -7.052  -1.769  1.00  0.00     0.262 C 
HETATM   10  O   UNL     1     -22.672  -6.563  -1.379  1.00  0.00    -0.265 OA
BRANCH   9  11
HETATM   11  O   UNL     1     -20.908  -8.004  -1.112  1.00  0.00    -0.322 OA
BRANCH  11  12
HETATM   12  C   UNL     1     -21.675  -8.858  -0.248  1.00  0.00     0.174 C 
HETATM   13  C   UNL     1     -21.250  -8.559   1.177  1.00  0.00     0.034 C 
ENDBRANCH  11  12
ENDBRANCH   9  11
ENDBRANCH   8   9
ENDBRANCH   1   8
BRANCH   1  14
HETATM   14  C   UNL     1     -21.733  -6.693  -5.314  1.00  0.00     0.294 C 
HETATM   15  O   UNL     1     -22.793  -6.090  -5.180  1.00  0.00    -0.262 OA
BRANCH  14  16
HETATM   16  O   UNL     1     -21.086  -6.866  -6.501  1.00  0.00    -0.319 OA
BRANCH  16  17
HETATM   17  C   UNL     1     -20.932  -5.690  -7.299  1.00  0.00     0.174 C 
HETATM   18  C   UNL     1     -19.766  -4.902  -6.731  1.00  0.00     0.034 C 
ENDBRANCH  16  17
ENDBRANCH  14  16
ENDBRANCH   1  14
BRANCH   1  19
HETATM   19  O   UNL     1     -22.025  -8.519  -3.840  1.00  0.00    -0.379 OA
HETATM   20  H   UNL     1     -21.702  -8.961  -3.022  1.00  0.00     0.211 HD
ENDBRANCH   1  19
TORSDOF 12
ENDMDL
MODEL 9
REMARK VINA RESULT:      -4.9      8.546     10.849
REMARK  12 active torsions:
REMARK  status: ('A' for Active; 'I' for Inactive)
REMARK    1  A    between atoms: C_2  and  O_3 
REMARK    2  A    between atoms: O_3  and  C_4 
REMARK    3  A    between atoms: C_4  and  C_6 
REMARK    4  A    between atoms: C_6  and  C_7 
REMARK    5  A    between atoms: C_7  and  C_8 
REMARK    6  A    between atoms: C_7  and  C_14 
REMARK    7  A    between atoms: C_7  and  O_19 
REMARK    8  A    between atoms: C_8  and  C_9 
REMARK    9  A    between atoms: C_9  and  O_11 
REMARK   10  A    between atoms: O_11  and  C_12 
REMARK   11  A    between atoms: C_14  and  O_16 
REMARK   12  A    between atoms: O_16  and  C_17 
ROOT
HETATM    1  C   UNL     1     -20.616  -8.833  -2.858  1.00  0.00     0.162 C 
ENDROOT
BRANCH   1   2
HETATM    2  C   UNL     1     -20.634  -7.613  -1.914  1.00  0.00     0.160 C 
BRANCH   2   3
HETATM    3  C   UNL     1     -21.788  -6.690  -2.171  1.00  0.00     0.262 C 
HETATM    4  O   UNL     1     -21.886  -5.947  -3.138  1.00  0.00    -0.265 OA
BRANCH   3   5
HETATM    5  O   UNL     1     -22.684  -6.787  -1.153  1.00  0.00    -0.322 OA
BRANCH   5   6
HETATM    6  C   UNL     1     -22.199  -7.416   0.040  1.00  0.00     0.174 C 
HETATM    7  C   UNL     1     -23.351  -8.203   0.634  1.00  0.00     0.034 C 
ENDBRANCH   5   6
ENDBRANCH   3   5
ENDBRANCH   2   3
ENDBRANCH   1   2
BRANCH   1   8
HETATM    8  C   UNL     1     -19.383  -9.009  -3.758  1.00  0.00     0.160 C 
BRANCH   8   9
HETATM    9  C   UNL     1     -19.684  -8.838  -5.219  1.00  0.00     0.262 C 
HETATM   10  O   UNL     1     -19.722  -7.767  -5.806  1.00  0.00    -0.265 OA
BRANCH   9  11
HETATM   11  O   UNL     1     -20.027 -10.039  -5.755  1.00  0.00    -0.322 OA
BRANCH  11  12
HETATM   12  C   UNL     1     -19.150 -11.129  -5.428  1.00  0.00     0.174 C 
HETATM   13  C   UNL     1     -18.079 -11.186  -6.502  1.00  0.00     0.034 C 
ENDBRANCH  11  12
ENDBRANCH   9  11
ENDBRANCH   8   9
ENDBRANCH   1   8
BRANCH   1  14
HETATM   14  C   UNL     1     -20.837 -10.137  -2.067  1.00  0.00     0.294 C 
HETATM   15  O   UNL     1     -19.934 -10.858  -1.654  1.00  0.00    -0.262 OA
BRANCH  14  16
HETATM   16  O   UNL     1     -22.161 -10.457  -2.031  1.00  0.00    -0.319 OA
BRANCH  16  17
HETATM   17  C   UNL     1     -22.533 -11.440  -1.061  1.00  0.00     0.174 C 
HETATM   18  C   UNL     1     -24.049 -11.493  -1.023  1.00  0.00     0.034 C 
ENDBRANCH  16  17
ENDBRANCH  14  16
ENDBRANCH   1  14
BRANCH   1  19
HETATM   19  O   UNL     1     -21.778  -8.734  -3.722  1.00  0.00    -0.379 OA
HETATM   20  H   UNL     1     -22.407  -8.107  -3.297  1.00  0.00     0.211 HD
ENDBRANCH   1  19
TORSDOF 12
ENDMDL
