MODEL 1
REMARK VINA RESULT:      -1.3      0.000      0.000
REMARK  13 active torsions:
REMARK  status: ('A' for Active; 'I' for Inactive)
REMARK    1  A    between atoms: C_1  and  C_2 
REMARK    2  A    between atoms: C_1  and  C_15 
REMARK    3  A    between atoms: C_2  and  N_3 
REMARK    4  A    between atoms: N_3  and  C_4 
REMARK    5  A    between atoms: N_3  and  C_7 
REMARK    6  A    between atoms: C_4  and  C_5 
REMARK    7  A    between atoms: C_5  and  N_6 
REMARK    8  A    between atoms: C_7  and  C_8 
REMARK    9  A    between atoms: C_8  and  O_9 
REMARK   10  A    between atoms: O_9  and  C_10 
REMARK   11  A    between atoms: C_10  and  C_11 
REMARK   12  A    between atoms: C_11  and  C_12 
REMARK   13  A    between atoms: C_15  and  O_17 
ROOT
HETATM    1 NA   UNL     3     -32.324  -8.576   4.529  1.00  0.00     0.000 Na
ENDROOT
TORSDOF 13
ENDMDL
MODEL 2
REMARK VINA RESULT:      -1.3     23.494     23.494
REMARK  13 active torsions:
REMARK  status: ('A' for Active; 'I' for Inactive)
REMARK    1  A    between atoms: C_1  and  C_2 
REMARK    2  A    between atoms: C_1  and  C_15 
REMARK    3  A    between atoms: C_2  and  N_3 
REMARK    4  A    between atoms: N_3  and  C_4 
REMARK    5  A    between atoms: N_3  and  C_7 
REMARK    6  A    between atoms: C_4  and  C_5 
REMARK    7  A    between atoms: C_5  and  N_6 
REMARK    8  A    between atoms: C_7  and  C_8 
REMARK    9  A    between atoms: C_8  and  O_9 
REMARK   10  A    between atoms: O_9  and  C_10 
REMARK   11  A    between atoms: C_10  and  C_11 
REMARK   12  A    between atoms: C_11  and  C_12 
REMARK   13  A    between atoms: C_15  and  O_17 
ROOT
HETATM    1 NA   UNL     3     -11.257   1.620   2.468  1.00  0.00     0.000 Na
ENDROOT
TORSDOF 13
ENDMDL
MODEL 3
REMARK VINA RESULT:      -1.2     19.033     19.033
REMARK  13 active torsions:
REMARK  status: ('A' for Active; 'I' for Inactive)
REMARK    1  A    between atoms: C_1  and  C_2 
REMARK    2  A    between atoms: C_1  and  C_15 
REMARK    3  A    between atoms: C_2  and  N_3 
REMARK    4  A    between atoms: N_3  and  C_4 
REMARK    5  A    between atoms: N_3  and  C_7 
REMARK    6  A    between atoms: C_4  and  C_5 
REMARK    7  A    between atoms: C_5  and  N_6 
REMARK    8  A    between atoms: C_7  and  C_8 
REMARK    9  A    between atoms: C_8  and  O_9 
REMARK   10  A    between atoms: O_9  and  C_10 
REMARK   11  A    between atoms: C_10  and  C_11 
REMARK   12  A    between atoms: C_11  and  C_12 
REMARK   13  A    between atoms: C_15  and  O_17 
ROOT
HETATM    1 NA   UNL     3     -27.015 -13.665 -13.026  1.00  0.00     0.000 Na
ENDROOT
TORSDOF 13
ENDMDL
MODEL 4
REMARK VINA RESULT:      -1.2     22.209     22.209
REMARK  13 active torsions:
REMARK  status: ('A' for Active; 'I' for Inactive)
REMARK    1  A    between atoms: C_1  and  C_2 
REMARK    2  A    between atoms: C_1  and  C_15 
REMARK    3  A    between atoms: C_2  and  N_3 
REMARK    4  A    between atoms: N_3  and  C_4 
REMARK    5  A    between atoms: N_3  and  C_7 
REMARK    6  A    between atoms: C_4  and  C_5 
REMARK    7  A    between atoms: C_5  and  N_6 
REMARK    8  A    between atoms: C_7  and  C_8 
REMARK    9  A    between atoms: C_8  and  O_9 
REMARK   10  A    between atoms: O_9  and  C_10 
REMARK   11  A    between atoms: C_10  and  C_11 
REMARK   12  A    between atoms: C_11  and  C_12 
REMARK   13  A    between atoms: C_15  and  O_17 
ROOT
HETATM    1 NA   UNL     3     -25.113   0.407 -14.459  1.00  0.00     0.000 Na
ENDROOT
TORSDOF 13
ENDMDL
MODEL 5
REMARK VINA RESULT:      -1.1      9.568      9.568
REMARK  13 active torsions:
REMARK  status: ('A' for Active; 'I' for Inactive)
REMARK    1  A    between atoms: C_1  and  C_2 
REMARK    2  A    between atoms: C_1  and  C_15 
REMARK    3  A    between atoms: C_2  and  N_3 
REMARK    4  A    between atoms: N_3  and  C_4 
REMARK    5  A    between atoms: N_3  and  C_7 
REMARK    6  A    between atoms: C_4  and  C_5 
REMARK    7  A    between atoms: C_5  and  N_6 
REMARK    8  A    between atoms: C_7  and  C_8 
REMARK    9  A    between atoms: C_8  and  O_9 
REMARK   10  A    between atoms: O_9  and  C_10 
REMARK   11  A    between atoms: C_10  and  C_11 
REMARK   12  A    between atoms: C_11  and  C_12 
REMARK   13  A    between atoms: C_15  and  O_17 
ROOT
HETATM    1 NA   UNL     3     -30.945   0.745   2.864  1.00  0.00     0.000 Na
ENDROOT
TORSDOF 13
ENDMDL
MODEL 6
REMARK VINA RESULT:      -1.0      9.904      9.904
REMARK  13 active torsions:
REMARK  status: ('A' for Active; 'I' for Inactive)
REMARK    1  A    between atoms: C_1  and  C_2 
REMARK    2  A    between atoms: C_1  and  C_15 
REMARK    3  A    between atoms: C_2  and  N_3 
REMARK    4  A    between atoms: N_3  and  C_4 
REMARK    5  A    between atoms: N_3  and  C_7 
REMARK    6  A    between atoms: C_4  and  C_5 
REMARK    7  A    between atoms: C_5  and  N_6 
REMARK    8  A    between atoms: C_7  and  C_8 
REMARK    9  A    between atoms: C_8  and  O_9 
REMARK   10  A    between atoms: O_9  and  C_10 
REMARK   11  A    between atoms: C_10  and  C_11 
REMARK   12  A    between atoms: C_11  and  C_12 
REMARK   13  A    between atoms: C_15  and  O_17 
ROOT
HETATM    1 NA   UNL     3     -32.732  -6.044  -5.037  1.00  0.00     0.000 Na
ENDROOT
TORSDOF 13
ENDMDL
MODEL 7
REMARK VINA RESULT:      -1.0     25.487     25.487
REMARK  13 active torsions:
REMARK  status: ('A' for Active; 'I' for Inactive)
REMARK    1  A    between atoms: C_1  and  C_2 
REMARK    2  A    between atoms: C_1  and  C_15 
REMARK    3  A    between atoms: C_2  and  N_3 
REMARK    4  A    between atoms: N_3  and  C_4 
REMARK    5  A    between atoms: N_3  and  C_7 
REMARK    6  A    between atoms: C_4  and  C_5 
REMARK    7  A    between atoms: C_5  and  N_6 
REMARK    8  A    between atoms: C_7  and  C_8 
REMARK    9  A    between atoms: C_8  and  O_9 
REMARK   10  A    between atoms: O_9  and  C_10 
REMARK   11  A    between atoms: C_10  and  C_11 
REMARK   12  A    between atoms: C_11  and  C_12 
REMARK   13  A    between atoms: C_15  and  O_17 
ROOT
HETATM    1 NA   UNL     3     -23.204   0.212 -17.589  1.00  0.00     0.000 Na
ENDROOT
TORSDOF 13
ENDMDL
MODEL 8
REMARK VINA RESULT:      -1.0     15.718     15.718
REMARK  13 active torsions:
REMARK  status: ('A' for Active; 'I' for Inactive)
REMARK    1  A    between atoms: C_1  and  C_2 
REMARK    2  A    between atoms: C_1  and  C_15 
REMARK    3  A    between atoms: C_2  and  N_3 
REMARK    4  A    between atoms: N_3  and  C_4 
REMARK    5  A    between atoms: N_3  and  C_7 
REMARK    6  A    between atoms: C_4  and  C_5 
REMARK    7  A    between atoms: C_5  and  N_6 
REMARK    8  A    between atoms: C_7  and  C_8 
REMARK    9  A    between atoms: C_8  and  O_9 
REMARK   10  A    between atoms: O_9  and  C_10 
REMARK   11  A    between atoms: C_10  and  C_11 
REMARK   12  A    between atoms: C_11  and  C_12 
REMARK   13  A    between atoms: C_15  and  O_17 
ROOT
HETATM    1 NA   UNL     3     -26.952  -3.580  -9.372  1.00  0.00     0.000 Na
ENDROOT
TORSDOF 13
ENDMDL
MODEL 9
REMARK VINA RESULT:      -1.0     25.101     25.101
REMARK  13 active torsions:
REMARK  status: ('A' for Active; 'I' for Inactive)
REMARK    1  A    between atoms: C_1  and  C_2 
REMARK    2  A    between atoms: C_1  and  C_15 
REMARK    3  A    between atoms: C_2  and  N_3 
REMARK    4  A    between atoms: N_3  and  C_4 
REMARK    5  A    between atoms: N_3  and  C_7 
REMARK    6  A    between atoms: C_4  and  C_5 
REMARK    7  A    between atoms: C_5  and  N_6 
REMARK    8  A    between atoms: C_7  and  C_8 
REMARK    9  A    between atoms: C_8  and  O_9 
REMARK   10  A    between atoms: O_9  and  C_10 
REMARK   11  A    between atoms: C_10  and  C_11 
REMARK   12  A    between atoms: C_11  and  C_12 
REMARK   13  A    between atoms: C_15  and  O_17 
ROOT
HETATM    1 NA   UNL     3     -14.409   3.514  -8.237  1.00  0.00     0.000 Na
ENDROOT
TORSDOF 13
ENDMDL
