MODEL 1
REMARK VINA RESULT:      -6.7      0.000      0.000
REMARK  7 active torsions:
REMARK  status: ('A' for Active; 'I' for Inactive)
REMARK    1  A    between atoms: CG_1  and  CB_2 
REMARK    2  A    between atoms: CG_1  and  CD_8 
REMARK    3  A    between atoms: CB_2  and  CA_3 
REMARK    4  A    between atoms: CA_3  and  C_4 
REMARK    5  A    between atoms: CA_3  and  N_7 
REMARK    6  A    between atoms: C_4  and  OXT_6 
REMARK    7  A    between atoms: CD_8  and  NE_9 
REMARK       I    between atoms: NE_9  and  CZ_11 
REMARK       I    between atoms: CZ_11  and  NH2_13 
ROOT
ATOM      1  CG  ARG A   1     -21.443  -4.051 -10.819  1.00  0.00     0.022 C 
ENDROOT
BRANCH   1   2
ATOM      2  CB  ARG A   1     -22.716  -4.629 -10.199  1.00  0.00     0.048 C 
BRANCH   2   3
ATOM      3  CA  ARG A   1     -23.586  -3.573  -9.507  1.00  0.00     0.314 C 
BRANCH   3   4
ATOM      4  C   ARG A   1     -24.911  -3.339 -10.255  1.00  0.00     0.173 C 
ATOM      5  O   ARG A   1     -25.004  -3.273 -11.474  1.00  0.00    -0.648 OA
BRANCH   4   6
ATOM      6  OXT ARG A   1     -25.989  -3.238  -9.445  1.00  0.00    -0.775 OA
ATOM      7  HXT ARG A   1     -26.290  -2.323  -9.290  1.00  0.00     0.167 HD
ENDBRANCH   4   6
ENDBRANCH   3   4
BRANCH   3   8
ATOM      8  N   ARG A   1     -23.877  -4.032  -8.129  1.00  0.00     0.093 N 
ATOM      9  H1  ARG A   1     -23.527  -4.992  -8.045  1.00  0.00     0.314 HD
ATOM     10  H2  ARG A   1     -24.889  -4.142  -8.032  1.00  0.00     0.314 HD
ENDBRANCH   3   8
ENDBRANCH   2   3
ENDBRANCH   1   2
BRANCH   1  11
ATOM     11  CD  ARG A   1     -21.750  -2.875 -11.748  1.00  0.00     0.122 C 
BRANCH  11  12
ATOM     12  NE  ARG A   1     -22.065  -3.419 -13.063  1.00  0.00    -0.367 N 
ATOM     13  CZ  ARG A   1     -22.951  -2.820 -13.769  1.00  0.00     0.143 C 
ATOM     14  NH1 ARG A   1     -23.688  -1.732 -13.463  1.00  0.00    -0.376 N 
ATOM     15  NH2 ARG A   1     -23.197  -3.258 -15.021  1.00  0.00    -0.274 NA
ATOM     16 HH11 ARG A   1     -23.700  -1.456 -12.492  1.00  0.00     0.158 HD
ATOM     17 HH12 ARG A   1     -24.588  -1.646 -13.912  1.00  0.00     0.158 HD
ATOM     18 HH21 ARG A   1     -22.761  -4.156 -15.201  1.00  0.00     0.127 HD
ATOM     19 HH22 ARG A   1     -24.140  -3.192 -15.369  1.00  0.00     0.127 HD
ATOM     20  HE  ARG A   1     -21.593  -4.253 -13.412  1.00  0.00     0.162 HD
ENDBRANCH  11  12
ENDBRANCH   1  11
TORSDOF 7
ENDMDL
MODEL 2
REMARK VINA RESULT:      -6.4      1.246      1.799
REMARK  7 active torsions:
REMARK  status: ('A' for Active; 'I' for Inactive)
REMARK    1  A    between atoms: CG_1  and  CB_2 
REMARK    2  A    between atoms: CG_1  and  CD_8 
REMARK    3  A    between atoms: CB_2  and  CA_3 
REMARK    4  A    between atoms: CA_3  and  C_4 
REMARK    5  A    between atoms: CA_3  and  N_7 
REMARK    6  A    between atoms: C_4  and  OXT_6 
REMARK    7  A    between atoms: CD_8  and  NE_9 
REMARK       I    between atoms: NE_9  and  CZ_11 
REMARK       I    between atoms: CZ_11  and  NH2_13 
ROOT
ATOM      1  CG  ARG A   1     -22.122  -2.816 -11.816  1.00  0.00     0.022 C 
ENDROOT
BRANCH   1   2
ATOM      2  CB  ARG A   1     -22.330  -3.796 -10.661  1.00  0.00     0.048 C 
BRANCH   2   3
ATOM      3  CA  ARG A   1     -23.249  -3.251  -9.562  1.00  0.00     0.314 C 
BRANCH   3   4
ATOM      4  C   ARG A   1     -24.704  -3.723  -9.742  1.00  0.00     0.173 C 
ATOM      5  O   ARG A   1     -25.646  -2.968  -9.949  1.00  0.00    -0.648 OA
BRANCH   4   6
ATOM      6  OXT ARG A   1     -24.859  -5.064  -9.677  1.00  0.00    -0.775 OA
ATOM      7  HXT ARG A   1     -24.058  -5.572  -9.907  1.00  0.00     0.167 HD
ENDBRANCH   4   6
ENDBRANCH   3   4
BRANCH   3   8
ATOM      8  N   ARG A   1     -22.744  -3.716  -8.250  1.00  0.00     0.093 N 
ATOM      9  H1  ARG A   1     -23.410  -4.410  -7.894  1.00  0.00     0.314 HD
ATOM     10  H2  ARG A   1     -22.826  -2.948  -7.580  1.00  0.00     0.314 HD
ENDBRANCH   3   8
ENDBRANCH   2   3
ENDBRANCH   1   2
BRANCH   1  11
ATOM     11  CD  ARG A   1     -22.943  -3.208 -13.045  1.00  0.00     0.122 C 
BRANCH  11  12
ATOM     12  NE  ARG A   1     -23.888  -2.130 -13.311  1.00  0.00    -0.367 N 
ATOM     13  CZ  ARG A   1     -23.814  -1.523 -14.437  1.00  0.00     0.143 C 
ATOM     14  NH1 ARG A   1     -22.944  -1.717 -15.451  1.00  0.00    -0.376 N 
ATOM     15  NH2 ARG A   1     -24.732  -0.580 -14.735  1.00  0.00    -0.274 NA
ATOM     16 HH11 ARG A   1     -22.125  -2.267 -15.240  1.00  0.00     0.158 HD
ATOM     17 HH12 ARG A   1     -22.751  -0.926 -16.046  1.00  0.00     0.158 HD
ATOM     18 HH21 ARG A   1     -25.290  -0.326 -13.928  1.00  0.00     0.127 HD
ATOM     19 HH22 ARG A   1     -24.436   0.211 -15.285  1.00  0.00     0.127 HD
ATOM     20  HE  ARG A   1     -24.589  -1.866 -12.619  1.00  0.00     0.162 HD
ENDBRANCH  11  12
ENDBRANCH   1  11
TORSDOF 7
ENDMDL
MODEL 3
REMARK VINA RESULT:      -6.4      1.487      4.299
REMARK  7 active torsions:
REMARK  status: ('A' for Active; 'I' for Inactive)
REMARK    1  A    between atoms: CG_1  and  CB_2 
REMARK    2  A    between atoms: CG_1  and  CD_8 
REMARK    3  A    between atoms: CB_2  and  CA_3 
REMARK    4  A    between atoms: CA_3  and  C_4 
REMARK    5  A    between atoms: CA_3  and  N_7 
REMARK    6  A    between atoms: C_4  and  OXT_6 
REMARK    7  A    between atoms: CD_8  and  NE_9 
REMARK       I    between atoms: NE_9  and  CZ_11 
REMARK       I    between atoms: CZ_11  and  NH2_13 
ROOT
ATOM      1  CG  ARG A   1     -20.618  -4.077 -11.193  1.00  0.00     0.022 C 
ENDROOT
BRANCH   1   2
ATOM      2  CB  ARG A   1     -21.601  -2.989 -11.629  1.00  0.00     0.048 C 
BRANCH   2   3
ATOM      3  CA  ARG A   1     -22.735  -3.517 -12.515  1.00  0.00     0.314 C 
BRANCH   3   4
ATOM      4  C   ARG A   1     -24.109  -2.980 -12.070  1.00  0.00     0.173 C 
ATOM      5  O   ARG A   1     -24.545  -3.083 -10.931  1.00  0.00    -0.648 OA
BRANCH   4   6
ATOM      6  OXT ARG A   1     -24.796  -2.352 -13.051  1.00  0.00    -0.775 OA
ATOM      7  HXT ARG A   1     -24.737  -2.784 -13.923  1.00  0.00     0.167 HD
ENDBRANCH   4   6
ENDBRANCH   3   4
BRANCH   3   8
ATOM      8  N   ARG A   1     -22.476  -3.099 -13.911  1.00  0.00     0.093 N 
ATOM      9  H1  ARG A   1     -22.978  -2.217 -14.066  1.00  0.00     0.314 HD
ATOM     10  H2  ARG A   1     -22.953  -3.752 -14.538  1.00  0.00     0.314 HD
ENDBRANCH   3   8
ENDBRANCH   2   3
ENDBRANCH   1   2
BRANCH   1  11
ATOM     11  CD  ARG A   1     -20.718  -4.361  -9.694  1.00  0.00     0.122 C 
BRANCH  11  12
ATOM     12  NE  ARG A   1     -22.130  -4.520  -9.365  1.00  0.00    -0.367 N 
ATOM     13  CZ  ARG A   1     -22.553  -4.027  -8.261  1.00  0.00     0.143 C 
ATOM     14  NH1 ARG A   1     -21.863  -3.378  -7.300  1.00  0.00    -0.376 N 
ATOM     15  NH2 ARG A   1     -23.871  -4.089  -7.978  1.00  0.00    -0.274 NA
ATOM     16 HH11 ARG A   1     -20.857  -3.448  -7.345  1.00  0.00     0.158 HD
ATOM     17 HH12 ARG A   1     -22.224  -3.431  -6.359  1.00  0.00     0.158 HD
ATOM     18 HH21 ARG A   1     -24.367  -4.701  -8.616  1.00  0.00     0.127 HD
ATOM     19 HH22 ARG A   1     -24.142  -4.207  -7.015  1.00  0.00     0.127 HD
ATOM     20  HE  ARG A   1     -22.764  -5.009  -9.997  1.00  0.00     0.162 HD
ENDBRANCH  11  12
ENDBRANCH   1  11
TORSDOF 7
ENDMDL
MODEL 4
REMARK VINA RESULT:      -6.2     10.706     11.743
REMARK  7 active torsions:
REMARK  status: ('A' for Active; 'I' for Inactive)
REMARK    1  A    between atoms: CG_1  and  CB_2 
REMARK    2  A    between atoms: CG_1  and  CD_8 
REMARK    3  A    between atoms: CB_2  and  CA_3 
REMARK    4  A    between atoms: CA_3  and  C_4 
REMARK    5  A    between atoms: CA_3  and  N_7 
REMARK    6  A    between atoms: C_4  and  OXT_6 
REMARK    7  A    between atoms: CD_8  and  NE_9 
REMARK       I    between atoms: NE_9  and  CZ_11 
REMARK       I    between atoms: CZ_11  and  NH2_13 
ROOT
ATOM      1  CG  ARG A   1     -33.898  -4.392 -10.491  1.00  0.00     0.022 C 
ENDROOT
BRANCH   1   2
ATOM      2  CB  ARG A   1     -33.155  -3.404 -11.391  1.00  0.00     0.048 C 
BRANCH   2   3
ATOM      3  CA  ARG A   1     -33.885  -2.065 -11.553  1.00  0.00     0.314 C 
BRANCH   3   4
ATOM      4  C   ARG A   1     -34.965  -2.127 -12.649  1.00  0.00     0.173 C 
ATOM      5  O   ARG A   1     -36.069  -1.607 -12.548  1.00  0.00    -0.648 OA
BRANCH   4   6
ATOM      6  OXT ARG A   1     -34.582  -2.792 -13.761  1.00  0.00    -0.775 OA
ATOM      7  HXT ARG A   1     -34.709  -2.295 -14.590  1.00  0.00     0.167 HD
ENDBRANCH   4   6
ENDBRANCH   3   4
BRANCH   3   8
ATOM      8  N   ARG A   1     -34.519  -1.715 -10.261  1.00  0.00     0.093 N 
ATOM      9  H1  ARG A   1     -35.142  -2.490 -10.005  1.00  0.00     0.314 HD
ATOM     10  H2  ARG A   1     -35.165  -0.938 -10.419  1.00  0.00     0.314 HD
ENDBRANCH   3   8
ENDBRANCH   2   3
ENDBRANCH   1   2
BRANCH   1  11
ATOM     11  CD  ARG A   1     -34.561  -5.507 -11.301  1.00  0.00     0.122 C 
BRANCH  11  12
ATOM     12  NE  ARG A   1     -33.750  -6.709 -11.148  1.00  0.00    -0.367 N 
ATOM     13  CZ  ARG A   1     -34.152  -7.611 -10.333  1.00  0.00     0.143 C 
ATOM     14  NH1 ARG A   1     -35.244  -7.614  -9.539  1.00  0.00    -0.376 N 
ATOM     15  NH2 ARG A   1     -33.461  -8.766 -10.240  1.00  0.00    -0.274 NA
ATOM     16 HH11 ARG A   1     -35.709  -6.727  -9.413  1.00  0.00     0.158 HD
ATOM     17 HH12 ARG A   1     -35.196  -8.163  -8.694  1.00  0.00     0.158 HD
ATOM     18 HH21 ARG A   1     -32.566  -8.712 -10.715  1.00  0.00     0.127 HD
ATOM     19 HH22 ARG A   1     -33.412  -9.217  -9.340  1.00  0.00     0.127 HD
ATOM     20  HE  ARG A   1     -32.885  -6.828 -11.676  1.00  0.00     0.162 HD
ENDBRANCH  11  12
ENDBRANCH   1  11
TORSDOF 7
ENDMDL
MODEL 5
REMARK VINA RESULT:      -6.0      2.605      4.438
REMARK  7 active torsions:
REMARK  status: ('A' for Active; 'I' for Inactive)
REMARK    1  A    between atoms: CG_1  and  CB_2 
REMARK    2  A    between atoms: CG_1  and  CD_8 
REMARK    3  A    between atoms: CB_2  and  CA_3 
REMARK    4  A    between atoms: CA_3  and  C_4 
REMARK    5  A    between atoms: CA_3  and  N_7 
REMARK    6  A    between atoms: C_4  and  OXT_6 
REMARK    7  A    between atoms: CD_8  and  NE_9 
REMARK       I    between atoms: NE_9  and  CZ_11 
REMARK       I    between atoms: CZ_11  and  NH2_13 
ROOT
ATOM      1  CG  ARG A   1     -21.929  -4.149 -11.811  1.00  0.00     0.022 C 
ENDROOT
BRANCH   1   2
ATOM      2  CB  ARG A   1     -22.356  -2.788 -12.364  1.00  0.00     0.048 C 
BRANCH   2   3
ATOM      3  CA  ARG A   1     -23.559  -2.869 -13.310  1.00  0.00     0.314 C 
BRANCH   3   4
ATOM      4  C   ARG A   1     -23.225  -2.330 -14.714  1.00  0.00     0.173 C 
ATOM      5  O   ARG A   1     -22.343  -2.789 -15.428  1.00  0.00    -0.648 OA
BRANCH   4   6
ATOM      6  OXT ARG A   1     -24.015  -1.308 -15.112  1.00  0.00    -0.775 OA
ATOM      7  HXT ARG A   1     -24.253  -1.329 -16.058  1.00  0.00     0.167 HD
ENDBRANCH   4   6
ENDBRANCH   3   4
BRANCH   3   8
ATOM      8  N   ARG A   1     -23.979  -4.285 -13.418  1.00  0.00     0.093 N 
ATOM      9  H1  ARG A   1     -23.285  -4.850 -12.918  1.00  0.00     0.314 HD
ATOM     10  H2  ARG A   1     -23.866  -4.583 -14.391  1.00  0.00     0.314 HD
ENDBRANCH   3   8
ENDBRANCH   2   3
ENDBRANCH   1   2
BRANCH   1  11
ATOM     11  CD  ARG A   1     -22.099  -4.221 -10.293  1.00  0.00     0.122 C 
BRANCH  11  12
ATOM     12  NE  ARG A   1     -23.116  -3.248  -9.913  1.00  0.00    -0.367 N 
ATOM     13  CZ  ARG A   1     -24.301  -3.673  -9.674  1.00  0.00     0.143 C 
ATOM     14  NH1 ARG A   1     -24.783  -4.931  -9.744  1.00  0.00    -0.376 N 
ATOM     15  NH2 ARG A   1     -25.235  -2.801  -9.240  1.00  0.00    -0.274 NA
ATOM     16 HH11 ARG A   1     -24.209  -5.605 -10.229  1.00  0.00     0.158 HD
ATOM     17 HH12 ARG A   1     -25.768  -5.036  -9.936  1.00  0.00     0.158 HD
ATOM     18 HH21 ARG A   1     -24.926  -1.839  -9.328  1.00  0.00     0.127 HD
ATOM     19 HH22 ARG A   1     -26.188  -2.945  -9.532  1.00  0.00     0.127 HD
ATOM     20  HE  ARG A   1     -22.891  -2.256  -9.841  1.00  0.00     0.162 HD
ENDBRANCH  11  12
ENDBRANCH   1  11
TORSDOF 7
ENDMDL
MODEL 6
REMARK VINA RESULT:      -5.8     11.596     13.000
REMARK  7 active torsions:
REMARK  status: ('A' for Active; 'I' for Inactive)
REMARK    1  A    between atoms: CG_1  and  CB_2 
REMARK    2  A    between atoms: CG_1  and  CD_8 
REMARK    3  A    between atoms: CB_2  and  CA_3 
REMARK    4  A    between atoms: CA_3  and  C_4 
REMARK    5  A    between atoms: CA_3  and  N_7 
REMARK    6  A    between atoms: C_4  and  OXT_6 
REMARK    7  A    between atoms: CD_8  and  NE_9 
REMARK       I    between atoms: NE_9  and  CZ_11 
REMARK       I    between atoms: CZ_11  and  NH2_13 
ROOT
ATOM      1  CG  ARG A   1     -34.878   0.208 -12.974  1.00  0.00     0.022 C 
ENDROOT
BRANCH   1   2
ATOM      2  CB  ARG A   1     -36.084   0.146 -13.913  1.00  0.00     0.048 C 
BRANCH   2   3
ATOM      3  CA  ARG A   1     -35.731   0.447 -15.374  1.00  0.00     0.314 C 
BRANCH   3   4
ATOM      4  C   ARG A   1     -35.756  -0.823 -16.245  1.00  0.00     0.173 C 
ATOM      5  O   ARG A   1     -35.168  -1.858 -15.959  1.00  0.00    -0.648 OA
BRANCH   4   6
ATOM      6  OXT ARG A   1     -36.513  -0.710 -17.359  1.00  0.00    -0.775 OA
ATOM      7  HXT ARG A   1     -36.690  -1.555 -17.812  1.00  0.00     0.167 HD
ENDBRANCH   4   6
ENDBRANCH   3   4
BRANCH   3   8
ATOM      8  N   ARG A   1     -36.711   1.422 -15.904  1.00  0.00     0.093 N 
ATOM      9  H1  ARG A   1     -36.229   1.987 -16.612  1.00  0.00     0.314 HD
ATOM     10  H2  ARG A   1     -36.924   2.100 -15.169  1.00  0.00     0.314 HD
ENDBRANCH   3   8
ENDBRANCH   2   3
ENDBRANCH   1   2
BRANCH   1  11
ATOM     11  CD  ARG A   1     -34.749  -1.063 -12.134  1.00  0.00     0.122 C 
BRANCH  11  12
ATOM     12  NE  ARG A   1     -34.819  -2.203 -13.040  1.00  0.00    -0.367 N 
ATOM     13  CZ  ARG A   1     -34.180  -3.267 -12.723  1.00  0.00     0.143 C 
ATOM     14  NH1 ARG A   1     -33.397  -3.501 -11.649  1.00  0.00    -0.376 N 
ATOM     15  NH2 ARG A   1     -34.299  -4.361 -13.505  1.00  0.00    -0.274 NA
ATOM     16 HH11 ARG A   1     -33.110  -2.692 -11.118  1.00  0.00     0.158 HD
ATOM     17 HH12 ARG A   1     -32.665  -4.187 -11.755  1.00  0.00     0.158 HD
ATOM     18 HH21 ARG A   1     -34.759  -4.150 -14.384  1.00  0.00     0.127 HD
ATOM     19 HH22 ARG A   1     -33.496  -4.961 -13.605  1.00  0.00     0.127 HD
ATOM     20  HE  ARG A   1     -35.362  -2.155 -13.902  1.00  0.00     0.162 HD
ENDBRANCH  11  12
ENDBRANCH   1  11
TORSDOF 7
ENDMDL
MODEL 7
REMARK VINA RESULT:      -5.8     11.019     11.837
REMARK  7 active torsions:
REMARK  status: ('A' for Active; 'I' for Inactive)
REMARK    1  A    between atoms: CG_1  and  CB_2 
REMARK    2  A    between atoms: CG_1  and  CD_8 
REMARK    3  A    between atoms: CB_2  and  CA_3 
REMARK    4  A    between atoms: CA_3  and  C_4 
REMARK    5  A    between atoms: CA_3  and  N_7 
REMARK    6  A    between atoms: C_4  and  OXT_6 
REMARK    7  A    between atoms: CD_8  and  NE_9 
REMARK       I    between atoms: NE_9  and  CZ_11 
REMARK       I    between atoms: CZ_11  and  NH2_13 
ROOT
ATOM      1  CG  ARG A   1     -33.229  -3.513 -11.224  1.00  0.00     0.022 C 
ENDROOT
BRANCH   1   2
ATOM      2  CB  ARG A   1     -34.048  -4.601 -10.527  1.00  0.00     0.048 C 
BRANCH   2   3
ATOM      3  CA  ARG A   1     -34.026  -5.943 -11.268  1.00  0.00     0.314 C 
BRANCH   3   4
ATOM      4  C   ARG A   1     -34.643  -7.075 -10.425  1.00  0.00     0.173 C 
ATOM      5  O   ARG A   1     -34.869  -6.986  -9.225  1.00  0.00    -0.648 OA
BRANCH   4   6
ATOM      6  OXT ARG A   1     -34.943  -8.186 -11.134  1.00  0.00    -0.775 OA
ATOM      7  HXT ARG A   1     -35.654  -8.064 -11.790  1.00  0.00     0.167 HD
ENDBRANCH   4   6
ENDBRANCH   3   4
BRANCH   3   8
ATOM      8  N   ARG A   1     -34.792  -5.799 -12.527  1.00  0.00     0.093 N 
ATOM      9  H1  ARG A   1     -35.756  -6.092 -12.335  1.00  0.00     0.314 HD
ATOM     10  H2  ARG A   1     -34.461  -6.504 -13.189  1.00  0.00     0.314 HD
ENDBRANCH   3   8
ENDBRANCH   2   3
ENDBRANCH   1   2
BRANCH   1  11
ATOM     11  CD  ARG A   1     -33.925  -2.152 -11.159  1.00  0.00     0.122 C 
BRANCH  11  12
ATOM     12  NE  ARG A   1     -34.931  -2.117 -12.213  1.00  0.00    -0.367 N 
ATOM     13  CZ  ARG A   1     -35.677  -1.079 -12.302  1.00  0.00     0.143 C 
ATOM     14  NH1 ARG A   1     -35.696   0.024 -11.525  1.00  0.00    -0.376 N 
ATOM     15  NH2 ARG A   1     -36.557  -0.990 -13.321  1.00  0.00    -0.274 NA
ATOM     16 HH11 ARG A   1     -35.206  -0.038 -10.645  1.00  0.00     0.158 HD
ATOM     17 HH12 ARG A   1     -36.570   0.524 -11.459  1.00  0.00     0.158 HD
ATOM     18 HH21 ARG A   1     -36.654  -1.870 -13.816  1.00  0.00     0.127 HD
ATOM     19 HH22 ARG A   1     -37.435  -0.527 -13.149  1.00  0.00     0.127 HD
ATOM     20  HE  ARG A   1     -35.038  -2.896 -12.862  1.00  0.00     0.162 HD
ENDBRANCH  11  12
ENDBRANCH   1  11
TORSDOF 7
ENDMDL
MODEL 8
REMARK VINA RESULT:      -5.7      1.925      2.264
REMARK  7 active torsions:
REMARK  status: ('A' for Active; 'I' for Inactive)
REMARK    1  A    between atoms: CG_1  and  CB_2 
REMARK    2  A    between atoms: CG_1  and  CD_8 
REMARK    3  A    between atoms: CB_2  and  CA_3 
REMARK    4  A    between atoms: CA_3  and  C_4 
REMARK    5  A    between atoms: CA_3  and  N_7 
REMARK    6  A    between atoms: C_4  and  OXT_6 
REMARK    7  A    between atoms: CD_8  and  NE_9 
REMARK       I    between atoms: NE_9  and  CZ_11 
REMARK       I    between atoms: CZ_11  and  NH2_13 
ROOT
ATOM      1  CG  ARG A   1     -21.302  -3.588 -11.075  1.00  0.00     0.022 C 
ENDROOT
BRANCH   1   2
ATOM      2  CB  ARG A   1     -21.635  -4.503  -9.896  1.00  0.00     0.048 C 
BRANCH   2   3
ATOM      3  CA  ARG A   1     -21.773  -3.753  -8.567  1.00  0.00     0.314 C 
BRANCH   3   4
ATOM      4  C   ARG A   1     -23.059  -4.145  -7.815  1.00  0.00     0.173 C 
ATOM      5  O   ARG A   1     -23.069  -4.677  -6.712  1.00  0.00    -0.648 OA
BRANCH   4   6
ATOM      6  OXT ARG A   1     -24.198  -3.827  -8.471  1.00  0.00    -0.775 OA
ATOM      7  HXT ARG A   1     -24.162  -3.979  -9.434  1.00  0.00     0.167 HD
ENDBRANCH   4   6
ENDBRANCH   3   4
BRANCH   3   8
ATOM      8  N   ARG A   1     -20.599  -4.069  -7.722  1.00  0.00     0.093 N 
ATOM      9  H1  ARG A   1     -20.101  -3.189  -7.547  1.00  0.00     0.314 HD
ATOM     10  H2  ARG A   1     -19.933  -4.607  -8.282  1.00  0.00     0.314 HD
ENDBRANCH   3   8
ENDBRANCH   2   3
ENDBRANCH   1   2
BRANCH   1  11
ATOM     11  CD  ARG A   1     -22.561  -3.162 -11.833  1.00  0.00     0.122 C 
BRANCH  11  12
ATOM     12  NE  ARG A   1     -22.298  -3.326 -13.258  1.00  0.00    -0.367 N 
ATOM     13  CZ  ARG A   1     -22.980  -2.622 -14.083  1.00  0.00     0.143 C 
ATOM     14  NH1 ARG A   1     -23.963  -1.732 -13.833  1.00  0.00    -0.376 N 
ATOM     15  NH2 ARG A   1     -22.694  -2.696 -15.400  1.00  0.00    -0.274 NA
ATOM     16 HH11 ARG A   1     -24.359  -1.750 -12.904  1.00  0.00     0.158 HD
ATOM     17 HH12 ARG A   1     -24.652  -1.593 -14.557  1.00  0.00     0.158 HD
ATOM     18 HH21 ARG A   1     -22.066  -3.465 -15.609  1.00  0.00     0.127 HD
ATOM     19 HH22 ARG A   1     -23.455  -2.609 -16.055  1.00  0.00     0.127 HD
ATOM     20  HE  ARG A   1     -21.591  -3.982 -13.588  1.00  0.00     0.162 HD
ENDBRANCH  11  12
ENDBRANCH   1  11
TORSDOF 7
ENDMDL
MODEL 9
REMARK VINA RESULT:      -5.7      3.038      3.342
REMARK  7 active torsions:
REMARK  status: ('A' for Active; 'I' for Inactive)
REMARK    1  A    between atoms: CG_1  and  CB_2 
REMARK    2  A    between atoms: CG_1  and  CD_8 
REMARK    3  A    between atoms: CB_2  and  CA_3 
REMARK    4  A    between atoms: CA_3  and  C_4 
REMARK    5  A    between atoms: CA_3  and  N_7 
REMARK    6  A    between atoms: C_4  and  OXT_6 
REMARK    7  A    between atoms: CD_8  and  NE_9 
REMARK       I    between atoms: NE_9  and  CZ_11 
REMARK       I    between atoms: CZ_11  and  NH2_13 
ROOT
ATOM      1  CG  ARG A   1     -20.953  -4.375 -10.954  1.00  0.00     0.022 C 
ENDROOT
BRANCH   1   2
ATOM      2  CB  ARG A   1     -20.620  -4.004  -9.508  1.00  0.00     0.048 C 
BRANCH   2   3
ATOM      3  CA  ARG A   1     -21.543  -4.674  -8.484  1.00  0.00     0.314 C 
BRANCH   3   4
ATOM      4  C   ARG A   1     -20.750  -5.336  -7.341  1.00  0.00     0.173 C 
ATOM      5  O   ARG A   1     -20.018  -6.306  -7.492  1.00  0.00    -0.648 OA
BRANCH   4   6
ATOM      6  OXT ARG A   1     -20.908  -4.733  -6.142  1.00  0.00    -0.775 OA
ATOM      7  HXT ARG A   1     -20.267  -5.016  -5.463  1.00  0.00     0.167 HD
ENDBRANCH   4   6
ENDBRANCH   3   4
BRANCH   3   8
ATOM      8  N   ARG A   1     -22.446  -3.645  -7.919  1.00  0.00     0.093 N 
ATOM      9  H1  ARG A   1     -23.403  -3.890  -8.197  1.00  0.00     0.314 HD
ATOM     10  H2  ARG A   1     -22.278  -2.763  -8.409  1.00  0.00     0.314 HD
ENDBRANCH   3   8
ENDBRANCH   2   3
ENDBRANCH   1   2
BRANCH   1  11
ATOM     11  CD  ARG A   1     -21.992  -3.429 -11.557  1.00  0.00     0.122 C 
BRANCH  11  12
ATOM     12  NE  ARG A   1     -21.917  -3.552 -13.008  1.00  0.00    -0.367 N 
ATOM     13  CZ  ARG A   1     -22.761  -2.897 -13.715  1.00  0.00     0.143 C 
ATOM     14  NH1 ARG A   1     -23.769  -2.096 -13.311  1.00  0.00    -0.376 N 
ATOM     15  NH2 ARG A   1     -22.656  -2.932 -15.060  1.00  0.00    -0.274 NA
ATOM     16 HH11 ARG A   1     -24.029  -2.158 -12.338  1.00  0.00     0.158 HD
ATOM     17 HH12 ARG A   1     -24.560  -2.005 -13.930  1.00  0.00     0.158 HD
ATOM     18 HH21 ARG A   1     -22.003  -3.643 -15.371  1.00  0.00     0.127 HD
ATOM     19 HH22 ARG A   1     -23.504  -2.900 -15.602  1.00  0.00     0.127 HD
ATOM     20  HE  ARG A   1     -21.212  -4.144 -13.448  1.00  0.00     0.162 HD
ENDBRANCH  11  12
ENDBRANCH   1  11
TORSDOF 7
ENDMDL
