MODEL 1
REMARK VINA RESULT:      -5.9      0.000      0.000
REMARK  11 active torsions:
REMARK  status: ('A' for Active; 'I' for Inactive)
REMARK    1  A    between atoms: C_2  and  C_3 
REMARK    2  A    between atoms: C_3  and  C_4 
REMARK    3  A    between atoms: C_4  and  C_5 
REMARK    4  A    between atoms: C_5  and  C_6 
REMARK    5  A    between atoms: C_6  and  C_7 
REMARK    6  A    between atoms: C_7  and  C_8 
REMARK    7  A    between atoms: C_8  and  C_9 
REMARK    8  A    between atoms: C_9  and  C_10 
REMARK    9  A    between atoms: C_10  and  C_11 
REMARK   10  A    between atoms: C_11  and  C_12 
REMARK   11  A    between atoms: C_12  and  N_13 
ROOT
HETATM    1  C   UNL     1     -20.086  -5.424  -6.474  1.00  0.00     0.000 C 
ENDROOT
BRANCH   1   2
HETATM    2  C   UNL     1     -20.725  -5.704  -5.118  1.00  0.00     0.000 C 
BRANCH   2   3
HETATM    3  C   UNL     1     -20.757  -7.202  -4.849  1.00  0.00     0.000 C 
BRANCH   3   4
HETATM    4  C   UNL     1     -21.463  -7.497  -3.533  1.00  0.00     0.000 C 
BRANCH   4   5
HETATM    5  C   UNL     1     -21.854  -6.197  -2.840  1.00  0.00     0.000 C 
BRANCH   5   6
HETATM    6  C   UNL     1     -22.259  -6.459  -1.394  1.00  0.00    -0.000 C 
BRANCH   6   7
HETATM    7  C   UNL     1     -21.788  -7.837  -0.937  1.00  0.00    -0.005 C 
HETATM    8  C   UNL     1     -22.296  -8.144   0.460  1.00  0.00     0.005 C 
ENDBRANCH   6   7
ENDBRANCH   5   6
ENDBRANCH   4   5
ENDBRANCH   3   4
ENDBRANCH   2   3
ENDBRANCH   1   2
BRANCH   1   9
HETATM    9  C   UNL     1     -20.541  -4.071  -7.000  1.00  0.00     0.000 C 
BRANCH   9  10
HETATM   10  C   UNL     1     -22.009  -4.103  -7.410  1.00  0.00     0.002 C 
BRANCH  10  11
HETATM   11  C   UNL     1     -22.130  -4.732  -8.792  1.00  0.00     0.036 C 
BRANCH  11  12
HETATM   12  C   UNL     1     -22.325  -3.686  -9.885  1.00  0.00     0.311 C 
BRANCH  12  13
HETATM   13  N   UNL     1     -23.644  -3.829 -10.630  1.00  0.00     0.005 N 
HETATM   14  C   UNL     1     -24.800  -3.398  -9.769  1.00  0.00     0.355 C 
HETATM   15  C   UNL     1     -23.610  -2.968 -11.863  1.00  0.00     0.355 C 
HETATM   16  O   UNL     1     -23.825  -5.133 -11.019  1.00  0.00    -0.065 OA
ENDBRANCH  12  13
ENDBRANCH  11  12
ENDBRANCH  10  11
ENDBRANCH   9  10
ENDBRANCH   1   9
TORSDOF 11
ENDMDL
MODEL 2
REMARK VINA RESULT:      -5.6      4.120      8.653
REMARK  11 active torsions:
REMARK  status: ('A' for Active; 'I' for Inactive)
REMARK    1  A    between atoms: C_2  and  C_3 
REMARK    2  A    between atoms: C_3  and  C_4 
REMARK    3  A    between atoms: C_4  and  C_5 
REMARK    4  A    between atoms: C_5  and  C_6 
REMARK    5  A    between atoms: C_6  and  C_7 
REMARK    6  A    between atoms: C_7  and  C_8 
REMARK    7  A    between atoms: C_8  and  C_9 
REMARK    8  A    between atoms: C_9  and  C_10 
REMARK    9  A    between atoms: C_10  and  C_11 
REMARK   10  A    between atoms: C_11  and  C_12 
REMARK   11  A    between atoms: C_12  and  N_13 
ROOT
HETATM    1  C   UNL     1     -20.974  -6.521  -5.208  1.00  0.00     0.000 C 
ENDROOT
BRANCH   1   2
HETATM    2  C   UNL     1     -20.406  -5.107  -5.189  1.00  0.00     0.000 C 
BRANCH   2   3
HETATM    3  C   UNL     1     -20.374  -4.532  -6.599  1.00  0.00     0.000 C 
BRANCH   3   4
HETATM    4  C   UNL     1     -21.782  -4.411  -7.163  1.00  0.00     0.000 C 
BRANCH   4   5
HETATM    5  C   UNL     1     -21.797  -4.799  -8.637  1.00  0.00     0.000 C 
BRANCH   5   6
HETATM    6  C   UNL     1     -22.459  -3.711  -9.474  1.00  0.00    -0.000 C 
BRANCH   6   7
HETATM    7  C   UNL     1     -21.946  -3.741 -10.911  1.00  0.00    -0.005 C 
HETATM    8  C   UNL     1     -20.479  -4.126 -10.951  1.00  0.00     0.005 C 
ENDBRANCH   6   7
ENDBRANCH   5   6
ENDBRANCH   4   5
ENDBRANCH   3   4
ENDBRANCH   2   3
ENDBRANCH   1   2
BRANCH   1   9
HETATM    9  C   UNL     1     -21.960  -6.708  -4.065  1.00  0.00     0.000 C 
BRANCH   9  10
HETATM   10  C   UNL     1     -21.490  -5.985  -2.806  1.00  0.00     0.002 C 
BRANCH  10  11
HETATM   11  C   UNL     1     -22.072  -6.680  -1.583  1.00  0.00     0.036 C 
BRANCH  11  12
HETATM   12  C   UNL     1     -21.325  -7.966  -1.243  1.00  0.00     0.311 C 
BRANCH  12  13
HETATM   13  N   UNL     1     -22.107  -8.896  -0.327  1.00  0.00     0.005 N 
HETATM   14  C   UNL     1     -21.192  -9.593   0.644  1.00  0.00     0.355 C 
HETATM   15  C   UNL     1     -23.115  -8.091   0.449  1.00  0.00     0.355 C 
HETATM   16  O   UNL     1     -22.782  -9.831  -1.072  1.00  0.00    -0.065 OA
ENDBRANCH  12  13
ENDBRANCH  11  12
ENDBRANCH  10  11
ENDBRANCH   9  10
ENDBRANCH   1   9
TORSDOF 11
ENDMDL
MODEL 3
REMARK VINA RESULT:      -5.6      1.821      3.119
REMARK  11 active torsions:
REMARK  status: ('A' for Active; 'I' for Inactive)
REMARK    1  A    between atoms: C_2  and  C_3 
REMARK    2  A    between atoms: C_3  and  C_4 
REMARK    3  A    between atoms: C_4  and  C_5 
REMARK    4  A    between atoms: C_5  and  C_6 
REMARK    5  A    between atoms: C_6  and  C_7 
REMARK    6  A    between atoms: C_7  and  C_8 
REMARK    7  A    between atoms: C_8  and  C_9 
REMARK    8  A    between atoms: C_9  and  C_10 
REMARK    9  A    between atoms: C_10  and  C_11 
REMARK   10  A    between atoms: C_11  and  C_12 
REMARK   11  A    between atoms: C_12  and  N_13 
ROOT
HETATM    1  C   UNL     1     -20.979  -7.332  -4.489  1.00  0.00     0.000 C 
ENDROOT
BRANCH   1   2
HETATM    2  C   UNL     1     -20.991  -7.380  -2.966  1.00  0.00     0.000 C 
BRANCH   2   3
HETATM    3  C   UNL     1     -21.942  -6.326  -2.412  1.00  0.00     0.000 C 
BRANCH   3   4
HETATM    4  C   UNL     1     -22.384  -6.689  -1.002  1.00  0.00     0.000 C 
BRANCH   4   5
HETATM    5  C   UNL     1     -21.553  -7.850  -0.468  1.00  0.00     0.000 C 
BRANCH   5   6
HETATM    6  C   UNL     1     -22.352  -8.667   0.540  1.00  0.00    -0.000 C 
BRANCH   6   7
HETATM    7  C   UNL     1     -23.272  -9.657  -0.169  1.00  0.00    -0.005 C 
HETATM    8  C   UNL     1     -22.553 -10.330  -1.324  1.00  0.00     0.005 C 
ENDBRANCH   6   7
ENDBRANCH   5   6
ENDBRANCH   4   5
ENDBRANCH   3   4
ENDBRANCH   2   3
ENDBRANCH   1   2
BRANCH   1   9
HETATM    9  C   UNL     1     -21.522  -5.998  -4.978  1.00  0.00     0.000 C 
BRANCH   9  10
HETATM   10  C   UNL     1     -20.392  -5.046  -5.355  1.00  0.00     0.002 C 
BRANCH  10  11
HETATM   11  C   UNL     1     -19.953  -5.331  -6.785  1.00  0.00     0.036 C 
BRANCH  11  12
HETATM   12  C   UNL     1     -21.138  -5.585  -7.710  1.00  0.00     0.311 C 
BRANCH  12  13
HETATM   13  N   UNL     1     -21.504  -4.383  -8.569  1.00  0.00     0.005 N 
HETATM   14  C   UNL     1     -20.389  -4.040  -9.519  1.00  0.00     0.355 C 
HETATM   15  C   UNL     1     -22.739  -4.704  -9.366  1.00  0.00     0.355 C 
HETATM   16  O   UNL     1     -21.774  -3.300  -7.770  1.00  0.00    -0.065 OA
ENDBRANCH  12  13
ENDBRANCH  11  12
ENDBRANCH  10  11
ENDBRANCH   9  10
ENDBRANCH   1   9
TORSDOF 11
ENDMDL
MODEL 4
REMARK VINA RESULT:      -5.4      3.426      7.895
REMARK  11 active torsions:
REMARK  status: ('A' for Active; 'I' for Inactive)
REMARK    1  A    between atoms: C_2  and  C_3 
REMARK    2  A    between atoms: C_3  and  C_4 
REMARK    3  A    between atoms: C_4  and  C_5 
REMARK    4  A    between atoms: C_5  and  C_6 
REMARK    5  A    between atoms: C_6  and  C_7 
REMARK    6  A    between atoms: C_7  and  C_8 
REMARK    7  A    between atoms: C_8  and  C_9 
REMARK    8  A    between atoms: C_9  and  C_10 
REMARK    9  A    between atoms: C_10  and  C_11 
REMARK   10  A    between atoms: C_11  and  C_12 
REMARK   11  A    between atoms: C_12  and  N_13 
ROOT
HETATM    1  C   UNL     1     -19.633  -4.228  -7.797  1.00  0.00     0.000 C 
ENDROOT
BRANCH   1   2
HETATM    2  C   UNL     1     -20.806  -4.150  -8.767  1.00  0.00     0.000 C 
BRANCH   2   3
HETATM    3  C   UNL     1     -20.356  -4.524 -10.172  1.00  0.00     0.000 C 
BRANCH   3   4
HETATM    4  C   UNL     1     -20.636  -3.390 -11.147  1.00  0.00     0.000 C 
BRANCH   4   5
HETATM    5  C   UNL     1     -21.829  -3.734 -12.031  1.00  0.00     0.000 C 
BRANCH   5   6
HETATM    6  C   UNL     1     -23.051  -2.919 -11.626  1.00  0.00    -0.000 C 
BRANCH   6   7
HETATM    7  C   UNL     1     -24.113  -3.810 -10.988  1.00  0.00    -0.005 C 
HETATM    8  C   UNL     1     -24.451  -3.329  -9.589  1.00  0.00     0.005 C 
ENDBRANCH   6   7
ENDBRANCH   5   6
ENDBRANCH   4   5
ENDBRANCH   3   4
ENDBRANCH   2   3
ENDBRANCH   1   2
BRANCH   1   9
HETATM    9  C   UNL     1     -20.102  -4.737  -6.443  1.00  0.00     0.000 C 
BRANCH   9  10
HETATM   10  C   UNL     1     -19.919  -6.247  -6.328  1.00  0.00     0.002 C 
BRANCH  10  11
HETATM   11  C   UNL     1     -21.238  -6.882  -5.908  1.00  0.00     0.036 C 
BRANCH  11  12
HETATM   12  C   UNL     1     -21.153  -7.524  -4.527  1.00  0.00     0.311 C 
BRANCH  12  13
HETATM   13  N   UNL     1     -20.822  -9.009  -4.571  1.00  0.00     0.005 N 
HETATM   14  C   UNL     1     -19.395  -9.256  -4.161  1.00  0.00     0.355 C 
HETATM   15  C   UNL     1     -21.732  -9.745  -3.627  1.00  0.00     0.355 C 
HETATM   16  O   UNL     1     -21.025  -9.498  -5.837  1.00  0.00    -0.065 OA
ENDBRANCH  12  13
ENDBRANCH  11  12
ENDBRANCH  10  11
ENDBRANCH   9  10
ENDBRANCH   1   9
TORSDOF 11
ENDMDL
MODEL 5
REMARK VINA RESULT:      -5.4      2.811      5.580
REMARK  11 active torsions:
REMARK  status: ('A' for Active; 'I' for Inactive)
REMARK    1  A    between atoms: C_2  and  C_3 
REMARK    2  A    between atoms: C_3  and  C_4 
REMARK    3  A    between atoms: C_4  and  C_5 
REMARK    4  A    between atoms: C_5  and  C_6 
REMARK    5  A    between atoms: C_6  and  C_7 
REMARK    6  A    between atoms: C_7  and  C_8 
REMARK    7  A    between atoms: C_8  and  C_9 
REMARK    8  A    between atoms: C_9  and  C_10 
REMARK    9  A    between atoms: C_10  and  C_11 
REMARK   10  A    between atoms: C_11  and  C_12 
REMARK   11  A    between atoms: C_12  and  N_13 
ROOT
HETATM    1  C   UNL     1     -21.636  -7.859  -0.484  1.00  0.00     0.000 C 
ENDROOT
BRANCH   1   2
HETATM    2  C   UNL     1     -22.723  -7.838   0.584  1.00  0.00     0.000 C 
BRANCH   2   3
HETATM    3  C   UNL     1     -23.659  -9.027   0.408  1.00  0.00     0.000 C 
BRANCH   3   4
HETATM    4  C   UNL     1     -22.890 -10.251  -0.067  1.00  0.00     0.000 C 
BRANCH   4   5
HETATM    5  C   UNL     1     -23.856 -11.354  -0.484  1.00  0.00     0.000 C 
BRANCH   5   6
HETATM    6  C   UNL     1     -23.384 -12.025  -1.768  1.00  0.00    -0.000 C 
BRANCH   6   7
HETATM    7  C   UNL     1     -22.183 -11.291  -2.357  1.00  0.00    -0.005 C 
HETATM    8  C   UNL     1     -22.482 -10.812  -3.766  1.00  0.00     0.005 C 
ENDBRANCH   6   7
ENDBRANCH   5   6
ENDBRANCH   4   5
ENDBRANCH   3   4
ENDBRANCH   2   3
ENDBRANCH   1   2
BRANCH   1   9
HETATM    9  C   UNL     1     -21.931  -6.821  -1.556  1.00  0.00     0.000 C 
BRANCH   9  10
HETATM   10  C   UNL     1     -21.534  -7.327  -2.939  1.00  0.00     0.002 C 
BRANCH  10  11
HETATM   11  C   UNL     1     -21.321  -6.137  -3.865  1.00  0.00     0.036 C 
BRANCH  11  12
HETATM   12  C   UNL     1     -21.993  -6.336  -5.220  1.00  0.00     0.311 C 
BRANCH  12  13
HETATM   13  N   UNL     1     -21.324  -5.561  -6.346  1.00  0.00     0.005 N 
HETATM   14  C   UNL     1     -22.314  -4.675  -7.053  1.00  0.00     0.355 C 
HETATM   15  C   UNL     1     -20.229  -4.704  -5.772  1.00  0.00     0.355 C 
HETATM   16  O   UNL     1     -20.765  -6.432  -7.247  1.00  0.00    -0.065 OA
ENDBRANCH  12  13
ENDBRANCH  11  12
ENDBRANCH  10  11
ENDBRANCH   9  10
ENDBRANCH   1   9
TORSDOF 11
ENDMDL
MODEL 6
REMARK VINA RESULT:      -5.4      4.594      8.528
REMARK  11 active torsions:
REMARK  status: ('A' for Active; 'I' for Inactive)
REMARK    1  A    between atoms: C_2  and  C_3 
REMARK    2  A    between atoms: C_3  and  C_4 
REMARK    3  A    between atoms: C_4  and  C_5 
REMARK    4  A    between atoms: C_5  and  C_6 
REMARK    5  A    between atoms: C_6  and  C_7 
REMARK    6  A    between atoms: C_7  and  C_8 
REMARK    7  A    between atoms: C_8  and  C_9 
REMARK    8  A    between atoms: C_9  and  C_10 
REMARK    9  A    between atoms: C_10  and  C_11 
REMARK   10  A    between atoms: C_11  and  C_12 
REMARK   11  A    between atoms: C_12  and  N_13 
ROOT
HETATM    1  C   UNL     1     -22.206  -6.224  -1.938  1.00  0.00     0.000 C 
ENDROOT
BRANCH   1   2
HETATM    2  C   UNL     1     -21.333  -6.041  -3.173  1.00  0.00     0.000 C 
BRANCH   2   3
HETATM    3  C   UNL     1     -22.039  -6.590  -4.405  1.00  0.00     0.000 C 
BRANCH   3   4
HETATM    4  C   UNL     1     -21.185  -6.387  -5.649  1.00  0.00     0.000 C 
BRANCH   4   5
HETATM    5  C   UNL     1     -20.426  -5.069  -5.560  1.00  0.00     0.000 C 
BRANCH   5   6
HETATM    6  C   UNL     1     -20.750  -4.179  -6.755  1.00  0.00    -0.000 C 
BRANCH   6   7
HETATM    7  C   UNL     1     -21.500  -4.962  -7.829  1.00  0.00    -0.005 C 
HETATM    8  C   UNL     1     -22.502  -4.072  -8.543  1.00  0.00     0.005 C 
ENDBRANCH   6   7
ENDBRANCH   5   6
ENDBRANCH   4   5
ENDBRANCH   3   4
ENDBRANCH   2   3
ENDBRANCH   1   2
BRANCH   1   9
HETATM    9  C   UNL     1     -21.824  -7.503  -1.208  1.00  0.00     0.000 C 
BRANCH   9  10
HETATM   10  C   UNL     1     -22.717  -7.734   0.006  1.00  0.00     0.002 C 
BRANCH  10  11
HETATM   11  C   UNL     1     -23.052  -9.217   0.107  1.00  0.00     0.036 C 
BRANCH  11  12
HETATM   12  C   UNL     1     -22.003 -10.090  -0.572  1.00  0.00     0.311 C 
BRANCH  12  13
HETATM   13  N   UNL     1     -22.599 -11.228  -1.388  1.00  0.00     0.005 N 
HETATM   14  C   UNL     1     -24.046 -11.445  -1.035  1.00  0.00     0.355 C 
HETATM   15  C   UNL     1     -22.503 -10.889  -2.851  1.00  0.00     0.355 C 
HETATM   16  O   UNL     1     -21.895 -12.385  -1.165  1.00  0.00    -0.065 OA
ENDBRANCH  12  13
ENDBRANCH  11  12
ENDBRANCH  10  11
ENDBRANCH   9  10
ENDBRANCH   1   9
TORSDOF 11
ENDMDL
MODEL 7
REMARK VINA RESULT:      -5.1      4.543      8.876
REMARK  11 active torsions:
REMARK  status: ('A' for Active; 'I' for Inactive)
REMARK    1  A    between atoms: C_2  and  C_3 
REMARK    2  A    between atoms: C_3  and  C_4 
REMARK    3  A    between atoms: C_4  and  C_5 
REMARK    4  A    between atoms: C_5  and  C_6 
REMARK    5  A    between atoms: C_6  and  C_7 
REMARK    6  A    between atoms: C_7  and  C_8 
REMARK    7  A    between atoms: C_8  and  C_9 
REMARK    8  A    between atoms: C_9  and  C_10 
REMARK    9  A    between atoms: C_10  and  C_11 
REMARK   10  A    between atoms: C_11  and  C_12 
REMARK   11  A    between atoms: C_12  and  N_13 
ROOT
HETATM    1  C   UNL     1     -21.683  -6.941  -3.576  1.00  0.00     0.000 C 
ENDROOT
BRANCH   1   2
HETATM    2  C   UNL     1     -21.508  -6.084  -4.824  1.00  0.00     0.000 C 
BRANCH   2   3
HETATM    3  C   UNL     1     -20.334  -6.589  -5.651  1.00  0.00     0.000 C 
BRANCH   3   4
HETATM    4  C   UNL     1     -20.370  -5.997  -7.053  1.00  0.00     0.000 C 
BRANCH   4   5
HETATM    5  C   UNL     1     -20.371  -4.474  -6.985  1.00  0.00     0.000 C 
BRANCH   5   6
HETATM    6  C   UNL     1     -19.835  -3.877  -8.280  1.00  0.00    -0.000 C 
BRANCH   6   7
HETATM    7  C   UNL     1     -20.299  -4.688  -9.487  1.00  0.00    -0.005 C 
HETATM    8  C   UNL     1     -20.553  -3.783 -10.679  1.00  0.00     0.005 C 
ENDBRANCH   6   7
ENDBRANCH   5   6
ENDBRANCH   4   5
ENDBRANCH   3   4
ENDBRANCH   2   3
ENDBRANCH   1   2
BRANCH   1   9
HETATM    9  C   UNL     1     -21.774  -6.059  -2.340  1.00  0.00     0.000 C 
BRANCH   9  10
HETATM   10  C   UNL     1     -22.364  -6.823  -1.159  1.00  0.00     0.002 C 
BRANCH  10  11
HETATM   11  C   UNL     1     -21.466  -8.008  -0.830  1.00  0.00     0.036 C 
BRANCH  11  12
HETATM   12  C   UNL     1     -22.264  -9.289  -0.610  1.00  0.00     0.311 C 
BRANCH  12  13
HETATM   13  N   UNL     1     -21.426 -10.553  -0.742  1.00  0.00     0.005 N 
HETATM   14  C   UNL     1     -20.117 -10.264  -1.425  1.00  0.00     0.355 C 
HETATM   15  C   UNL     1     -21.146 -11.105   0.629  1.00  0.00     0.355 C 
HETATM   16  O   UNL     1     -22.116 -11.501  -1.457  1.00  0.00    -0.065 OA
ENDBRANCH  12  13
ENDBRANCH  11  12
ENDBRANCH  10  11
ENDBRANCH   9  10
ENDBRANCH   1   9
TORSDOF 11
ENDMDL
MODEL 8
REMARK VINA RESULT:      -5.1     11.716     14.770
REMARK  11 active torsions:
REMARK  status: ('A' for Active; 'I' for Inactive)
REMARK    1  A    between atoms: C_2  and  C_3 
REMARK    2  A    between atoms: C_3  and  C_4 
REMARK    3  A    between atoms: C_4  and  C_5 
REMARK    4  A    between atoms: C_5  and  C_6 
REMARK    5  A    between atoms: C_6  and  C_7 
REMARK    6  A    between atoms: C_7  and  C_8 
REMARK    7  A    between atoms: C_8  and  C_9 
REMARK    8  A    between atoms: C_9  and  C_10 
REMARK    9  A    between atoms: C_10  and  C_11 
REMARK   10  A    between atoms: C_11  and  C_12 
REMARK   11  A    between atoms: C_12  and  N_13 
ROOT
HETATM    1  C   UNL     1     -24.669  -6.944 -17.307  1.00  0.00     0.000 C 
ENDROOT
BRANCH   1   2
HETATM    2  C   UNL     1     -24.435  -7.148 -18.800  1.00  0.00     0.000 C 
BRANCH   2   3
HETATM    3  C   UNL     1     -25.542  -6.479 -19.603  1.00  0.00     0.000 C 
BRANCH   3   4
HETATM    4  C   UNL     1     -25.870  -7.292 -20.847  1.00  0.00     0.000 C 
BRANCH   4   5
HETATM    5  C   UNL     1     -24.701  -8.200 -21.209  1.00  0.00     0.000 C 
BRANCH   5   6
HETATM    6  C   UNL     1     -24.026  -7.724 -22.490  1.00  0.00    -0.000 C 
BRANCH   6   7
HETATM    7  C   UNL     1     -22.791  -8.566 -22.800  1.00  0.00    -0.005 C 
HETATM    8  C   UNL     1     -21.942  -8.756 -21.556  1.00  0.00     0.005 C 
ENDBRANCH   6   7
ENDBRANCH   5   6
ENDBRANCH   4   5
ENDBRANCH   3   4
ENDBRANCH   2   3
ENDBRANCH   1   2
BRANCH   1   9
HETATM    9  C   UNL     1     -26.054  -6.364 -17.066  1.00  0.00     0.000 C 
BRANCH   9  10
HETATM   10  C   UNL     1     -26.670  -6.920 -15.786  1.00  0.00     0.002 C 
BRANCH  10  11
HETATM   11  C   UNL     1     -28.157  -6.591 -15.762  1.00  0.00     0.036 C 
BRANCH  11  12
HETATM   12  C   UNL     1     -28.954  -7.461 -16.727  1.00  0.00     0.311 C 
BRANCH  12  13
HETATM   13  N   UNL     1     -29.850  -6.663 -17.663  1.00  0.00     0.005 N 
HETATM   14  C   UNL     1     -30.689  -7.575 -18.516  1.00  0.00     0.355 C 
HETATM   15  C   UNL     1     -30.762  -5.789 -16.846  1.00  0.00     0.355 C 
HETATM   16  O   UNL     1     -29.086  -5.856 -18.469  1.00  0.00    -0.065 OA
ENDBRANCH  12  13
ENDBRANCH  11  12
ENDBRANCH  10  11
ENDBRANCH   9  10
ENDBRANCH   1   9
TORSDOF 11
ENDMDL
MODEL 9
REMARK VINA RESULT:      -5.0     12.952     16.359
REMARK  11 active torsions:
REMARK  status: ('A' for Active; 'I' for Inactive)
REMARK    1  A    between atoms: C_2  and  C_3 
REMARK    2  A    between atoms: C_3  and  C_4 
REMARK    3  A    between atoms: C_4  and  C_5 
REMARK    4  A    between atoms: C_5  and  C_6 
REMARK    5  A    between atoms: C_6  and  C_7 
REMARK    6  A    between atoms: C_7  and  C_8 
REMARK    7  A    between atoms: C_8  and  C_9 
REMARK    8  A    between atoms: C_9  and  C_10 
REMARK    9  A    between atoms: C_10  and  C_11 
REMARK   10  A    between atoms: C_11  and  C_12 
REMARK   11  A    between atoms: C_12  and  N_13 
ROOT
HETATM    1  C   UNL     1     -35.719  -0.542 -10.827  1.00  0.00     0.000 C 
ENDROOT
BRANCH   1   2
HETATM    2  C   UNL     1     -37.069  -0.644 -11.527  1.00  0.00     0.000 C 
BRANCH   2   3
HETATM    3  C   UNL     1     -36.933  -0.255 -12.994  1.00  0.00     0.000 C 
BRANCH   3   4
HETATM    4  C   UNL     1     -35.554   0.326 -13.271  1.00  0.00     0.000 C 
BRANCH   4   5
HETATM    5  C   UNL     1     -35.399   0.638 -14.754  1.00  0.00     0.000 C 
BRANCH   5   6
HETATM    6  C   UNL     1     -36.696   0.353 -15.503  1.00  0.00    -0.000 C 
BRANCH   6   7
HETATM    7  C   UNL     1     -36.451  -0.592 -16.676  1.00  0.00    -0.005 C 
HETATM    8  C   UNL     1     -35.254  -1.486 -16.408  1.00  0.00     0.005 C 
ENDBRANCH   6   7
ENDBRANCH   5   6
ENDBRANCH   4   5
ENDBRANCH   3   4
ENDBRANCH   2   3
ENDBRANCH   1   2
BRANCH   1   9
HETATM    9  C   UNL     1     -35.115  -1.926 -10.645  1.00  0.00     0.000 C 
BRANCH   9  10
HETATM   10  C   UNL     1     -33.637  -1.938 -11.018  1.00  0.00     0.002 C 
BRANCH  10  11
HETATM   11  C   UNL     1     -33.159  -3.379 -11.128  1.00  0.00     0.036 C 
BRANCH  11  12
HETATM   12  C   UNL     1     -34.072  -4.346 -10.382  1.00  0.00     0.311 C 
BRANCH  12  13
HETATM   13  N   UNL     1     -34.114  -5.737 -10.999  1.00  0.00     0.005 N 
HETATM   14  C   UNL     1     -34.792  -6.715 -10.079  1.00  0.00     0.355 C 
HETATM   15  C   UNL     1     -34.879  -5.679 -12.293  1.00  0.00     0.355 C 
HETATM   16  O   UNL     1     -32.840  -6.169 -11.269  1.00  0.00    -0.065 OA
ENDBRANCH  12  13
ENDBRANCH  11  12
ENDBRANCH  10  11
ENDBRANCH   9  10
ENDBRANCH   1   9
TORSDOF 11
ENDMDL
