MODEL 1
REMARK VINA RESULT:      -7.1      0.000      0.000
REMARK  8 active torsions:
REMARK  status: ('A' for Active; 'I' for Inactive)
REMARK    1  A    between atoms: C_2  and  C_3 
REMARK    2  A    between atoms: C_3  and  C_4 
REMARK    3  A    between atoms: C_4  and  C_5 
REMARK    4  A    between atoms: C_5  and  C_6 
REMARK    5  A    between atoms: C_8  and  O_23 
REMARK    6  A    between atoms: C_9  and  C_13 
REMARK    7  A    between atoms: C_10  and  O_12 
REMARK    8  A    between atoms: C_18  and  C_19 
ROOT
HETATM    1  C   UNL     1     -21.025  -6.398  -4.738  1.00  0.00    -0.053 A 
HETATM    2  C   UNL     1     -21.012  -7.530  -5.553  1.00  0.00     0.044 A 
HETATM    3  C   UNL     1     -21.167  -8.800  -5.004  1.00  0.00     0.075 A 
HETATM    4  C   UNL     1     -21.345  -8.999  -3.622  1.00  0.00     0.017 A 
HETATM    5  C   UNL     1     -21.363  -7.842  -2.822  1.00  0.00     0.075 A 
HETATM    6  C   UNL     1     -21.189  -6.566  -3.364  1.00  0.00     0.044 A 
ENDROOT
BRANCH   4   7
HETATM    7  C   UNL     1     -21.435 -10.400  -3.010  1.00  0.00     0.055 C 
HETATM    8  C   UNL     1     -22.705 -10.530  -2.201  1.00  0.00    -0.014 C 
HETATM    9  C   UNL     1     -22.736 -10.655  -0.865  1.00  0.00    -0.087 C 
HETATM   10  C   UNL     1     -21.485 -10.740  -0.028  1.00  0.00     0.034 C 
HETATM   11  C   UNL     1     -24.038 -10.637  -0.116  1.00  0.00     0.043 C 
HETATM   12  C   UNL     1     -20.155 -10.495  -0.755  1.00  0.00     0.014 C 
HETATM   13  C   UNL     1     -20.168 -10.903  -2.243  1.00  0.00     0.026 C 
BRANCH  13  14
HETATM   14  C   UNL     1     -18.855 -10.636  -2.990  1.00  0.00    -0.088 C 
HETATM   15  C   UNL     1     -17.997  -9.643  -2.695  1.00  0.00     0.014 C 
HETATM   16  C   UNL     1     -18.527 -11.558  -4.138  1.00  0.00     0.043 C 
ENDBRANCH  13  14
ENDBRANCH   4   7
BRANCH   3  17
HETATM   17  O   UNL     1     -21.122  -9.860  -5.862  1.00  0.00    -0.360 OA
HETATM   18  H   UNL     1     -20.513  -9.666  -6.591  1.00  0.00     0.217 HD
ENDBRANCH   3  17
BRANCH   5  19
HETATM   19  O   UNL     1     -21.550  -7.869  -1.466  1.00  0.00    -0.360 OA
HETATM   20  H   UNL     1     -20.698  -8.077  -1.052  1.00  0.00     0.217 HD
ENDBRANCH   5  19
BRANCH   1  21
HETATM   21  C   UNL     1     -20.895  -5.033  -5.354  1.00  0.00     0.039 C 
BRANCH  21  22
HETATM   22  C   UNL     1     -19.766  -5.011  -6.385  1.00  0.00     0.005 C 
BRANCH  22  23
HETATM   23  C   UNL     1     -20.197  -4.304  -7.665  1.00  0.00    -0.000 C 
BRANCH  23  24
HETATM   24  C   UNL     1     -21.568  -3.653  -7.485  1.00  0.00    -0.005 C 
HETATM   25  C   UNL     1     -22.500  -4.021  -8.625  1.00  0.00     0.005 C 
ENDBRANCH  23  24
ENDBRANCH  22  23
ENDBRANCH  21  22
ENDBRANCH   1  21
TORSDOF 8
ENDMDL
MODEL 2
REMARK VINA RESULT:      -6.9      1.898      4.027
REMARK  8 active torsions:
REMARK  status: ('A' for Active; 'I' for Inactive)
REMARK    1  A    between atoms: C_2  and  C_3 
REMARK    2  A    between atoms: C_3  and  C_4 
REMARK    3  A    between atoms: C_4  and  C_5 
REMARK    4  A    between atoms: C_5  and  C_6 
REMARK    5  A    between atoms: C_8  and  O_23 
REMARK    6  A    between atoms: C_9  and  C_13 
REMARK    7  A    between atoms: C_10  and  O_12 
REMARK    8  A    between atoms: C_18  and  C_19 
ROOT
HETATM    1  C   UNL     1     -21.199  -7.166  -2.617  1.00  0.00    -0.053 A 
HETATM    2  C   UNL     1     -21.858  -7.089  -1.391  1.00  0.00     0.044 A 
HETATM    3  C   UNL     1     -21.782  -8.139  -0.479  1.00  0.00     0.075 A 
HETATM    4  C   UNL     1     -21.046  -9.308  -0.746  1.00  0.00     0.017 A 
HETATM    5  C   UNL     1     -20.384  -9.359  -1.987  1.00  0.00     0.075 A 
HETATM    6  C   UNL     1     -20.471  -8.317  -2.914  1.00  0.00     0.044 A 
ENDROOT
BRANCH   4   7
HETATM    7  C   UNL     1     -21.029 -10.495   0.222  1.00  0.00     0.055 C 
HETATM    8  C   UNL     1     -19.604 -10.848   0.581  1.00  0.00    -0.014 C 
HETATM    9  C   UNL     1     -18.993 -11.983   0.208  1.00  0.00    -0.087 C 
HETATM   10  C   UNL     1     -19.697 -13.065  -0.571  1.00  0.00     0.034 C 
HETATM   11  C   UNL     1     -17.533 -12.202   0.481  1.00  0.00     0.043 C 
HETATM   12  C   UNL     1     -21.108 -12.737  -1.081  1.00  0.00     0.014 C 
HETATM   13  C   UNL     1     -21.880 -11.739  -0.193  1.00  0.00     0.026 C 
BRANCH  13  14
HETATM   14  C   UNL     1     -23.280 -11.379  -0.708  1.00  0.00    -0.088 C 
HETATM   15  C   UNL     1     -24.294 -10.957   0.068  1.00  0.00     0.014 C 
HETATM   16  C   UNL     1     -23.516 -11.526  -2.191  1.00  0.00     0.043 C 
ENDBRANCH  13  14
ENDBRANCH   4   7
BRANCH   3  17
HETATM   17  O   UNL     1     -22.471  -7.999   0.691  1.00  0.00    -0.360 OA
HETATM   18  H   UNL     1     -22.266  -7.141   1.092  1.00  0.00     0.217 HD
ENDBRANCH   3  17
BRANCH   5  19
HETATM   19  O   UNL     1     -19.610 -10.416  -2.383  1.00  0.00    -0.360 OA
HETATM   20  H   UNL     1     -19.256 -10.841  -1.587  1.00  0.00     0.217 HD
ENDBRANCH   5  19
BRANCH   1  21
HETATM   21  C   UNL     1     -21.261  -6.007  -3.572  1.00  0.00     0.039 C 
BRANCH  21  22
HETATM   22  C   UNL     1     -21.743  -6.466  -4.950  1.00  0.00     0.005 C 
BRANCH  22  23
HETATM   23  C   UNL     1     -21.483  -5.403  -6.011  1.00  0.00    -0.000 C 
BRANCH  23  24
HETATM   24  C   UNL     1     -20.101  -4.781  -5.824  1.00  0.00    -0.005 C 
HETATM   25  C   UNL     1     -19.330  -4.763  -7.131  1.00  0.00     0.005 C 
ENDBRANCH  23  24
ENDBRANCH  22  23
ENDBRANCH  21  22
ENDBRANCH   1  21
TORSDOF 8
ENDMDL
MODEL 3
REMARK VINA RESULT:      -6.8      1.620      3.686
REMARK  8 active torsions:
REMARK  status: ('A' for Active; 'I' for Inactive)
REMARK    1  A    between atoms: C_2  and  C_3 
REMARK    2  A    between atoms: C_3  and  C_4 
REMARK    3  A    between atoms: C_4  and  C_5 
REMARK    4  A    between atoms: C_5  and  C_6 
REMARK    5  A    between atoms: C_8  and  O_23 
REMARK    6  A    between atoms: C_9  and  C_13 
REMARK    7  A    between atoms: C_10  and  O_12 
REMARK    8  A    between atoms: C_18  and  C_19 
ROOT
HETATM    1  C   UNL     1     -21.327  -6.298  -5.633  1.00  0.00    -0.053 A 
HETATM    2  C   UNL     1     -21.799  -6.401  -4.326  1.00  0.00     0.044 A 
HETATM    3  C   UNL     1     -21.294  -7.372  -3.465  1.00  0.00     0.075 A 
HETATM    4  C   UNL     1     -20.297  -8.280  -3.866  1.00  0.00     0.017 A 
HETATM    5  C   UNL     1     -19.831  -8.152  -5.188  1.00  0.00     0.075 A 
HETATM    6  C   UNL     1     -20.346  -7.192  -6.063  1.00  0.00     0.044 A 
ENDROOT
BRANCH   4   7
HETATM    7  C   UNL     1     -19.800  -9.399  -2.945  1.00  0.00     0.055 C 
HETATM    8  C   UNL     1     -18.339  -9.188  -2.618  1.00  0.00    -0.014 C 
HETATM    9  C   UNL     1     -17.350  -9.989  -3.043  1.00  0.00    -0.087 C 
HETATM   10  C   UNL     1     -17.606 -11.234  -3.854  1.00  0.00     0.034 C 
HETATM   11  C   UNL     1     -15.911  -9.639  -2.797  1.00  0.00     0.043 C 
HETATM   12  C   UNL     1     -19.048 -11.457  -4.333  1.00  0.00     0.014 C 
HETATM   13  C   UNL     1     -20.120 -10.861  -3.397  1.00  0.00     0.026 C 
BRANCH  13  14
HETATM   14  C   UNL     1     -21.564 -11.050  -3.880  1.00  0.00    -0.088 C 
HETATM   15  C   UNL     1     -22.651 -10.954  -3.093  1.00  0.00     0.014 C 
HETATM   16  C   UNL     1     -21.754 -11.377  -5.340  1.00  0.00     0.043 C 
ENDBRANCH  13  14
ENDBRANCH   4   7
BRANCH   3  17
HETATM   17  O   UNL     1     -21.821  -7.424  -2.207  1.00  0.00    -0.360 OA
HETATM   18  H   UNL     1     -21.966  -6.526  -1.875  1.00  0.00     0.217 HD
ENDBRANCH   3  17
BRANCH   5  19
HETATM   19  O   UNL     1     -18.848  -8.943  -5.719  1.00  0.00    -0.360 OA
HETATM   20  H   UNL     1     -18.709  -8.669  -6.638  1.00  0.00     0.217 HD
ENDBRANCH   5  19
BRANCH   1  21
HETATM   21  C   UNL     1     -21.856  -5.219  -6.536  1.00  0.00     0.039 C 
BRANCH  21  22
HETATM   22  C   UNL     1     -20.838  -4.086  -6.678  1.00  0.00     0.005 C 
BRANCH  22  23
HETATM   23  C   UNL     1     -20.119  -4.151  -8.020  1.00  0.00    -0.000 C 
BRANCH  23  24
HETATM   24  C   UNL     1     -21.112  -4.408  -9.152  1.00  0.00    -0.005 C 
HETATM   25  C   UNL     1     -20.417  -4.395 -10.501  1.00  0.00     0.005 C 
ENDBRANCH  23  24
ENDBRANCH  22  23
ENDBRANCH  21  22
ENDBRANCH   1  21
TORSDOF 8
ENDMDL
MODEL 4
REMARK VINA RESULT:      -6.4      2.556      5.425
REMARK  8 active torsions:
REMARK  status: ('A' for Active; 'I' for Inactive)
REMARK    1  A    between atoms: C_2  and  C_3 
REMARK    2  A    between atoms: C_3  and  C_4 
REMARK    3  A    between atoms: C_4  and  C_5 
REMARK    4  A    between atoms: C_5  and  C_6 
REMARK    5  A    between atoms: C_8  and  O_23 
REMARK    6  A    between atoms: C_9  and  C_13 
REMARK    7  A    between atoms: C_10  and  O_12 
REMARK    8  A    between atoms: C_18  and  C_19 
ROOT
HETATM    1  C   UNL     1     -21.540 -11.369  -5.103  1.00  0.00    -0.053 A 
HETATM    2  C   UNL     1     -20.447 -10.563  -5.419  1.00  0.00     0.044 A 
HETATM    3  C   UNL     1     -20.079  -9.511  -4.583  1.00  0.00     0.075 A 
HETATM    4  C   UNL     1     -20.778  -9.219  -3.398  1.00  0.00     0.017 A 
HETATM    5  C   UNL     1     -21.872 -10.052  -3.097  1.00  0.00     0.075 A 
HETATM    6  C   UNL     1     -22.258 -11.097  -3.940  1.00  0.00     0.044 A 
ENDROOT
BRANCH   4   7
HETATM    7  C   UNL     1     -20.422  -8.015  -2.522  1.00  0.00     0.055 C 
HETATM    8  C   UNL     1     -20.347  -8.435  -1.071  1.00  0.00    -0.014 C 
HETATM    9  C   UNL     1     -21.215  -8.038  -0.127  1.00  0.00    -0.087 C 
HETATM   10  C   UNL     1     -22.335  -7.070  -0.411  1.00  0.00     0.034 C 
HETATM   11  C   UNL     1     -21.162  -8.607   1.261  1.00  0.00     0.043 C 
HETATM   12  C   UNL     1     -22.558  -6.688  -1.882  1.00  0.00     0.014 C 
HETATM   13  C   UNL     1     -21.276  -6.723  -2.740  1.00  0.00     0.026 C 
BRANCH  13  14
HETATM   14  C   UNL     1     -21.489  -6.373  -4.219  1.00  0.00    -0.088 C 
HETATM   15  C   UNL     1     -22.549  -6.760  -4.951  1.00  0.00     0.014 C 
HETATM   16  C   UNL     1     -20.416  -5.544  -4.881  1.00  0.00     0.043 C 
ENDBRANCH  13  14
ENDBRANCH   4   7
BRANCH   3  17
HETATM   17  O   UNL     1     -19.012  -8.753  -4.970  1.00  0.00    -0.360 OA
HETATM   18  H   UNL     1     -19.272  -7.821  -5.016  1.00  0.00     0.217 HD
ENDBRANCH   3  17
BRANCH   5  19
HETATM   19  O   UNL     1     -22.636  -9.912  -1.970  1.00  0.00    -0.360 OA
HETATM   20  H   UNL     1     -23.072  -9.047  -2.011  1.00  0.00     0.217 HD
ENDBRANCH   5  19
BRANCH   1  21
HETATM   21  C   UNL     1     -21.899 -12.523  -5.998  1.00  0.00     0.039 C 
BRANCH  21  22
HETATM   22  C   UNL     1     -21.289 -12.340  -7.388  1.00  0.00     0.005 C 
BRANCH  22  23
HETATM   23  C   UNL     1     -20.292 -13.448  -7.707  1.00  0.00    -0.000 C 
BRANCH  23  24
HETATM   24  C   UNL     1     -19.078 -12.886  -8.443  1.00  0.00    -0.005 C 
HETATM   25  C   UNL     1     -17.789 -13.473  -7.899  1.00  0.00     0.005 C 
ENDBRANCH  23  24
ENDBRANCH  22  23
ENDBRANCH  21  22
ENDBRANCH   1  21
TORSDOF 8
ENDMDL
MODEL 5
REMARK VINA RESULT:      -6.2      1.873      3.301
REMARK  8 active torsions:
REMARK  status: ('A' for Active; 'I' for Inactive)
REMARK    1  A    between atoms: C_2  and  C_3 
REMARK    2  A    between atoms: C_3  and  C_4 
REMARK    3  A    between atoms: C_4  and  C_5 
REMARK    4  A    between atoms: C_5  and  C_6 
REMARK    5  A    between atoms: C_8  and  O_23 
REMARK    6  A    between atoms: C_9  and  C_13 
REMARK    7  A    between atoms: C_10  and  O_12 
REMARK    8  A    between atoms: C_18  and  C_19 
ROOT
HETATM    1  C   UNL     1     -20.287  -8.587  -4.453  1.00  0.00    -0.053 A 
HETATM    2  C   UNL     1     -21.577  -9.100  -4.326  1.00  0.00     0.044 A 
HETATM    3  C   UNL     1     -21.905  -9.935  -3.261  1.00  0.00     0.075 A 
HETATM    4  C   UNL     1     -20.967 -10.291  -2.275  1.00  0.00     0.017 A 
HETATM    5  C   UNL     1     -19.674  -9.754  -2.420  1.00  0.00     0.075 A 
HETATM    6  C   UNL     1     -19.333  -8.931  -3.496  1.00  0.00     0.044 A 
ENDROOT
BRANCH   4   7
HETATM    7  C   UNL     1     -21.306 -11.272  -1.149  1.00  0.00     0.055 C 
HETATM    8  C   UNL     1     -21.768 -12.588  -1.731  1.00  0.00    -0.014 C 
HETATM    9  C   UNL     1     -23.022 -13.056  -1.632  1.00  0.00    -0.087 C 
HETATM   10  C   UNL     1     -24.100 -12.332  -0.866  1.00  0.00     0.034 C 
HETATM   11  C   UNL     1     -23.443 -14.302  -2.356  1.00  0.00     0.043 C 
HETATM   12  C   UNL     1     -23.749 -10.930  -0.345  1.00  0.00     0.014 C 
HETATM   13  C   UNL     1     -22.253 -10.736  -0.025  1.00  0.00     0.026 C 
BRANCH  13  14
HETATM   14  C   UNL     1     -21.883  -9.330   0.467  1.00  0.00    -0.088 C 
HETATM   15  C   UNL     1     -20.824  -9.047   1.247  1.00  0.00     0.014 C 
HETATM   16  C   UNL     1     -22.791  -8.202   0.042  1.00  0.00     0.043 C 
ENDBRANCH  13  14
ENDBRANCH   4   7
BRANCH   3  17
HETATM   17  O   UNL     1     -23.182 -10.415  -3.216  1.00  0.00    -0.360 OA
HETATM   18  H   UNL     1     -23.477 -10.476  -2.295  1.00  0.00     0.217 HD
ENDBRANCH   3  17
BRANCH   5  19
HETATM   19  O   UNL     1     -18.659  -9.987  -1.532  1.00  0.00    -0.360 OA
HETATM   20  H   UNL     1     -18.035 -10.602  -1.947  1.00  0.00     0.217 HD
ENDBRANCH   5  19
BRANCH   1  21
HETATM   21  C   UNL     1     -19.961  -7.657  -5.589  1.00  0.00     0.039 C 
BRANCH  21  22
HETATM   22  C   UNL     1     -21.195  -6.850  -5.998  1.00  0.00     0.005 C 
BRANCH  22  23
HETATM   23  C   UNL     1     -20.959  -5.354  -5.832  1.00  0.00    -0.000 C 
BRANCH  23  24
HETATM   24  C   UNL     1     -19.692  -4.923  -6.568  1.00  0.00    -0.005 C 
HETATM   25  C   UNL     1     -20.027  -4.060  -7.771  1.00  0.00     0.005 C 
ENDBRANCH  23  24
ENDBRANCH  22  23
ENDBRANCH  21  22
ENDBRANCH   1  21
TORSDOF 8
ENDMDL
MODEL 6
REMARK VINA RESULT:      -6.1      2.034      5.752
REMARK  8 active torsions:
REMARK  status: ('A' for Active; 'I' for Inactive)
REMARK    1  A    between atoms: C_2  and  C_3 
REMARK    2  A    between atoms: C_3  and  C_4 
REMARK    3  A    between atoms: C_4  and  C_5 
REMARK    4  A    between atoms: C_5  and  C_6 
REMARK    5  A    between atoms: C_8  and  O_23 
REMARK    6  A    between atoms: C_9  and  C_13 
REMARK    7  A    between atoms: C_10  and  O_12 
REMARK    8  A    between atoms: C_18  and  C_19 
ROOT
HETATM    1  C   UNL     1     -17.907 -11.468  -2.686  1.00  0.00    -0.053 A 
HETATM    2  C   UNL     1     -17.983 -10.109  -2.383  1.00  0.00     0.044 A 
HETATM    3  C   UNL     1     -19.209  -9.450  -2.393  1.00  0.00     0.075 A 
HETATM    4  C   UNL     1     -20.411 -10.112  -2.702  1.00  0.00     0.017 A 
HETATM    5  C   UNL     1     -20.310 -11.485  -2.997  1.00  0.00     0.075 A 
HETATM    6  C   UNL     1     -19.081 -12.149  -3.006  1.00  0.00     0.044 A 
ENDROOT
BRANCH   4   7
HETATM    7  C   UNL     1     -21.747  -9.369  -2.791  1.00  0.00     0.055 C 
HETATM    8  C   UNL     1     -21.692  -8.336  -3.893  1.00  0.00    -0.014 C 
HETATM    9  C   UNL     1     -21.714  -7.010  -3.683  1.00  0.00    -0.087 C 
HETATM   10  C   UNL     1     -21.860  -6.409  -2.308  1.00  0.00     0.034 C 
HETATM   11  C   UNL     1     -21.513  -6.044  -4.814  1.00  0.00     0.043 C 
HETATM   12  C   UNL     1     -21.801  -7.383  -1.122  1.00  0.00     0.014 C 
HETATM   13  C   UNL     1     -22.315  -8.800  -1.449  1.00  0.00     0.026 C 
BRANCH  13  14
HETATM   14  C   UNL     1     -22.234  -9.793  -0.281  1.00  0.00    -0.088 C 
HETATM   15  C   UNL     1     -21.306  -9.753   0.692  1.00  0.00     0.014 C 
HETATM   16  C   UNL     1     -23.271 -10.888  -0.249  1.00  0.00     0.043 C 
ENDBRANCH  13  14
ENDBRANCH   4   7
BRANCH   3  17
HETATM   17  O   UNL     1     -19.201  -8.115  -2.106  1.00  0.00    -0.360 OA
HETATM   18  H   UNL     1     -18.746  -7.963  -1.264  1.00  0.00     0.217 HD
ENDBRANCH   3  17
BRANCH   5  19
HETATM   19  O   UNL     1     -21.390 -12.272  -3.293  1.00  0.00    -0.360 OA
HETATM   20  H   UNL     1     -21.114 -12.915  -3.963  1.00  0.00     0.217 HD
ENDBRANCH   5  19
BRANCH   1  21
HETATM   21  C   UNL     1     -16.579 -12.172  -2.633  1.00  0.00     0.039 C 
BRANCH  21  22
HETATM   22  C   UNL     1     -15.458 -11.247  -3.109  1.00  0.00     0.005 C 
BRANCH  22  23
HETATM   23  C   UNL     1     -15.311 -11.289  -4.626  1.00  0.00    -0.000 C 
BRANCH  23  24
HETATM   24  C   UNL     1     -15.616  -9.922  -5.235  1.00  0.00    -0.005 C 
HETATM   25  C   UNL     1     -16.966  -9.922  -5.927  1.00  0.00     0.005 C 
ENDBRANCH  23  24
ENDBRANCH  22  23
ENDBRANCH  21  22
ENDBRANCH   1  21
TORSDOF 8
ENDMDL
MODEL 7
REMARK VINA RESULT:      -6.1      3.571      5.466
REMARK  8 active torsions:
REMARK  status: ('A' for Active; 'I' for Inactive)
REMARK    1  A    between atoms: C_2  and  C_3 
REMARK    2  A    between atoms: C_3  and  C_4 
REMARK    3  A    between atoms: C_4  and  C_5 
REMARK    4  A    between atoms: C_5  and  C_6 
REMARK    5  A    between atoms: C_8  and  O_23 
REMARK    6  A    between atoms: C_9  and  C_13 
REMARK    7  A    between atoms: C_10  and  O_12 
REMARK    8  A    between atoms: C_18  and  C_19 
ROOT
HETATM    1  C   UNL     1     -17.148 -10.433  -2.460  1.00  0.00    -0.053 A 
HETATM    2  C   UNL     1     -17.630  -9.573  -3.445  1.00  0.00     0.044 A 
HETATM    3  C   UNL     1     -18.981  -9.239  -3.495  1.00  0.00     0.075 A 
HETATM    4  C   UNL     1     -19.910  -9.744  -2.567  1.00  0.00     0.017 A 
HETATM    5  C   UNL     1     -19.399 -10.604  -1.577  1.00  0.00     0.075 A 
HETATM    6  C   UNL     1     -18.048 -10.958  -1.532  1.00  0.00     0.044 A 
ENDROOT
BRANCH   4   7
HETATM    7  C   UNL     1     -21.407  -9.441  -2.671  1.00  0.00     0.055 C 
HETATM    8  C   UNL     1     -21.844  -8.587  -1.503  1.00  0.00    -0.014 C 
HETATM    9  C   UNL     1     -22.663  -9.010  -0.526  1.00  0.00    -0.087 C 
HETATM   10  C   UNL     1     -23.287 -10.382  -0.529  1.00  0.00     0.034 C 
HETATM   11  C   UNL     1     -22.940  -8.154   0.676  1.00  0.00     0.043 C 
HETATM   12  C   UNL     1     -22.802 -11.355  -1.613  1.00  0.00     0.014 C 
HETATM   13  C   UNL     1     -22.347 -10.666  -2.916  1.00  0.00     0.026 C 
BRANCH  13  14
HETATM   14  C   UNL     1     -21.832 -11.625  -3.998  1.00  0.00    -0.088 C 
HETATM   15  C   UNL     1     -21.683 -11.304  -5.296  1.00  0.00     0.014 C 
HETATM   16  C   UNL     1     -21.482 -13.024  -3.554  1.00  0.00     0.043 C 
ENDBRANCH  13  14
ENDBRANCH   4   7
BRANCH   3  17
HETATM   17  O   UNL     1     -19.381  -8.408  -4.502  1.00  0.00    -0.360 OA
HETATM   18  H   UNL     1     -20.124  -7.864  -4.202  1.00  0.00     0.217 HD
ENDBRANCH   3  17
BRANCH   5  19
HETATM   19  O   UNL     1     -20.170 -11.157  -0.590  1.00  0.00    -0.360 OA
HETATM   20  H   UNL     1     -21.100 -11.044  -0.841  1.00  0.00     0.217 HD
ENDBRANCH   5  19
BRANCH   1  21
HETATM   21  C   UNL     1     -15.681 -10.752  -2.398  1.00  0.00     0.039 C 
BRANCH  21  22
HETATM   22  C   UNL     1     -15.420 -12.190  -2.850  1.00  0.00     0.005 C 
BRANCH  22  23
HETATM   23  C   UNL     1     -14.683 -12.227  -4.184  1.00  0.00    -0.000 C 
BRANCH  23  24
HETATM   24  C   UNL     1     -15.673 -12.293  -5.345  1.00  0.00    -0.005 C 
HETATM   25  C   UNL     1     -15.570 -11.057  -6.220  1.00  0.00     0.005 C 
ENDBRANCH  23  24
ENDBRANCH  22  23
ENDBRANCH  21  22
ENDBRANCH   1  21
TORSDOF 8
ENDMDL
MODEL 8
REMARK VINA RESULT:      -6.0      2.838      7.395
REMARK  8 active torsions:
REMARK  status: ('A' for Active; 'I' for Inactive)
REMARK    1  A    between atoms: C_2  and  C_3 
REMARK    2  A    between atoms: C_3  and  C_4 
REMARK    3  A    between atoms: C_4  and  C_5 
REMARK    4  A    between atoms: C_5  and  C_6 
REMARK    5  A    between atoms: C_8  and  O_23 
REMARK    6  A    between atoms: C_9  and  C_13 
REMARK    7  A    between atoms: C_10  and  O_12 
REMARK    8  A    between atoms: C_18  and  C_19 
ROOT
HETATM    1  C   UNL     1     -18.425 -11.912  -1.273  1.00  0.00    -0.053 A 
HETATM    2  C   UNL     1     -19.725 -12.413  -1.220  1.00  0.00     0.044 A 
HETATM    3  C   UNL     1     -20.795 -11.659  -1.696  1.00  0.00     0.075 A 
HETATM    4  C   UNL     1     -20.617 -10.377  -2.247  1.00  0.00     0.017 A 
HETATM    5  C   UNL     1     -19.295  -9.896  -2.297  1.00  0.00     0.075 A 
HETATM    6  C   UNL     1     -18.220 -10.640  -1.805  1.00  0.00     0.044 A 
ENDROOT
BRANCH   4   7
HETATM    7  C   UNL     1     -21.801  -9.516  -2.697  1.00  0.00     0.055 C 
HETATM    8  C   UNL     1     -21.548  -8.971  -4.084  1.00  0.00    -0.014 C 
HETATM    9  C   UNL     1     -21.342  -7.673  -4.357  1.00  0.00    -0.087 C 
HETATM   10  C   UNL     1     -21.402  -6.602  -3.298  1.00  0.00     0.034 C 
HETATM   11  C   UNL     1     -20.956  -7.224  -5.736  1.00  0.00     0.043 C 
HETATM   12  C   UNL     1     -21.534  -7.080  -1.844  1.00  0.00     0.014 C 
HETATM   13  C   UNL     1     -22.282  -8.420  -1.690  1.00  0.00     0.026 C 
BRANCH  13  14
HETATM   14  C   UNL     1     -22.395  -8.925  -0.245  1.00  0.00    -0.088 C 
HETATM   15  C   UNL     1     -23.423  -9.648   0.234  1.00  0.00     0.014 C 
HETATM   16  C   UNL     1     -21.267  -8.564   0.690  1.00  0.00     0.043 C 
ENDBRANCH  13  14
ENDBRANCH   4   7
BRANCH   3  17
HETATM   17  O   UNL     1     -22.040 -12.207  -1.591  1.00  0.00    -0.360 OA
HETATM   18  H   UNL     1     -21.974 -13.174  -1.589  1.00  0.00     0.217 HD
ENDBRANCH   3  17
BRANCH   5  19
HETATM   19  O   UNL     1     -18.957  -8.679  -2.826  1.00  0.00    -0.360 OA
HETATM   20  H   UNL     1     -18.883  -8.782  -3.787  1.00  0.00     0.217 HD
ENDBRANCH   5  19
BRANCH   1  21
HETATM   21  C   UNL     1     -17.279 -12.757  -0.789  1.00  0.00     0.039 C 
BRANCH  21  22
HETATM   22  C   UNL     1     -16.079 -11.881  -0.425  1.00  0.00     0.005 C 
BRANCH  22  23
HETATM   23  C   UNL     1     -15.369 -12.403   0.819  1.00  0.00    -0.000 C 
BRANCH  23  24
HETATM   24  C   UNL     1     -16.280 -13.346   1.604  1.00  0.00    -0.005 C 
HETATM   25  C   UNL     1     -15.580 -13.876   2.841  1.00  0.00     0.005 C 
ENDBRANCH  23  24
ENDBRANCH  22  23
ENDBRANCH  21  22
ENDBRANCH   1  21
TORSDOF 8
ENDMDL
MODEL 9
REMARK VINA RESULT:      -6.0      3.546      5.617
REMARK  8 active torsions:
REMARK  status: ('A' for Active; 'I' for Inactive)
REMARK    1  A    between atoms: C_2  and  C_3 
REMARK    2  A    between atoms: C_3  and  C_4 
REMARK    3  A    between atoms: C_4  and  C_5 
REMARK    4  A    between atoms: C_5  and  C_6 
REMARK    5  A    between atoms: C_8  and  O_23 
REMARK    6  A    between atoms: C_9  and  C_13 
REMARK    7  A    between atoms: C_10  and  O_12 
REMARK    8  A    between atoms: C_18  and  C_19 
ROOT
HETATM    1  C   UNL     1     -17.126 -10.358  -2.572  1.00  0.00    -0.053 A 
HETATM    2  C   UNL     1     -18.001 -10.929  -1.648  1.00  0.00     0.044 A 
HETATM    3  C   UNL     1     -19.367 -10.670  -1.714  1.00  0.00     0.075 A 
HETATM    4  C   UNL     1     -19.923  -9.836  -2.702  1.00  0.00     0.017 A 
HETATM    5  C   UNL     1     -19.021  -9.278  -3.627  1.00  0.00     0.075 A 
HETATM    6  C   UNL     1     -17.647  -9.518  -3.556  1.00  0.00     0.044 A 
ENDROOT
BRANCH   4   7
HETATM    7  C   UNL     1     -21.414  -9.488  -2.725  1.00  0.00     0.055 C 
HETATM    8  C   UNL     1     -21.759  -8.611  -1.543  1.00  0.00    -0.014 C 
HETATM    9  C   UNL     1     -22.533  -9.000  -0.518  1.00  0.00    -0.087 C 
HETATM   10  C   UNL     1     -23.197 -10.353  -0.470  1.00  0.00     0.034 C 
HETATM   11  C   UNL     1     -22.717  -8.126   0.689  1.00  0.00     0.043 C 
HETATM   12  C   UNL     1     -22.804 -11.350  -1.570  1.00  0.00     0.014 C 
HETATM   13  C   UNL     1     -22.402 -10.687  -2.904  1.00  0.00     0.026 C 
BRANCH  13  14
HETATM   14  C   UNL     1     -21.978 -11.670  -4.002  1.00  0.00    -0.088 C 
HETATM   15  C   UNL     1     -21.751 -11.333  -5.285  1.00  0.00     0.014 C 
HETATM   16  C   UNL     1     -21.818 -13.114  -3.595  1.00  0.00     0.043 C 
ENDBRANCH  13  14
ENDBRANCH   4   7
BRANCH   3  17
HETATM   17  O   UNL     1     -20.157 -11.248  -0.763  1.00  0.00    -0.360 OA
HETATM   18  H   UNL     1     -21.057 -11.359  -1.106  1.00  0.00     0.217 HD
ENDBRANCH   3  17
BRANCH   5  19
HETATM   19  O   UNL     1     -19.409  -8.466  -4.659  1.00  0.00    -0.360 OA
HETATM   20  H   UNL     1     -19.673  -7.613  -4.283  1.00  0.00     0.217 HD
ENDBRANCH   5  19
BRANCH   1  21
HETATM   21  C   UNL     1     -15.659 -10.679  -2.508  1.00  0.00     0.039 C 
BRANCH  21  22
HETATM   22  C   UNL     1     -15.426 -12.181  -2.679  1.00  0.00     0.005 C 
BRANCH  22  23
HETATM   23  C   UNL     1     -15.505 -12.592  -4.145  1.00  0.00    -0.000 C 
BRANCH  23  24
HETATM   24  C   UNL     1     -14.727 -11.613  -5.022  1.00  0.00    -0.005 C 
HETATM   25  C   UNL     1     -15.557 -11.168  -6.212  1.00  0.00     0.005 C 
ENDBRANCH  23  24
ENDBRANCH  22  23
ENDBRANCH  21  22
ENDBRANCH   1  21
TORSDOF 8
ENDMDL
