MODEL 1
REMARK VINA RESULT:     -10.5      0.000      0.000
REMARK  0 active torsions:
REMARK  status: ('A' for Active; 'I' for Inactive)
ROOT
HETATM    1  C   UNL     1     -21.870  -7.062  -0.811  1.00  0.00     0.078 C 
HETATM    2  C   UNL     1     -22.325  -7.244  -2.288  1.00  0.00    -0.042 C 
HETATM    3  C   UNL     1     -22.374  -6.308  -3.311  1.00  0.00     0.021 C 
HETATM    4  C   UNL     1     -21.947  -6.750  -4.564  1.00  0.00    -0.010 C 
HETATM    5  C   UNL     1     -21.295  -8.010  -4.602  1.00  0.00     0.027 C 
HETATM    6  C   UNL     1     -21.549  -9.004  -3.695  1.00  0.00     0.029 C 
HETATM    7  C   UNL     1     -22.255  -8.631  -2.555  1.00  0.00    -0.018 C 
HETATM    8  C   UNL     1     -22.266  -9.308  -1.292  1.00  0.00    -0.021 C 
HETATM    9  C   UNL     1     -22.797 -10.499  -0.868  1.00  0.00     0.003 C 
HETATM   10  C   UNL     1     -22.325 -10.939   0.351  1.00  0.00     0.118 C 
HETATM   11  C   UNL     1     -21.019 -10.539   0.638  1.00  0.00    -0.031 C 
HETATM   12  C   UNL     1     -20.749  -9.169   0.506  1.00  0.00     0.017 C 
HETATM   13  C   UNL     1     -21.578  -8.503  -0.389  1.00  0.00    -0.043 C 
HETATM   14  C   UNL     1     -20.233 -11.779   0.350  1.00  0.00    -0.015 A 
HETATM   15  C   UNL     1     -19.214 -11.957  -0.589  1.00  0.00     0.013 A 
HETATM   16  C   UNL     1     -19.113 -13.195  -1.281  1.00  0.00     0.001 A 
HETATM   17  C   UNL     1     -19.973 -14.277  -1.016  1.00  0.00     0.001 A 
HETATM   18  C   UNL     1     -20.972 -14.143  -0.068  1.00  0.00     0.016 A 
HETATM   19  C   UNL     1     -21.093 -12.897   0.532  1.00  0.00     0.021 A 
HETATM   20  C   UNL     1     -22.436 -12.347   0.729  1.00  0.00     0.172 C 
HETATM   21  O   UNL     1     -23.450 -12.934   1.039  1.00  0.00    -0.291 OA
HETATM   22  C   UNL     1     -20.057  -7.765  -5.396  1.00  0.00     0.194 C 
HETATM   23  O   UNL     1     -19.106  -8.510  -5.497  1.00  0.00    -0.287 OA
HETATM   24  C   UNL     1     -20.184  -6.407  -5.989  1.00  0.00     0.026 C 
HETATM   25  C   UNL     1     -19.325  -5.666  -6.774  1.00  0.00     0.016 C 
HETATM   26  C   UNL     1     -19.885  -4.593  -7.467  1.00  0.00     0.001 C 
HETATM   27  C   UNL     1     -21.272  -4.355  -7.409  1.00  0.00     0.001 C 
HETATM   28  C   UNL     1     -22.075  -5.028  -6.481  1.00  0.00     0.013 C 
HETATM   29  C   UNL     1     -21.469  -5.962  -5.675  1.00  0.00    -0.011 C 
ENDROOT
TORSDOF 0
ENDMDL
MODEL 2
REMARK VINA RESULT:     -10.0      3.508      7.769
REMARK  0 active torsions:
REMARK  status: ('A' for Active; 'I' for Inactive)
ROOT
HETATM    1  C   UNL     1     -19.910 -11.621  -2.511  1.00  0.00     0.078 C 
HETATM    2  C   UNL     1     -18.448 -11.280  -2.098  1.00  0.00    -0.042 C 
HETATM    3  C   UNL     1     -17.389 -12.137  -1.839  1.00  0.00     0.021 C 
HETATM    4  C   UNL     1     -16.148 -11.744  -2.345  1.00  0.00    -0.010 C 
HETATM    5  C   UNL     1     -16.153 -10.657  -3.256  1.00  0.00     0.027 C 
HETATM    6  C   UNL     1     -17.104  -9.672  -3.232  1.00  0.00     0.029 C 
HETATM    7  C   UNL     1     -18.238  -9.931  -2.467  1.00  0.00    -0.018 C 
HETATM    8  C   UNL     1     -19.528  -9.324  -2.613  1.00  0.00    -0.021 C 
HETATM    9  C   UNL     1     -20.008  -8.065  -2.357  1.00  0.00     0.003 C 
HETATM   10  C   UNL     1     -21.238  -7.792  -2.922  1.00  0.00     0.118 C 
HETATM   11  C   UNL     1     -21.488  -8.480  -4.110  1.00  0.00    -0.031 C 
HETATM   12  C   UNL     1     -21.295  -9.869  -4.073  1.00  0.00     0.017 C 
HETATM   13  C   UNL     1     -20.387 -10.298  -3.114  1.00  0.00    -0.043 C 
HETATM   14  C   UNL     1     -21.239  -7.430  -5.146  1.00  0.00    -0.015 A 
HETATM   15  C   UNL     1     -20.292  -7.438  -6.174  1.00  0.00     0.013 A 
HETATM   16  C   UNL     1     -19.650  -6.223  -6.540  1.00  0.00     0.001 A 
HETATM   17  C   UNL     1     -19.973  -4.992  -5.938  1.00  0.00     0.001 A 
HETATM   18  C   UNL     1     -20.930  -4.946  -4.940  1.00  0.00     0.016 A 
HETATM   19  C   UNL     1     -21.480  -6.161  -4.553  1.00  0.00     0.021 A 
HETATM   20  C   UNL     1     -21.675  -6.412  -3.123  1.00  0.00     0.172 C 
HETATM   21  O   UNL     1     -22.025  -5.633  -2.264  1.00  0.00    -0.291 OA
HETATM   22  C   UNL     1     -15.330 -11.131  -4.406  1.00  0.00     0.194 C 
HETATM   23  O   UNL     1     -15.245 -10.608  -5.496  1.00  0.00    -0.287 OA
HETATM   24  C   UNL     1     -14.683 -12.402  -3.982  1.00  0.00     0.026 C 
HETATM   25  C   UNL     1     -13.856 -13.277  -4.653  1.00  0.00     0.016 C 
HETATM   26  C   UNL     1     -13.128 -14.171  -3.868  1.00  0.00     0.001 C 
HETATM   27  C   UNL     1     -13.197 -14.102  -2.463  1.00  0.00     0.001 C 
HETATM   28  C   UNL     1     -14.164 -13.312  -1.832  1.00  0.00     0.013 C 
HETATM   29  C   UNL     1     -14.999 -12.568  -2.632  1.00  0.00    -0.011 C 
ENDROOT
TORSDOF 0
ENDMDL
MODEL 3
REMARK VINA RESULT:      -9.8      2.034      3.564
REMARK  0 active torsions:
REMARK  status: ('A' for Active; 'I' for Inactive)
ROOT
HETATM    1  C   UNL     1     -19.537 -10.437  -5.635  1.00  0.00     0.078 C 
HETATM    2  C   UNL     1     -19.422  -8.956  -5.170  1.00  0.00    -0.042 C 
HETATM    3  C   UNL     1     -19.253  -7.809  -5.933  1.00  0.00     0.021 C 
HETATM    4  C   UNL     1     -20.006  -6.700  -5.543  1.00  0.00    -0.010 C 
HETATM    5  C   UNL     1     -21.021  -6.932  -4.579  1.00  0.00     0.027 C 
HETATM    6  C   UNL     1     -20.946  -7.935  -3.649  1.00  0.00     0.029 C 
HETATM    7  C   UNL     1     -19.974  -8.907  -3.869  1.00  0.00    -0.018 C 
HETATM    8  C   UNL     1     -19.964 -10.244  -3.352  1.00  0.00    -0.021 C 
HETATM    9  C   UNL     1     -19.775 -10.764  -2.098  1.00  0.00     0.003 C 
HETATM   10  C   UNL     1     -20.148 -12.086  -1.961  1.00  0.00     0.118 C 
HETATM   11  C   UNL     1     -21.188 -12.478  -2.804  1.00  0.00    -0.031 C 
HETATM   12  C   UNL     1     -21.027 -12.182  -4.166  1.00  0.00     0.017 C 
HETATM   13  C   UNL     1     -20.195 -11.100  -4.424  1.00  0.00    -0.043 C 
HETATM   14  C   UNL     1     -22.365 -12.480  -1.880  1.00  0.00    -0.015 A 
HETATM   15  C   UNL     1     -23.532 -11.716  -1.967  1.00  0.00     0.013 A 
HETATM   16  C   UNL     1     -24.139 -11.232  -0.776  1.00  0.00     0.001 A 
HETATM   17  C   UNL     1     -23.635 -11.539   0.503  1.00  0.00     0.001 A 
HETATM   18  C   UNL     1     -22.500 -12.320   0.623  1.00  0.00     0.016 A 
HETATM   19  C   UNL     1     -21.887 -12.710  -0.561  1.00  0.00     0.021 A 
HETATM   20  C   UNL     1     -20.427 -12.649  -0.641  1.00  0.00     0.172 C 
HETATM   21  O   UNL     1     -19.615 -12.908   0.220  1.00  0.00    -0.291 OA
HETATM   22  C   UNL     1     -22.233  -6.278  -5.149  1.00  0.00     0.194 C 
HETATM   23  O   UNL     1     -23.375  -6.411  -4.762  1.00  0.00    -0.287 OA
HETATM   24  C   UNL     1     -21.785  -5.481  -6.322  1.00  0.00     0.026 C 
HETATM   25  C   UNL     1     -22.484  -4.714  -7.230  1.00  0.00     0.016 C 
HETATM   26  C   UNL     1     -21.738  -3.805  -7.981  1.00  0.00     0.001 C 
HETATM   27  C   UNL     1     -20.359  -3.647  -7.742  1.00  0.00     0.001 C 
HETATM   28  C   UNL     1     -19.666  -4.551  -6.929  1.00  0.00     0.013 C 
HETATM   29  C   UNL     1     -20.391  -5.557  -6.336  1.00  0.00    -0.011 C 
ENDROOT
TORSDOF 0
ENDMDL
MODEL 4
REMARK VINA RESULT:      -9.6      4.140      6.182
REMARK  0 active torsions:
REMARK  status: ('A' for Active; 'I' for Inactive)
ROOT
HETATM    1  C   UNL     1     -17.968  -9.622  -4.519  1.00  0.00     0.078 C 
HETATM    2  C   UNL     1     -18.909 -10.221  -5.605  1.00  0.00    -0.042 C 
HETATM    3  C   UNL     1     -18.586 -10.975  -6.724  1.00  0.00     0.021 C 
HETATM    4  C   UNL     1     -19.431 -12.051  -6.999  1.00  0.00    -0.010 C 
HETATM    5  C   UNL     1     -20.366 -12.395  -5.988  1.00  0.00     0.027 C 
HETATM    6  C   UNL     1     -20.865 -11.483  -5.098  1.00  0.00     0.029 C 
HETATM    7  C   UNL     1     -20.200 -10.262  -5.030  1.00  0.00    -0.018 C 
HETATM    8  C   UNL     1     -20.206  -9.341  -3.931  1.00  0.00    -0.021 C 
HETATM    9  C   UNL     1     -21.162  -8.510  -3.408  1.00  0.00     0.003 C 
HETATM   10  C   UNL     1     -20.868  -8.010  -2.156  1.00  0.00     0.118 C 
HETATM   11  C   UNL     1     -20.074  -8.851  -1.375  1.00  0.00    -0.031 C 
HETATM   12  C   UNL     1     -18.896  -9.321  -1.974  1.00  0.00     0.017 C 
HETATM   13  C   UNL     1     -18.937  -9.373  -3.361  1.00  0.00    -0.043 C 
HETATM   14  C   UNL     1     -21.073  -9.461  -0.443  1.00  0.00    -0.015 A 
HETATM   15  C   UNL     1     -21.403 -10.810  -0.295  1.00  0.00     0.013 A 
HETATM   16  C   UNL     1     -22.753 -11.172  -0.032  1.00  0.00     0.001 A 
HETATM   17  C   UNL     1     -23.769 -10.213   0.138  1.00  0.00     0.001 A 
HETATM   18  C   UNL     1     -23.468  -8.867   0.029  1.00  0.00     0.016 A 
HETATM   19  C   UNL     1     -22.158  -8.551  -0.306  1.00  0.00     0.021 A 
HETATM   20  C   UNL     1     -21.927  -7.493  -1.291  1.00  0.00     0.172 C 
HETATM   21  O   UNL     1     -22.536  -6.456  -1.436  1.00  0.00    -0.291 OA
HETATM   22  C   UNL     1     -20.215 -13.870  -5.827  1.00  0.00     0.194 C 
HETATM   23  O   UNL     1     -20.665 -14.547  -4.928  1.00  0.00    -0.287 OA
HETATM   24  C   UNL     1     -19.354 -14.343  -6.944  1.00  0.00     0.026 C 
HETATM   25  C   UNL     1     -18.868 -15.594  -7.260  1.00  0.00     0.016 C 
HETATM   26  C   UNL     1     -18.402 -15.770  -8.563  1.00  0.00     0.001 C 
HETATM   27  C   UNL     1     -18.513 -14.728  -9.504  1.00  0.00     0.001 C 
HETATM   28  C   UNL     1     -18.863 -13.434  -9.102  1.00  0.00     0.013 C 
HETATM   29  C   UNL     1     -19.146 -13.237  -7.771  1.00  0.00    -0.011 C 
ENDROOT
TORSDOF 0
ENDMDL
MODEL 5
REMARK VINA RESULT:      -9.5      3.989      7.154
REMARK  0 active torsions:
REMARK  status: ('A' for Active; 'I' for Inactive)
ROOT
HETATM    1  C   UNL     1     -18.883  -9.027  -5.116  1.00  0.00     0.078 C 
HETATM    2  C   UNL     1     -18.896  -9.001  -3.559  1.00  0.00    -0.042 C 
HETATM    3  C   UNL     1     -19.807  -8.403  -2.701  1.00  0.00     0.021 C 
HETATM    4  C   UNL     1     -20.163  -9.147  -1.575  1.00  0.00    -0.010 C 
HETATM    5  C   UNL     1     -19.748 -10.504  -1.556  1.00  0.00     0.027 C 
HETATM    6  C   UNL     1     -18.630 -10.948  -2.211  1.00  0.00     0.029 C 
HETATM    7  C   UNL     1     -18.074 -10.073  -3.141  1.00  0.00    -0.018 C 
HETATM    8  C   UNL     1     -17.228 -10.418  -4.245  1.00  0.00    -0.021 C 
HETATM    9  C   UNL     1     -15.935 -10.862  -4.334  1.00  0.00     0.003 C 
HETATM   10  C   UNL     1     -15.586 -11.375  -5.568  1.00  0.00     0.118 C 
HETATM   11  C   UNL     1     -16.644 -11.955  -6.267  1.00  0.00    -0.031 C 
HETATM   12  C   UNL     1     -17.800 -11.170  -6.403  1.00  0.00     0.017 C 
HETATM   13  C   UNL     1     -17.968 -10.218  -5.407  1.00  0.00    -0.043 C 
HETATM   14  C   UNL     1     -16.407 -13.416  -6.053  1.00  0.00    -0.015 A 
HETATM   15  C   UNL     1     -17.246 -14.344  -5.429  1.00  0.00     0.013 A 
HETATM   16  C   UNL     1     -16.674 -15.377  -4.636  1.00  0.00     0.001 A 
HETATM   17  C   UNL     1     -15.282 -15.533  -4.496  1.00  0.00     0.001 A 
HETATM   18  C   UNL     1     -14.425 -14.650  -5.128  1.00  0.00     0.016 A 
HETATM   19  C   UNL     1     -15.016 -13.608  -5.829  1.00  0.00     0.021 A 
HETATM   20  C   UNL     1     -14.437 -12.269  -5.705  1.00  0.00     0.172 C 
HETATM   21  O   UNL     1     -13.268 -11.959  -5.631  1.00  0.00    -0.291 OA
HETATM   22  C   UNL     1     -20.978 -11.264  -1.190  1.00  0.00     0.194 C 
HETATM   23  O   UNL     1     -21.134 -12.465  -1.267  1.00  0.00    -0.287 OA
HETATM   24  C   UNL     1     -21.998 -10.265  -0.774  1.00  0.00     0.026 C 
HETATM   25  C   UNL     1     -23.310 -10.407  -0.375  1.00  0.00     0.016 C 
HETATM   26  C   UNL     1     -23.876  -9.325   0.299  1.00  0.00     0.001 C 
HETATM   27  C   UNL     1     -23.096  -8.194   0.609  1.00  0.00     0.001 C 
HETATM   28  C   UNL     1     -21.825  -8.026   0.050  1.00  0.00     0.013 C 
HETATM   29  C   UNL     1     -21.351  -9.028  -0.764  1.00  0.00    -0.011 C 
ENDROOT
TORSDOF 0
ENDMDL
MODEL 6
REMARK VINA RESULT:      -9.5     19.066     21.198
REMARK  0 active torsions:
REMARK  status: ('A' for Active; 'I' for Inactive)
ROOT
HETATM    1  C   UNL     1     -18.530  10.691   1.439  1.00  0.00     0.078 C 
HETATM    2  C   UNL     1     -18.002   9.586   2.401  1.00  0.00    -0.042 C 
HETATM    3  C   UNL     1     -16.705   9.348   2.832  1.00  0.00     0.021 C 
HETATM    4  C   UNL     1     -16.562   9.017   4.181  1.00  0.00    -0.010 C 
HETATM    5  C   UNL     1     -17.706   9.194   5.000  1.00  0.00     0.027 C 
HETATM    6  C   UNL     1     -18.985   9.108   4.518  1.00  0.00     0.029 C 
HETATM    7  C   UNL     1     -19.123   9.131   3.133  1.00  0.00    -0.018 C 
HETATM    8  C   UNL     1     -20.293   9.501   2.392  1.00  0.00    -0.021 C 
HETATM    9  C   UNL     1     -21.513   8.905   2.205  1.00  0.00     0.003 C 
HETATM   10  C   UNL     1     -22.482   9.731   1.671  1.00  0.00     0.118 C 
HETATM   11  C   UNL     1     -22.331  11.078   2.001  1.00  0.00    -0.031 C 
HETATM   12  C   UNL     1     -21.065  11.635   1.762  1.00  0.00     0.017 C 
HETATM   13  C   UNL     1     -20.022  10.719   1.777  1.00  0.00    -0.043 C 
HETATM   14  C   UNL     1     -23.353  11.261   3.077  1.00  0.00    -0.015 A 
HETATM   15  C   UNL     1     -23.150  11.648   4.405  1.00  0.00     0.013 A 
HETATM   16  C   UNL     1     -23.949  11.070   5.429  1.00  0.00     0.001 A 
HETATM   17  C   UNL     1     -24.982  10.155   5.151  1.00  0.00     0.001 A 
HETATM   18  C   UNL     1     -25.229   9.777   3.843  1.00  0.00     0.016 A 
HETATM   19  C   UNL     1     -24.380  10.299   2.876  1.00  0.00     0.021 A 
HETATM   20  C   UNL     1     -23.900   9.408   1.818  1.00  0.00     0.172 C 
HETATM   21  O   UNL     1     -24.502   8.525   1.248  1.00  0.00    -0.291 OA
HETATM   22  C   UNL     1     -17.204   9.952   6.183  1.00  0.00     0.194 C 
HETATM   23  O   UNL     1     -17.879  10.499   7.028  1.00  0.00    -0.287 OA
HETATM   24  C   UNL     1     -15.720   9.962   6.093  1.00  0.00     0.026 C 
HETATM   25  C   UNL     1     -14.758  10.544   6.892  1.00  0.00     0.016 C 
HETATM   26  C   UNL     1     -13.457  10.062   6.749  1.00  0.00     0.001 C 
HETATM   27  C   UNL     1     -13.189   8.982   5.885  1.00  0.00     0.001 C 
HETATM   28  C   UNL     1     -14.158   8.531   4.982  1.00  0.00     0.013 C 
HETATM   29  C   UNL     1     -15.388   9.143   5.012  1.00  0.00    -0.011 C 
ENDROOT
TORSDOF 0
ENDMDL
MODEL 7
REMARK VINA RESULT:      -9.3      4.419      7.134
REMARK  0 active torsions:
REMARK  status: ('A' for Active; 'I' for Inactive)
ROOT
HETATM    1  C   UNL     1     -19.054 -10.752  -6.352  1.00  0.00     0.078 C 
HETATM    2  C   UNL     1     -18.795  -9.688  -5.245  1.00  0.00    -0.042 C 
HETATM    3  C   UNL     1     -19.674  -8.770  -4.690  1.00  0.00     0.021 C 
HETATM    4  C   UNL     1     -19.582  -8.596  -3.308  1.00  0.00    -0.010 C 
HETATM    5  C   UNL     1     -18.783  -9.534  -2.604  1.00  0.00     0.027 C 
HETATM    6  C   UNL     1     -17.720 -10.179  -3.176  1.00  0.00     0.029 C 
HETATM    7  C   UNL     1     -17.628 -10.104  -4.564  1.00  0.00    -0.018 C 
HETATM    8  C   UNL     1     -16.930 -11.010  -5.428  1.00  0.00    -0.021 C 
HETATM    9  C   UNL     1     -15.600 -11.258  -5.652  1.00  0.00     0.003 C 
HETATM   10  C   UNL     1     -15.340 -12.425  -6.341  1.00  0.00     0.118 C 
HETATM   11  C   UNL     1     -16.283 -13.433  -6.136  1.00  0.00    -0.031 C 
HETATM   12  C   UNL     1     -17.625 -13.073  -6.328  1.00  0.00     0.017 C 
HETATM   13  C   UNL     1     -17.891 -11.723  -6.138  1.00  0.00    -0.043 C 
HETATM   14  C   UNL     1     -15.584 -14.334  -5.169  1.00  0.00    -0.015 A 
HETATM   15  C   UNL     1     -15.978 -14.684  -3.875  1.00  0.00     0.013 A 
HETATM   16  C   UNL     1     -14.990 -14.846  -2.864  1.00  0.00     0.001 A 
HETATM   17  C   UNL     1     -13.614 -14.718  -3.132  1.00  0.00     0.001 A 
HETATM   18  C   UNL     1     -13.190 -14.405  -4.411  1.00  0.00     0.016 A 
HETATM   19  C   UNL     1     -14.183 -14.176  -5.354  1.00  0.00     0.021 A 
HETATM   20  C   UNL     1     -14.020 -13.050  -6.276  1.00  0.00     0.172 C 
HETATM   21  O   UNL     1     -13.005 -12.649  -6.801  1.00  0.00    -0.291 OA
HETATM   22  C   UNL     1     -19.641  -9.975  -1.467  1.00  0.00     0.194 C 
HETATM   23  O   UNL     1     -19.440 -10.922  -0.737  1.00  0.00    -0.287 OA
HETATM   24  C   UNL     1     -20.822  -9.072  -1.439  1.00  0.00     0.026 C 
HETATM   25  C   UNL     1     -21.937  -9.047  -0.628  1.00  0.00     0.016 C 
HETATM   26  C   UNL     1     -22.672  -7.862  -0.617  1.00  0.00     0.001 C 
HETATM   27  C   UNL     1     -22.226  -6.741  -1.344  1.00  0.00     0.001 C 
HETATM   28  C   UNL     1     -21.185  -6.859  -2.273  1.00  0.00     0.013 C 
HETATM   29  C   UNL     1     -20.586  -8.090  -2.402  1.00  0.00    -0.011 C 
ENDROOT
TORSDOF 0
ENDMDL
MODEL 8
REMARK VINA RESULT:      -9.2      2.452      4.314
REMARK  0 active torsions:
REMARK  status: ('A' for Active; 'I' for Inactive)
ROOT
HETATM    1  C   UNL     1     -20.329 -11.523   0.719  1.00  0.00     0.078 C 
HETATM    2  C   UNL     1     -21.339 -10.525   0.081  1.00  0.00    -0.042 C 
HETATM    3  C   UNL     1     -21.090  -9.337  -0.590  1.00  0.00     0.021 C 
HETATM    4  C   UNL     1     -21.863  -9.106  -1.729  1.00  0.00    -0.010 C 
HETATM    5  C   UNL     1     -22.633 -10.200  -2.203  1.00  0.00     0.027 C 
HETATM    6  C   UNL     1     -23.098 -11.191  -1.381  1.00  0.00     0.029 C 
HETATM    7  C   UNL     1     -22.541 -11.246  -0.107  1.00  0.00    -0.018 C 
HETATM    8  C   UNL     1     -22.494 -12.385   0.762  1.00  0.00    -0.021 C 
HETATM    9  C   UNL     1     -23.449 -13.062   1.475  1.00  0.00     0.003 C 
HETATM   10  C   UNL     1     -23.049 -14.296   1.947  1.00  0.00     0.118 C 
HETATM   11  C   UNL     1     -22.093 -14.930   1.152  1.00  0.00    -0.031 C 
HETATM   12  C   UNL     1     -20.961 -14.172   0.822  1.00  0.00     0.017 C 
HETATM   13  C   UNL     1     -21.167 -12.799   0.825  1.00  0.00    -0.043 C 
HETATM   14  C   UNL     1     -22.913 -15.940   0.411  1.00  0.00    -0.015 A 
HETATM   15  C   UNL     1     -23.101 -16.053  -0.969  1.00  0.00     0.013 A 
HETATM   16  C   UNL     1     -24.371 -16.454  -1.468  1.00  0.00     0.001 A 
HETATM   17  C   UNL     1     -25.440 -16.794  -0.618  1.00  0.00     0.001 A 
HETATM   18  C   UNL     1     -25.274 -16.723   0.754  1.00  0.00     0.016 A 
HETATM   19  C   UNL     1     -24.049 -16.253   1.207  1.00  0.00     0.021 A 
HETATM   20  C   UNL     1     -24.036 -15.306   2.323  1.00  0.00     0.172 C 
HETATM   21  O   UNL     1     -24.748 -15.290   3.304  1.00  0.00    -0.291 OA
HETATM   22  C   UNL     1     -22.333 -10.262  -3.663  1.00  0.00     0.194 C 
HETATM   23  O   UNL     1     -22.608 -11.170  -4.417  1.00  0.00    -0.287 OA
HETATM   24  C   UNL     1     -21.577  -9.027  -4.003  1.00  0.00     0.026 C 
HETATM   25  C   UNL     1     -21.024  -8.589  -5.188  1.00  0.00     0.016 C 
HETATM   26  C   UNL     1     -20.708  -7.233  -5.263  1.00  0.00     0.001 C 
HETATM   27  C   UNL     1     -21.025  -6.369  -4.197  1.00  0.00     0.001 C 
HETATM   28  C   UNL     1     -21.437  -6.879  -2.960  1.00  0.00     0.013 C 
HETATM   29  C   UNL     1     -21.571  -8.243  -2.849  1.00  0.00    -0.011 C 
ENDROOT
TORSDOF 0
ENDMDL
MODEL 9
REMARK VINA RESULT:      -9.0      3.812      6.630
REMARK  0 active torsions:
REMARK  status: ('A' for Active; 'I' for Inactive)
ROOT
HETATM    1  C   UNL     1     -19.117 -13.041  -2.176  1.00  0.00     0.078 C 
HETATM    2  C   UNL     1     -17.713 -12.374  -2.261  1.00  0.00    -0.042 C 
HETATM    3  C   UNL     1     -16.543 -12.866  -2.821  1.00  0.00     0.021 C 
HETATM    4  C   UNL     1     -15.784 -11.950  -3.552  1.00  0.00    -0.010 C 
HETATM    5  C   UNL     1     -16.401 -10.706  -3.841  1.00  0.00     0.027 C 
HETATM    6  C   UNL     1     -17.361 -10.149  -3.038  1.00  0.00     0.029 C 
HETATM    7  C   UNL     1     -17.923 -10.988  -2.079  1.00  0.00    -0.018 C 
HETATM    8  C   UNL     1     -19.197 -10.830  -1.442  1.00  0.00    -0.021 C 
HETATM    9  C   UNL     1     -19.682  -9.942  -0.517  1.00  0.00     0.003 C 
HETATM   10  C   UNL     1     -21.056  -9.936  -0.388  1.00  0.00     0.118 C 
HETATM   11  C   UNL     1     -21.742 -10.277  -1.555  1.00  0.00    -0.031 C 
HETATM   12  C   UNL     1     -21.341 -11.466  -2.183  1.00  0.00     0.017 C 
HETATM   13  C   UNL     1     -20.027 -11.836  -1.929  1.00  0.00    -0.043 C 
HETATM   14  C   UNL     1     -22.197  -8.944  -2.060  1.00  0.00    -0.015 A 
HETATM   15  C   UNL     1     -21.882  -8.328  -3.274  1.00  0.00     0.013 A 
HETATM   16  C   UNL     1     -21.698  -6.918  -3.312  1.00  0.00     0.001 A 
HETATM   17  C   UNL     1     -21.874  -6.106  -2.176  1.00  0.00     0.001 A 
HETATM   18  C   UNL     1     -22.218  -6.683  -0.967  1.00  0.00     0.016 A 
HETATM   19  C   UNL     1     -22.312  -8.068  -0.946  1.00  0.00     0.021 A 
HETATM   20  C   UNL     1     -21.745  -8.787   0.196  1.00  0.00     0.172 C 
HETATM   21  O   UNL     1     -21.749  -8.465   1.364  1.00  0.00    -0.291 OA
HETATM   22  C   UNL     1     -16.180 -10.510  -5.303  1.00  0.00     0.194 C 
HETATM   23  O   UNL     1     -16.720  -9.686  -6.010  1.00  0.00    -0.287 OA
HETATM   24  C   UNL     1     -15.220 -11.559  -5.740  1.00  0.00     0.026 C 
HETATM   25  C   UNL     1     -14.699 -11.864  -6.980  1.00  0.00     0.016 C 
HETATM   26  C   UNL     1     -13.552 -12.657  -6.994  1.00  0.00     0.001 C 
HETATM   27  C   UNL     1     -12.938 -13.042  -5.786  1.00  0.00     0.001 C 
HETATM   28  C   UNL     1     -13.585 -12.846  -4.561  1.00  0.00     0.013 C 
HETATM   29  C   UNL     1     -14.808 -12.218  -4.581  1.00  0.00    -0.011 C 
ENDROOT
TORSDOF 0
ENDMDL
