MODEL 1
REMARK VINA RESULT:      -7.2      0.000      0.000
REMARK  20 active torsions:
REMARK  status: ('A' for Active; 'I' for Inactive)
REMARK    1  A    between atoms: C_2  and  C_3 
REMARK    2  A    between atoms: C_3  and  C_4 
REMARK    3  A    between atoms: C_4  and  C_5 
REMARK    4  A    between atoms: C_5  and  C_6 
REMARK    5  A    between atoms: C_6  and  C_7 
REMARK    6  A    between atoms: C_7  and  C_8 
REMARK    7  A    between atoms: C_8  and  C_9 
REMARK    8  A    between atoms: C_9  and  C_10 
REMARK    9  A    between atoms: C_10  and  C_11 
REMARK   10  A    between atoms: C_11  and  C_12 
REMARK   11  A    between atoms: C_12  and  C_13 
REMARK   12  A    between atoms: C_13  and  C_14 
REMARK   13  A    between atoms: C_14  and  C_15 
REMARK   14  A    between atoms: C_15  and  C_16 
REMARK   15  A    between atoms: C_16  and  C_17 
REMARK   16  A    between atoms: C_17  and  C_18 
REMARK   17  A    between atoms: C_18  and  O_20 
REMARK   18  A    between atoms: O_20  and  C_21 
REMARK   19  A    between atoms: C_21  and  C_22 
REMARK   20  A    between atoms: C_22  and  O_24 
ROOT
HETATM    1  C   UNL     1     -20.020  -4.439  -6.927  1.00  0.00     0.000 C 
ENDROOT
BRANCH   1   2
HETATM    2  C   UNL     1     -20.482  -5.144  -5.663  1.00  0.00     0.000 C 
BRANCH   2   3
HETATM    3  C   UNL     1     -21.902  -5.653  -5.842  1.00  0.00     0.000 C 
BRANCH   3   4
HETATM    4  C   UNL     1     -22.086  -6.958  -5.089  1.00  0.00     0.000 C 
BRANCH   4   5
HETATM    5  C   UNL     1     -20.780  -7.366  -4.432  1.00  0.00     0.000 C 
BRANCH   5   6
HETATM    6  C   UNL     1     -20.995  -7.584  -2.946  1.00  0.00     0.000 C 
BRANCH   6   7
HETATM    7  C   UNL     1     -21.513  -6.308  -2.307  1.00  0.00     0.000 C 
BRANCH   7   8
HETATM    8  C   UNL     1     -22.430  -6.648  -1.145  1.00  0.00     0.000 C 
BRANCH   8   9
HETATM    9  C   UNL     1     -21.829  -7.774  -0.323  1.00  0.00     0.000 C 
BRANCH   9  10
HETATM   10  C   UNL     1     -22.922  -8.721   0.144  1.00  0.00     0.000 C 
BRANCH  10  11
HETATM   11  C   UNL     1     -22.509 -10.163  -0.105  1.00  0.00    -0.000 C 
BRANCH  11  12
HETATM   12  C   UNL     1     -23.316 -10.761  -1.248  1.00  0.00    -0.005 C 
HETATM   13  C   UNL     1     -24.010 -12.030  -0.799  1.00  0.00     0.005 C 
ENDBRANCH  11  12
ENDBRANCH  10  11
ENDBRANCH   9  10
ENDBRANCH   8   9
ENDBRANCH   7   8
ENDBRANCH   6   7
ENDBRANCH   5   6
ENDBRANCH   4   5
ENDBRANCH   3   4
ENDBRANCH   2   3
ENDBRANCH   1   2
BRANCH   1  14
HETATM   14  C   UNL     1     -21.175  -4.295  -7.907  1.00  0.00     0.000 C 
BRANCH  14  15
HETATM   15  C   UNL     1     -20.651  -4.210  -9.337  1.00  0.00     0.000 C 
BRANCH  15  16
HETATM   16  C   UNL     1     -21.804  -4.310 -10.324  1.00  0.00     0.010 C 
BRANCH  16  17
HETATM   17  C   UNL     1     -23.166  -4.189  -9.642  1.00  0.00     0.111 C 
BRANCH  17  18
HETATM   18  C   UNL     1     -24.158  -3.561 -10.585  1.00  0.00     0.258 C 
HETATM   19  O   UNL     1     -25.283  -3.183 -10.255  1.00  0.00    -0.265 OA
BRANCH  18  20
HETATM   20  O   UNL     1     -23.679  -3.551 -11.859  1.00  0.00    -0.319 OA
BRANCH  20  21
HETATM   21  C   UNL     1     -24.567  -2.924 -12.800  1.00  0.00     0.210 C 
BRANCH  21  22
HETATM   22  C   UNL     1     -23.856  -1.923 -13.714  1.00  0.00     0.138 C 
HETATM   23  C   UNL     1     -22.994  -2.630 -14.744  1.00  0.00     0.041 C 
BRANCH  22  24
HETATM   24  O   UNL     1     -24.810  -1.091 -14.373  1.00  0.00    -0.394 OA
HETATM   25  H   UNL     1     -24.389  -0.239 -14.573  1.00  0.00     0.210 HD
ENDBRANCH  22  24
ENDBRANCH  21  22
ENDBRANCH  20  21
ENDBRANCH  18  20
ENDBRANCH  17  18
ENDBRANCH  16  17
ENDBRANCH  15  16
ENDBRANCH  14  15
ENDBRANCH   1  14
TORSDOF 20
ENDMDL
MODEL 2
REMARK VINA RESULT:      -6.5      2.611      5.489
REMARK  20 active torsions:
REMARK  status: ('A' for Active; 'I' for Inactive)
REMARK    1  A    between atoms: C_2  and  C_3 
REMARK    2  A    between atoms: C_3  and  C_4 
REMARK    3  A    between atoms: C_4  and  C_5 
REMARK    4  A    between atoms: C_5  and  C_6 
REMARK    5  A    between atoms: C_6  and  C_7 
REMARK    6  A    between atoms: C_7  and  C_8 
REMARK    7  A    between atoms: C_8  and  C_9 
REMARK    8  A    between atoms: C_9  and  C_10 
REMARK    9  A    between atoms: C_10  and  C_11 
REMARK   10  A    between atoms: C_11  and  C_12 
REMARK   11  A    between atoms: C_12  and  C_13 
REMARK   12  A    between atoms: C_13  and  C_14 
REMARK   13  A    between atoms: C_14  and  C_15 
REMARK   14  A    between atoms: C_15  and  C_16 
REMARK   15  A    between atoms: C_16  and  C_17 
REMARK   16  A    between atoms: C_17  and  C_18 
REMARK   17  A    between atoms: C_18  and  O_20 
REMARK   18  A    between atoms: O_20  and  C_21 
REMARK   19  A    between atoms: C_21  and  C_22 
REMARK   20  A    between atoms: C_22  and  O_24 
ROOT
HETATM    1  C   UNL     1     -21.787  -7.400  -1.856  1.00  0.00     0.000 C 
ENDROOT
BRANCH   1   2
HETATM    2  C   UNL     1     -22.399  -6.929  -0.548  1.00  0.00     0.000 C 
BRANCH   2   3
HETATM    3  C   UNL     1     -22.665  -8.117   0.359  1.00  0.00     0.000 C 
BRANCH   3   4
HETATM    4  C   UNL     1     -21.555  -9.142   0.215  1.00  0.00     0.000 C 
BRANCH   4   5
HETATM    5  C   UNL     1     -22.145 -10.539   0.144  1.00  0.00     0.000 C 
BRANCH   5   6
HETATM    6  C   UNL     1     -23.616 -10.461  -0.218  1.00  0.00     0.000 C 
BRANCH   6   7
HETATM    7  C   UNL     1     -23.908 -11.377  -1.392  1.00  0.00     0.000 C 
BRANCH   7   8
HETATM    8  C   UNL     1     -22.634 -11.630  -2.179  1.00  0.00     0.000 C 
BRANCH   8   9
HETATM    9  C   UNL     1     -22.658 -10.839  -3.474  1.00  0.00     0.000 C 
BRANCH   9  10
HETATM   10  C   UNL     1     -21.259 -10.348  -3.812  1.00  0.00     0.000 C 
BRANCH  10  11
HETATM   11  C   UNL     1     -20.239 -10.996  -2.890  1.00  0.00    -0.000 C 
BRANCH  11  12
HETATM   12  C   UNL     1     -19.100 -10.033  -2.592  1.00  0.00    -0.005 C 
HETATM   13  C   UNL     1     -18.887  -9.087  -3.756  1.00  0.00     0.005 C 
ENDBRANCH  11  12
ENDBRANCH  10  11
ENDBRANCH   9  10
ENDBRANCH   8   9
ENDBRANCH   7   8
ENDBRANCH   6   7
ENDBRANCH   5   6
ENDBRANCH   4   5
ENDBRANCH   3   4
ENDBRANCH   2   3
ENDBRANCH   1   2
BRANCH   1  14
HETATM   14  C   UNL     1     -21.471  -6.212  -2.752  1.00  0.00     0.000 C 
BRANCH  14  15
HETATM   15  C   UNL     1     -21.513  -6.627  -4.219  1.00  0.00     0.000 C 
BRANCH  15  16
HETATM   16  C   UNL     1     -20.800  -5.591  -5.077  1.00  0.00     0.010 C 
BRANCH  16  17
HETATM   17  C   UNL     1     -20.239  -6.191  -6.366  1.00  0.00     0.111 C 
BRANCH  17  18
HETATM   18  C   UNL     1     -20.320  -5.180  -7.480  1.00  0.00     0.258 C 
HETATM   19  O   UNL     1     -19.508  -4.269  -7.647  1.00  0.00    -0.265 OA
BRANCH  18  20
HETATM   20  O   UNL     1     -21.453  -5.355  -8.214  1.00  0.00    -0.319 OA
BRANCH  20  21
HETATM   21  C   UNL     1     -21.818  -4.199  -8.988  1.00  0.00     0.210 C 
BRANCH  21  22
HETATM   22  C   UNL     1     -23.300  -3.842  -8.864  1.00  0.00     0.138 C 
HETATM   23  C   UNL     1     -24.119  -4.488  -9.967  1.00  0.00     0.041 C 
BRANCH  22  24
HETATM   24  O   UNL     1     -23.802  -4.247  -7.591  1.00  0.00    -0.394 OA
HETATM   25  H   UNL     1     -24.719  -3.937  -7.508  1.00  0.00     0.210 HD
ENDBRANCH  22  24
ENDBRANCH  21  22
ENDBRANCH  20  21
ENDBRANCH  18  20
ENDBRANCH  17  18
ENDBRANCH  16  17
ENDBRANCH  15  16
ENDBRANCH  14  15
ENDBRANCH   1  14
TORSDOF 20
ENDMDL
MODEL 3
REMARK VINA RESULT:      -6.5     12.189     14.336
REMARK  20 active torsions:
REMARK  status: ('A' for Active; 'I' for Inactive)
REMARK    1  A    between atoms: C_2  and  C_3 
REMARK    2  A    between atoms: C_3  and  C_4 
REMARK    3  A    between atoms: C_4  and  C_5 
REMARK    4  A    between atoms: C_5  and  C_6 
REMARK    5  A    between atoms: C_6  and  C_7 
REMARK    6  A    between atoms: C_7  and  C_8 
REMARK    7  A    between atoms: C_8  and  C_9 
REMARK    8  A    between atoms: C_9  and  C_10 
REMARK    9  A    between atoms: C_10  and  C_11 
REMARK   10  A    between atoms: C_11  and  C_12 
REMARK   11  A    between atoms: C_12  and  C_13 
REMARK   12  A    between atoms: C_13  and  C_14 
REMARK   13  A    between atoms: C_14  and  C_15 
REMARK   14  A    between atoms: C_15  and  C_16 
REMARK   15  A    between atoms: C_16  and  C_17 
REMARK   16  A    between atoms: C_17  and  C_18 
REMARK   17  A    between atoms: C_18  and  O_20 
REMARK   18  A    between atoms: O_20  and  C_21 
REMARK   19  A    between atoms: C_21  and  C_22 
REMARK   20  A    between atoms: C_22  and  O_24 
ROOT
HETATM    1  C   UNL     1     -36.100  -0.165 -15.340  1.00  0.00     0.000 C 
ENDROOT
BRANCH   1   2
HETATM    2  C   UNL     1     -34.984   0.620 -14.674  1.00  0.00     0.000 C 
BRANCH   2   3
HETATM    3  C   UNL     1     -34.978   0.350 -13.179  1.00  0.00     0.000 C 
BRANCH   3   4
HETATM    4  C   UNL     1     -36.120  -0.581 -12.814  1.00  0.00     0.000 C 
BRANCH   4   5
HETATM    5  C   UNL     1     -35.681  -1.535 -11.718  1.00  0.00     0.000 C 
BRANCH   5   6
HETATM    6  C   UNL     1     -34.182  -1.427 -11.510  1.00  0.00     0.000 C 
BRANCH   6   7
HETATM    7  C   UNL     1     -33.661  -2.689 -10.844  1.00  0.00     0.000 C 
BRANCH   7   8
HETATM    8  C   UNL     1     -32.989  -3.577 -11.877  1.00  0.00     0.000 C 
BRANCH   8   9
HETATM    9  C   UNL     1     -33.086  -5.031 -11.452  1.00  0.00     0.000 C 
BRANCH   9  10
HETATM   10  C   UNL     1     -34.531  -5.393 -11.152  1.00  0.00     0.000 C 
BRANCH  10  11
HETATM   11  C   UNL     1     -34.597  -6.365  -9.986  1.00  0.00    -0.000 C 
BRANCH  11  12
HETATM   12  C   UNL     1     -34.773  -7.790 -10.486  1.00  0.00    -0.005 C 
HETATM   13  C   UNL     1     -33.971  -8.754  -9.635  1.00  0.00     0.005 C 
ENDBRANCH  11  12
ENDBRANCH  10  11
ENDBRANCH   9  10
ENDBRANCH   8   9
ENDBRANCH   7   8
ENDBRANCH   6   7
ENDBRANCH   5   6
ENDBRANCH   4   5
ENDBRANCH   3   4
ENDBRANCH   2   3
ENDBRANCH   1   2
BRANCH   1  14
HETATM   14  C   UNL     1     -35.551  -0.996 -16.490  1.00  0.00     0.000 C 
BRANCH  14  15
HETATM   15  C   UNL     1     -34.998  -2.320 -15.972  1.00  0.00     0.000 C 
BRANCH  15  16
HETATM   16  C   UNL     1     -34.075  -2.944 -17.009  1.00  0.00     0.010 C 
BRANCH  16  17
HETATM   17  C   UNL     1     -33.332  -4.164 -16.466  1.00  0.00     0.111 C 
BRANCH  17  18
HETATM   18  C   UNL     1     -31.945  -4.221 -17.050  1.00  0.00     0.258 C 
HETATM   19  O   UNL     1     -31.309  -3.233 -17.422  1.00  0.00    -0.265 OA
BRANCH  18  20
HETATM   20  O   UNL     1     -31.530  -5.509 -17.195  1.00  0.00    -0.319 OA
BRANCH  20  21
HETATM   21  C   UNL     1     -30.311  -5.801 -16.489  1.00  0.00     0.210 C 
BRANCH  21  22
HETATM   22  C   UNL     1     -29.378  -6.728 -17.270  1.00  0.00     0.138 C 
HETATM   23  C   UNL     1     -30.149  -7.588 -18.255  1.00  0.00     0.041 C 
BRANCH  22  24
HETATM   24  O   UNL     1     -28.392  -5.967 -17.965  1.00  0.00    -0.394 OA
HETATM   25  H   UNL     1     -28.366  -6.266 -18.889  1.00  0.00     0.210 HD
ENDBRANCH  22  24
ENDBRANCH  21  22
ENDBRANCH  20  21
ENDBRANCH  18  20
ENDBRANCH  17  18
ENDBRANCH  16  17
ENDBRANCH  15  16
ENDBRANCH  14  15
ENDBRANCH   1  14
TORSDOF 20
ENDMDL
MODEL 4
REMARK VINA RESULT:      -6.5      1.527      2.937
REMARK  20 active torsions:
REMARK  status: ('A' for Active; 'I' for Inactive)
REMARK    1  A    between atoms: C_2  and  C_3 
REMARK    2  A    between atoms: C_3  and  C_4 
REMARK    3  A    between atoms: C_4  and  C_5 
REMARK    4  A    between atoms: C_5  and  C_6 
REMARK    5  A    between atoms: C_6  and  C_7 
REMARK    6  A    between atoms: C_7  and  C_8 
REMARK    7  A    between atoms: C_8  and  C_9 
REMARK    8  A    between atoms: C_9  and  C_10 
REMARK    9  A    between atoms: C_10  and  C_11 
REMARK   10  A    between atoms: C_11  and  C_12 
REMARK   11  A    between atoms: C_12  and  C_13 
REMARK   12  A    between atoms: C_13  and  C_14 
REMARK   13  A    between atoms: C_14  and  C_15 
REMARK   14  A    between atoms: C_15  and  C_16 
REMARK   15  A    between atoms: C_16  and  C_17 
REMARK   16  A    between atoms: C_17  and  C_18 
REMARK   17  A    between atoms: C_18  and  O_20 
REMARK   18  A    between atoms: O_20  and  C_21 
REMARK   19  A    between atoms: C_21  and  C_22 
REMARK   20  A    between atoms: C_22  and  O_24 
ROOT
HETATM    1  C   UNL     1     -21.100  -6.338  -6.427  1.00  0.00     0.000 C 
ENDROOT
BRANCH   1   2
HETATM    2  C   UNL     1     -20.804  -6.982  -5.084  1.00  0.00     0.000 C 
BRANCH   2   3
HETATM    3  C   UNL     1     -21.944  -6.715  -4.117  1.00  0.00     0.000 C 
BRANCH   3   4
HETATM    4  C   UNL     1     -21.570  -7.194  -2.726  1.00  0.00     0.000 C 
BRANCH   4   5
HETATM    5  C   UNL     1     -22.263  -6.340  -1.679  1.00  0.00     0.000 C 
BRANCH   5   6
HETATM    6  C   UNL     1     -22.371  -7.108  -0.375  1.00  0.00     0.000 C 
BRANCH   6   7
HETATM    7  C   UNL     1     -21.286  -8.168  -0.309  1.00  0.00     0.000 C 
BRANCH   7   8
HETATM    8  C   UNL     1     -21.809  -9.396   0.416  1.00  0.00     0.000 C 
BRANCH   8   9
HETATM    9  C   UNL     1     -23.116  -9.850  -0.209  1.00  0.00     0.000 C 
BRANCH   9  10
HETATM   10  C   UNL     1     -22.916 -11.165  -0.943  1.00  0.00     0.000 C 
BRANCH  10  11
HETATM   11  C   UNL     1     -23.172 -10.981  -2.429  1.00  0.00    -0.000 C 
BRANCH  11  12
HETATM   12  C   UNL     1     -21.997 -11.500  -3.243  1.00  0.00    -0.005 C 
HETATM   13  C   UNL     1     -20.768 -10.646  -3.006  1.00  0.00     0.005 C 
ENDBRANCH  11  12
ENDBRANCH  10  11
ENDBRANCH   9  10
ENDBRANCH   8   9
ENDBRANCH   7   8
ENDBRANCH   6   7
ENDBRANCH   5   6
ENDBRANCH   4   5
ENDBRANCH   3   4
ENDBRANCH   2   3
ENDBRANCH   1   2
BRANCH   1  14
HETATM   14  C   UNL     1     -20.633  -4.890  -6.435  1.00  0.00     0.000 C 
BRANCH  14  15
HETATM   15  C   UNL     1     -19.438  -4.722  -7.367  1.00  0.00     0.000 C 
BRANCH  15  16
HETATM   16  C   UNL     1     -19.827  -3.877  -8.572  1.00  0.00     0.010 C 
BRANCH  16  17
HETATM   17  C   UNL     1     -20.052  -4.722  -9.826  1.00  0.00     0.111 C 
BRANCH  17  18
HETATM   18  C   UNL     1     -21.248  -4.207 -10.582  1.00  0.00     0.258 C 
HETATM   19  O   UNL     1     -21.184  -3.635 -11.672  1.00  0.00    -0.265 OA
BRANCH  18  20
HETATM   20  O   UNL     1     -22.390  -4.378  -9.862  1.00  0.00    -0.319 OA
BRANCH  20  21
HETATM   21  C   UNL     1     -23.558  -4.571 -10.678  1.00  0.00     0.210 C 
BRANCH  21  22
HETATM   22  C   UNL     1     -24.304  -3.268 -10.969  1.00  0.00     0.138 C 
HETATM   23  C   UNL     1     -24.553  -3.093 -12.457  1.00  0.00     0.041 C 
BRANCH  22  24
HETATM   24  O   UNL     1     -25.546  -3.240 -10.267  1.00  0.00    -0.394 OA
HETATM   25  H   UNL     1     -25.438  -2.693  -9.472  1.00  0.00     0.210 HD
ENDBRANCH  22  24
ENDBRANCH  21  22
ENDBRANCH  20  21
ENDBRANCH  18  20
ENDBRANCH  17  18
ENDBRANCH  16  17
ENDBRANCH  15  16
ENDBRANCH  14  15
ENDBRANCH   1  14
TORSDOF 20
ENDMDL
MODEL 5
REMARK VINA RESULT:      -6.4      2.198      3.983
REMARK  20 active torsions:
REMARK  status: ('A' for Active; 'I' for Inactive)
REMARK    1  A    between atoms: C_2  and  C_3 
REMARK    2  A    between atoms: C_3  and  C_4 
REMARK    3  A    between atoms: C_4  and  C_5 
REMARK    4  A    between atoms: C_5  and  C_6 
REMARK    5  A    between atoms: C_6  and  C_7 
REMARK    6  A    between atoms: C_7  and  C_8 
REMARK    7  A    between atoms: C_8  and  C_9 
REMARK    8  A    between atoms: C_9  and  C_10 
REMARK    9  A    between atoms: C_10  and  C_11 
REMARK   10  A    between atoms: C_11  and  C_12 
REMARK   11  A    between atoms: C_12  and  C_13 
REMARK   12  A    between atoms: C_13  and  C_14 
REMARK   13  A    between atoms: C_14  and  C_15 
REMARK   14  A    between atoms: C_15  and  C_16 
REMARK   15  A    between atoms: C_16  and  C_17 
REMARK   16  A    between atoms: C_17  and  C_18 
REMARK   17  A    between atoms: C_18  and  O_20 
REMARK   18  A    between atoms: O_20  and  C_21 
REMARK   19  A    between atoms: C_21  and  C_22 
REMARK   20  A    between atoms: C_22  and  O_24 
ROOT
HETATM    1  C   UNL     1     -20.911  -6.865  -5.203  1.00  0.00     0.000 C 
ENDROOT
BRANCH   1   2
HETATM    2  C   UNL     1     -21.344  -7.297  -3.813  1.00  0.00     0.000 C 
BRANCH   2   3
HETATM    3  C   UNL     1     -21.665  -6.078  -2.966  1.00  0.00     0.000 C 
BRANCH   3   4
HETATM    4  C   UNL     1     -22.088  -6.508  -1.573  1.00  0.00     0.000 C 
BRANCH   4   5
HETATM    5  C   UNL     1     -21.740  -7.969  -1.354  1.00  0.00     0.000 C 
BRANCH   5   6
HETATM    6  C   UNL     1     -21.561  -8.241   0.128  1.00  0.00     0.000 C 
BRANCH   6   7
HETATM    7  C   UNL     1     -21.152  -9.687   0.343  1.00  0.00     0.000 C 
BRANCH   7   8
HETATM    8  C   UNL     1     -21.007 -10.386  -0.998  1.00  0.00     0.000 C 
BRANCH   8   9
HETATM    9  C   UNL     1     -19.600 -10.934  -1.147  1.00  0.00     0.000 C 
BRANCH   9  10
HETATM   10  C   UNL     1     -19.112 -10.740  -2.574  1.00  0.00     0.000 C 
BRANCH  10  11
HETATM   11  C   UNL     1     -18.474  -9.369  -2.728  1.00  0.00    -0.000 C 
BRANCH  11  12
HETATM   12  C   UNL     1     -16.960  -9.490  -2.813  1.00  0.00    -0.005 C 
HETATM   13  C   UNL     1     -16.557 -10.217  -4.080  1.00  0.00     0.005 C 
ENDBRANCH  11  12
ENDBRANCH  10  11
ENDBRANCH   9  10
ENDBRANCH   8   9
ENDBRANCH   7   8
ENDBRANCH   6   7
ENDBRANCH   5   6
ENDBRANCH   4   5
ENDBRANCH   3   4
ENDBRANCH   2   3
ENDBRANCH   1   2
BRANCH   1  14
HETATM   14  C   UNL     1     -20.747  -5.353  -5.261  1.00  0.00     0.000 C 
BRANCH  14  15
HETATM   15  C   UNL     1     -20.286  -4.922  -6.650  1.00  0.00     0.000 C 
BRANCH  15  16
HETATM   16  C   UNL     1     -21.247  -3.891  -7.224  1.00  0.00     0.010 C 
BRANCH  16  17
HETATM   17  C   UNL     1     -22.674  -4.425  -7.336  1.00  0.00     0.111 C 
BRANCH  17  18
HETATM   18  C   UNL     1     -23.221  -4.143  -8.711  1.00  0.00     0.258 C 
HETATM   19  O   UNL     1     -24.218  -3.452  -8.931  1.00  0.00    -0.265 OA
BRANCH  18  20
HETATM   20  O   UNL     1     -22.524  -4.824  -9.661  1.00  0.00    -0.319 OA
BRANCH  20  21
HETATM   21  C   UNL     1     -22.831  -4.410 -11.003  1.00  0.00     0.210 C 
BRANCH  21  22
HETATM   22  C   UNL     1     -21.751  -3.516 -11.613  1.00  0.00     0.138 C 
HETATM   23  C   UNL     1     -20.371  -3.883 -11.097  1.00  0.00     0.041 C 
BRANCH  22  24
HETATM   24  O   UNL     1     -21.774  -3.612 -13.037  1.00  0.00    -0.394 OA
HETATM   25  H   UNL     1     -22.061  -2.757 -13.399  1.00  0.00     0.210 HD
ENDBRANCH  22  24
ENDBRANCH  21  22
ENDBRANCH  20  21
ENDBRANCH  18  20
ENDBRANCH  17  18
ENDBRANCH  16  17
ENDBRANCH  15  16
ENDBRANCH  14  15
ENDBRANCH   1  14
TORSDOF 20
ENDMDL
MODEL 6
REMARK VINA RESULT:      -6.3      1.426      2.078
REMARK  20 active torsions:
REMARK  status: ('A' for Active; 'I' for Inactive)
REMARK    1  A    between atoms: C_2  and  C_3 
REMARK    2  A    between atoms: C_3  and  C_4 
REMARK    3  A    between atoms: C_4  and  C_5 
REMARK    4  A    between atoms: C_5  and  C_6 
REMARK    5  A    between atoms: C_6  and  C_7 
REMARK    6  A    between atoms: C_7  and  C_8 
REMARK    7  A    between atoms: C_8  and  C_9 
REMARK    8  A    between atoms: C_9  and  C_10 
REMARK    9  A    between atoms: C_10  and  C_11 
REMARK   10  A    between atoms: C_11  and  C_12 
REMARK   11  A    between atoms: C_12  and  C_13 
REMARK   12  A    between atoms: C_13  and  C_14 
REMARK   13  A    between atoms: C_14  and  C_15 
REMARK   14  A    between atoms: C_15  and  C_16 
REMARK   15  A    between atoms: C_16  and  C_17 
REMARK   16  A    between atoms: C_17  and  C_18 
REMARK   17  A    between atoms: C_18  and  O_20 
REMARK   18  A    between atoms: O_20  and  C_21 
REMARK   19  A    between atoms: C_21  and  C_22 
REMARK   20  A    between atoms: C_22  and  O_24 
ROOT
HETATM    1  C   UNL     1     -21.073  -4.460  -6.345  1.00  0.00     0.000 C 
ENDROOT
BRANCH   1   2
HETATM    2  C   UNL     1     -19.842  -5.346  -6.270  1.00  0.00     0.000 C 
BRANCH   2   3
HETATM    3  C   UNL     1     -20.188  -6.661  -5.593  1.00  0.00     0.000 C 
BRANCH   3   4
HETATM    4  C   UNL     1     -21.666  -6.696  -5.249  1.00  0.00     0.000 C 
BRANCH   4   5
HETATM    5  C   UNL     1     -21.858  -7.230  -3.841  1.00  0.00     0.000 C 
BRANCH   5   6
HETATM    6  C   UNL     1     -21.862  -6.081  -2.849  1.00  0.00     0.000 C 
BRANCH   6   7
HETATM    7  C   UNL     1     -22.084  -6.613  -1.444  1.00  0.00     0.000 C 
BRANCH   7   8
HETATM    8  C   UNL     1     -21.587  -8.045  -1.351  1.00  0.00     0.000 C 
BRANCH   8   9
HETATM    9  C   UNL     1     -21.154  -8.353   0.072  1.00  0.00     0.000 C 
BRANCH   9  10
HETATM   10  C   UNL     1     -22.101  -9.362   0.699  1.00  0.00     0.000 C 
BRANCH  10  11
HETATM   11  C   UNL     1     -23.315  -9.567  -0.193  1.00  0.00    -0.000 C 
BRANCH  11  12
HETATM   12  C   UNL     1     -23.902 -10.955   0.014  1.00  0.00    -0.005 C 
HETATM   13  C   UNL     1     -24.000 -11.692  -1.306  1.00  0.00     0.005 C 
ENDBRANCH  11  12
ENDBRANCH  10  11
ENDBRANCH   9  10
ENDBRANCH   8   9
ENDBRANCH   7   8
ENDBRANCH   6   7
ENDBRANCH   5   6
ENDBRANCH   4   5
ENDBRANCH   3   4
ENDBRANCH   2   3
ENDBRANCH   1   2
BRANCH   1  14
HETATM   14  C   UNL     1     -21.004  -3.560  -7.570  1.00  0.00     0.000 C 
BRANCH  14  15
HETATM   15  C   UNL     1     -22.264  -3.717  -8.416  1.00  0.00     0.000 C 
BRANCH  15  16
HETATM   16  C   UNL     1     -22.041  -4.763  -9.499  1.00  0.00     0.010 C 
BRANCH  16  17
HETATM   17  C   UNL     1     -20.732  -4.546 -10.257  1.00  0.00     0.111 C 
BRANCH  17  18
HETATM   18  C   UNL     1     -20.872  -3.378 -11.197  1.00  0.00     0.258 C 
HETATM   19  O   UNL     1     -20.214  -2.339 -11.114  1.00  0.00    -0.265 OA
BRANCH  18  20
HETATM   20  O   UNL     1     -21.880  -3.588 -12.088  1.00  0.00    -0.319 OA
BRANCH  20  21
HETATM   21  C   UNL     1     -22.856  -2.533 -12.108  1.00  0.00     0.210 C 
BRANCH  21  22
HETATM   22  C   UNL     1     -24.280  -3.043 -12.334  1.00  0.00     0.138 C 
HETATM   23  C   UNL     1     -24.281  -4.389 -13.037  1.00  0.00     0.041 C 
BRANCH  22  24
HETATM   24  O   UNL     1     -24.972  -3.148 -11.091  1.00  0.00    -0.394 OA
HETATM   25  H   UNL     1     -25.098  -2.255 -10.731  1.00  0.00     0.210 HD
ENDBRANCH  22  24
ENDBRANCH  21  22
ENDBRANCH  20  21
ENDBRANCH  18  20
ENDBRANCH  17  18
ENDBRANCH  16  17
ENDBRANCH  15  16
ENDBRANCH  14  15
ENDBRANCH   1  14
TORSDOF 20
ENDMDL
MODEL 7
REMARK VINA RESULT:      -6.3      1.634      2.719
REMARK  20 active torsions:
REMARK  status: ('A' for Active; 'I' for Inactive)
REMARK    1  A    between atoms: C_2  and  C_3 
REMARK    2  A    between atoms: C_3  and  C_4 
REMARK    3  A    between atoms: C_4  and  C_5 
REMARK    4  A    between atoms: C_5  and  C_6 
REMARK    5  A    between atoms: C_6  and  C_7 
REMARK    6  A    between atoms: C_7  and  C_8 
REMARK    7  A    between atoms: C_8  and  C_9 
REMARK    8  A    between atoms: C_9  and  C_10 
REMARK    9  A    between atoms: C_10  and  C_11 
REMARK   10  A    between atoms: C_11  and  C_12 
REMARK   11  A    between atoms: C_12  and  C_13 
REMARK   12  A    between atoms: C_13  and  C_14 
REMARK   13  A    between atoms: C_14  and  C_15 
REMARK   14  A    between atoms: C_15  and  C_16 
REMARK   15  A    between atoms: C_16  and  C_17 
REMARK   16  A    between atoms: C_17  and  C_18 
REMARK   17  A    between atoms: C_18  and  O_20 
REMARK   18  A    between atoms: O_20  and  C_21 
REMARK   19  A    between atoms: C_21  and  C_22 
REMARK   20  A    between atoms: C_22  and  O_24 
ROOT
HETATM    1  C   UNL     1     -20.246  -4.904  -5.844  1.00  0.00     0.000 C 
ENDROOT
BRANCH   1   2
HETATM    2  C   UNL     1     -20.593  -6.357  -5.572  1.00  0.00     0.000 C 
BRANCH   2   3
HETATM    3  C   UNL     1     -21.679  -6.443  -4.513  1.00  0.00     0.000 C 
BRANCH   3   4
HETATM    4  C   UNL     1     -21.144  -5.956  -3.178  1.00  0.00     0.000 C 
BRANCH   4   5
HETATM    5  C   UNL     1     -22.162  -6.224  -2.083  1.00  0.00     0.000 C 
BRANCH   5   6
HETATM    6  C   UNL     1     -21.967  -7.622  -1.528  1.00  0.00     0.000 C 
BRANCH   6   7
HETATM    7  C   UNL     1     -21.972  -7.581  -0.011  1.00  0.00     0.000 C 
BRANCH   7   8
HETATM    8  C   UNL     1     -22.347  -8.945   0.541  1.00  0.00     0.000 C 
BRANCH   8   9
HETATM    9  C   UNL     1     -21.093  -9.732   0.876  1.00  0.00     0.000 C 
BRANCH   9  10
HETATM   10  C   UNL     1     -21.015 -10.982   0.015  1.00  0.00     0.000 C 
BRANCH  10  11
HETATM   11  C   UNL     1     -19.711 -11.001  -0.766  1.00  0.00    -0.000 C 
BRANCH  11  12
HETATM   12  C   UNL     1     -19.949 -10.610  -2.216  1.00  0.00    -0.005 C 
HETATM   13  C   UNL     1     -19.121  -9.395  -2.580  1.00  0.00     0.005 C 
ENDBRANCH  11  12
ENDBRANCH  10  11
ENDBRANCH   9  10
ENDBRANCH   8   9
ENDBRANCH   7   8
ENDBRANCH   6   7
ENDBRANCH   5   6
ENDBRANCH   4   5
ENDBRANCH   3   4
ENDBRANCH   2   3
ENDBRANCH   1   2
BRANCH   1  14
HETATM   14  C   UNL     1     -19.282  -4.799  -7.015  1.00  0.00     0.000 C 
BRANCH  14  15
HETATM   15  C   UNL     1     -19.897  -3.969  -8.138  1.00  0.00     0.000 C 
BRANCH  15  16
HETATM   16  C   UNL     1     -21.402  -3.855  -7.941  1.00  0.00     0.010 C 
BRANCH  16  17
HETATM   17  C   UNL     1     -22.185  -4.701  -8.944  1.00  0.00     0.111 C 
BRANCH  17  18
HETATM   18  C   UNL     1     -21.944  -4.193 -10.341  1.00  0.00     0.258 C 
HETATM   19  O   UNL     1     -21.135  -4.689 -11.128  1.00  0.00    -0.265 OA
BRANCH  18  20
HETATM   20  O   UNL     1     -22.669  -3.067 -10.581  1.00  0.00    -0.319 OA
BRANCH  20  21
HETATM   21  C   UNL     1     -24.025  -3.332 -10.977  1.00  0.00     0.210 C 
BRANCH  21  22
HETATM   22  C   UNL     1     -24.192  -3.453 -12.493  1.00  0.00     0.138 C 
HETATM   23  C   UNL     1     -23.435  -2.357 -13.222  1.00  0.00     0.041 C 
BRANCH  22  24
HETATM   24  O   UNL     1     -23.741  -4.730 -12.940  1.00  0.00    -0.394 OA
HETATM   25  H   UNL     1     -23.407  -4.639 -13.848  1.00  0.00     0.210 HD
ENDBRANCH  22  24
ENDBRANCH  21  22
ENDBRANCH  20  21
ENDBRANCH  18  20
ENDBRANCH  17  18
ENDBRANCH  16  17
ENDBRANCH  15  16
ENDBRANCH  14  15
ENDBRANCH   1  14
TORSDOF 20
ENDMDL
MODEL 8
REMARK VINA RESULT:      -6.3      1.910      4.086
REMARK  20 active torsions:
REMARK  status: ('A' for Active; 'I' for Inactive)
REMARK    1  A    between atoms: C_2  and  C_3 
REMARK    2  A    between atoms: C_3  and  C_4 
REMARK    3  A    between atoms: C_4  and  C_5 
REMARK    4  A    between atoms: C_5  and  C_6 
REMARK    5  A    between atoms: C_6  and  C_7 
REMARK    6  A    between atoms: C_7  and  C_8 
REMARK    7  A    between atoms: C_8  and  C_9 
REMARK    8  A    between atoms: C_9  and  C_10 
REMARK    9  A    between atoms: C_10  and  C_11 
REMARK   10  A    between atoms: C_11  and  C_12 
REMARK   11  A    between atoms: C_12  and  C_13 
REMARK   12  A    between atoms: C_13  and  C_14 
REMARK   13  A    between atoms: C_14  and  C_15 
REMARK   14  A    between atoms: C_15  and  C_16 
REMARK   15  A    between atoms: C_16  and  C_17 
REMARK   16  A    between atoms: C_17  and  C_18 
REMARK   17  A    between atoms: C_18  and  O_20 
REMARK   18  A    between atoms: O_20  and  C_21 
REMARK   19  A    between atoms: C_21  and  C_22 
REMARK   20  A    between atoms: C_22  and  O_24 
ROOT
HETATM    1  C   UNL     1     -21.229  -7.081  -5.318  1.00  0.00     0.000 C 
ENDROOT
BRANCH   1   2
HETATM    2  C   UNL     1     -21.784  -6.230  -4.189  1.00  0.00     0.000 C 
BRANCH   2   3
HETATM    3  C   UNL     1     -21.229  -6.707  -2.857  1.00  0.00     0.000 C 
BRANCH   3   4
HETATM    4  C   UNL     1     -22.303  -6.630  -1.787  1.00  0.00     0.000 C 
BRANCH   4   5
HETATM    5  C   UNL     1     -21.898  -7.465  -0.586  1.00  0.00     0.000 C 
BRANCH   5   6
HETATM    6  C   UNL     1     -21.486  -8.853  -1.037  1.00  0.00     0.000 C 
BRANCH   6   7
HETATM    7  C   UNL     1     -22.672  -9.797  -0.952  1.00  0.00     0.000 C 
BRANCH   7   8
HETATM    8  C   UNL     1     -22.622 -10.793  -2.098  1.00  0.00     0.000 C 
BRANCH   8   9
HETATM    9  C   UNL     1     -22.113 -10.111  -3.356  1.00  0.00     0.000 C 
BRANCH   9  10
HETATM   10  C   UNL     1     -21.776 -11.150  -4.412  1.00  0.00     0.000 C 
BRANCH  10  11
HETATM   11  C   UNL     1     -20.745 -10.596  -5.383  1.00  0.00    -0.000 C 
BRANCH  11  12
HETATM   12  C   UNL     1     -19.338 -10.812  -4.849  1.00  0.00    -0.005 C 
HETATM   13  C   UNL     1     -18.555  -9.515  -4.878  1.00  0.00     0.005 C 
ENDBRANCH  11  12
ENDBRANCH  10  11
ENDBRANCH   9  10
ENDBRANCH   8   9
ENDBRANCH   7   8
ENDBRANCH   6   7
ENDBRANCH   5   6
ENDBRANCH   4   5
ENDBRANCH   3   4
ENDBRANCH   2   3
ENDBRANCH   1   2
BRANCH   1  14
HETATM   14  C   UNL     1     -20.155  -6.317  -6.078  1.00  0.00     0.000 C 
BRANCH  14  15
HETATM   15  C   UNL     1     -20.223  -4.830  -5.743  1.00  0.00     0.000 C 
BRANCH  15  16
HETATM   16  C   UNL     1     -20.949  -4.076  -6.849  1.00  0.00     0.010 C 
BRANCH  16  17
HETATM   17  C   UNL     1     -20.296  -4.278  -8.216  1.00  0.00     0.111 C 
BRANCH  17  18
HETATM   18  C   UNL     1     -21.343  -4.225  -9.297  1.00  0.00     0.258 C 
HETATM   19  O   UNL     1     -21.135  -4.514 -10.476  1.00  0.00    -0.265 OA
BRANCH  18  20
HETATM   20  O   UNL     1     -22.516  -3.732  -8.814  1.00  0.00    -0.319 OA
BRANCH  20  21
HETATM   21  C   UNL     1     -23.677  -4.268  -9.473  1.00  0.00     0.210 C 
BRANCH  21  22
HETATM   22  C   UNL     1     -24.530  -3.191 -10.146  1.00  0.00     0.138 C 
HETATM   23  C   UNL     1     -24.416  -3.261 -11.659  1.00  0.00     0.041 C 
BRANCH  22  24
HETATM   24  O   UNL     1     -25.896  -3.328  -9.759  1.00  0.00    -0.394 OA
HETATM   25  H   UNL     1     -26.400  -3.663 -10.519  1.00  0.00     0.210 HD
ENDBRANCH  22  24
ENDBRANCH  21  22
ENDBRANCH  20  21
ENDBRANCH  18  20
ENDBRANCH  17  18
ENDBRANCH  16  17
ENDBRANCH  15  16
ENDBRANCH  14  15
ENDBRANCH   1  14
TORSDOF 20
ENDMDL
MODEL 9
REMARK VINA RESULT:      -6.3      1.739      3.177
REMARK  20 active torsions:
REMARK  status: ('A' for Active; 'I' for Inactive)
REMARK    1  A    between atoms: C_2  and  C_3 
REMARK    2  A    between atoms: C_3  and  C_4 
REMARK    3  A    between atoms: C_4  and  C_5 
REMARK    4  A    between atoms: C_5  and  C_6 
REMARK    5  A    between atoms: C_6  and  C_7 
REMARK    6  A    between atoms: C_7  and  C_8 
REMARK    7  A    between atoms: C_8  and  C_9 
REMARK    8  A    between atoms: C_9  and  C_10 
REMARK    9  A    between atoms: C_10  and  C_11 
REMARK   10  A    between atoms: C_11  and  C_12 
REMARK   11  A    between atoms: C_12  and  C_13 
REMARK   12  A    between atoms: C_13  and  C_14 
REMARK   13  A    between atoms: C_14  and  C_15 
REMARK   14  A    between atoms: C_15  and  C_16 
REMARK   15  A    between atoms: C_16  and  C_17 
REMARK   16  A    between atoms: C_17  and  C_18 
REMARK   17  A    between atoms: C_18  and  O_20 
REMARK   18  A    between atoms: O_20  and  C_21 
REMARK   19  A    between atoms: C_21  and  C_22 
REMARK   20  A    between atoms: C_22  and  O_24 
ROOT
HETATM    1  C   UNL     1     -21.107  -7.057  -5.474  1.00  0.00     0.000 C 
ENDROOT
BRANCH   1   2
HETATM    2  C   UNL     1     -21.940  -6.297  -4.456  1.00  0.00     0.000 C 
BRANCH   2   3
HETATM    3  C   UNL     1     -21.157  -6.128  -3.166  1.00  0.00     0.000 C 
BRANCH   3   4
HETATM    4  C   UNL     1     -22.087  -6.254  -1.972  1.00  0.00     0.000 C 
BRANCH   4   5
HETATM    5  C   UNL     1     -22.142  -7.698  -1.508  1.00  0.00     0.000 C 
BRANCH   5   6
HETATM    6  C   UNL     1     -22.062  -7.757   0.006  1.00  0.00     0.000 C 
BRANCH   6   7
HETATM    7  C   UNL     1     -22.390  -9.160   0.486  1.00  0.00     0.000 C 
BRANCH   7   8
HETATM    8  C   UNL     1     -22.975  -9.972  -0.656  1.00  0.00     0.000 C 
BRANCH   8   9
HETATM    9  C   UNL     1     -23.793 -11.127  -0.106  1.00  0.00     0.000 C 
BRANCH   9  10
HETATM   10  C   UNL     1     -22.875 -12.169   0.511  1.00  0.00     0.000 C 
BRANCH  10  11
HETATM   11  C   UNL     1     -23.628 -13.472   0.721  1.00  0.00    -0.000 C 
BRANCH  11  12
HETATM   12  C   UNL     1     -23.541 -13.912   2.175  1.00  0.00    -0.005 C 
HETATM   13  C   UNL     1     -22.109 -14.233   2.547  1.00  0.00     0.005 C 
ENDBRANCH  11  12
ENDBRANCH  10  11
ENDBRANCH   9  10
ENDBRANCH   8   9
ENDBRANCH   7   8
ENDBRANCH   6   7
ENDBRANCH   5   6
ENDBRANCH   4   5
ENDBRANCH   3   4
ENDBRANCH   2   3
ENDBRANCH   1   2
BRANCH   1  14
HETATM   14  C   UNL     1     -20.090  -6.130  -6.124  1.00  0.00     0.000 C 
BRANCH  14  15
HETATM   15  C   UNL     1     -20.706  -4.757  -6.374  1.00  0.00     0.000 C 
BRANCH  15  16
HETATM   16  C   UNL     1     -20.517  -4.356  -7.830  1.00  0.00     0.010 C 
BRANCH  16  17
HETATM   17  C   UNL     1     -21.680  -4.808  -8.713  1.00  0.00     0.111 C 
BRANCH  17  18
HETATM   18  C   UNL     1     -21.546  -4.203 -10.086  1.00  0.00     0.258 C 
HETATM   19  O   UNL     1     -20.630  -4.460 -10.869  1.00  0.00    -0.265 OA
BRANCH  18  20
HETATM   20  O   UNL     1     -22.515  -3.273 -10.304  1.00  0.00    -0.319 OA
BRANCH  20  21
HETATM   21  C   UNL     1     -23.598  -3.754 -11.119  1.00  0.00     0.210 C 
BRANCH  21  22
HETATM   22  C   UNL     1     -23.899  -2.842 -12.310  1.00  0.00     0.138 C 
HETATM   23  C   UNL     1     -22.862  -3.004 -13.407  1.00  0.00     0.041 C 
BRANCH  22  24
HETATM   24  O   UNL     1     -25.198  -3.119 -12.829  1.00  0.00    -0.394 OA
HETATM   25  H   UNL     1     -25.701  -3.608 -12.158  1.00  0.00     0.210 HD
ENDBRANCH  22  24
ENDBRANCH  21  22
ENDBRANCH  20  21
ENDBRANCH  18  20
ENDBRANCH  17  18
ENDBRANCH  16  17
ENDBRANCH  15  16
ENDBRANCH  14  15
ENDBRANCH   1  14
TORSDOF 20
ENDMDL
