MODEL 1
REMARK VINA RESULT:      -5.0      0.000      0.000
REMARK  12 active torsions:
REMARK  status: ('A' for Active; 'I' for Inactive)
REMARK    1  A    between atoms: O_2  and  C_3 
REMARK    2  A    between atoms: C_3  and  C_4 
REMARK    3  A    between atoms: C_5  and  O_30 
REMARK    4  A    between atoms: C_6  and  O_28 
REMARK    5  A    between atoms: C_7  and  O_26 
REMARK    6  A    between atoms: C_8  and  O_10 
REMARK    7  A    between atoms: O_10  and  C_11 
REMARK    8  A    between atoms: C_12  and  C_23 
REMARK    9  A    between atoms: C_14  and  O_21 
REMARK   10  A    between atoms: C_15  and  O_19 
REMARK   11  A    between atoms: C_16  and  O_17 
REMARK   12  A    between atoms: C_23  and  O_24 
ROOT
HETATM    1  O   UNL     1     -20.472  -9.827  -4.929  1.00  0.00    -0.348 OA
ENDROOT
BRANCH   1   2
HETATM    2  C   UNL     1     -19.262 -10.433  -5.455  1.00  0.00     0.292 C 
HETATM    3  C   UNL     1     -19.577 -11.632  -6.363  1.00  0.00     0.207 C 
HETATM    4  C   UNL     1     -18.324 -12.340  -6.894  1.00  0.00     0.186 C 
HETATM    5  C   UNL     1     -17.327 -12.673  -5.776  1.00  0.00     0.183 C 
HETATM    6  C   UNL     1     -17.223 -11.547  -4.705  1.00  0.00     0.180 C 
HETATM    7  O   UNL     1     -18.467 -10.908  -4.358  1.00  0.00    -0.348 OA
BRANCH   3   8
HETATM    8  O   UNL     1     -20.562 -12.546  -5.837  1.00  0.00    -0.383 OA
HETATM    9  C   UNL     1     -21.888 -12.511  -6.327  1.00  0.00     0.202 C 
ENDBRANCH   3   8
BRANCH   4  10
HETATM   10  O   UNL     1     -18.836 -13.516  -7.552  1.00  0.00    -0.385 OA
HETATM   11  C   UNL     1     -18.998 -13.474  -8.951  1.00  0.00     0.202 C 
ENDBRANCH   4  10
BRANCH   5  12
HETATM   12  O   UNL     1     -16.037 -12.955  -6.355  1.00  0.00    -0.385 OA
HETATM   13  C   UNL     1     -15.478 -14.182  -5.890  1.00  0.00     0.202 C 
ENDBRANCH   5  12
BRANCH   6  14
HETATM   14  C   UNL     1     -16.102 -10.525  -5.005  1.00  0.00     0.201 C 
BRANCH  14  15
HETATM   15  O   UNL     1     -15.906  -9.560  -3.966  1.00  0.00    -0.393 OA
HETATM   16  C   UNL     1     -15.766 -10.128  -2.668  1.00  0.00     0.201 C 
ENDBRANCH  14  15
ENDBRANCH   6  14
ENDBRANCH   1   2
BRANCH   1  17
HETATM   17  C   UNL     1     -20.473  -9.487  -3.522  1.00  0.00     0.187 C 
HETATM   18  C   UNL     1     -20.614  -7.955  -3.291  1.00  0.00     0.180 C 
HETATM   19  O   UNL     1     -20.718  -7.634  -1.907  1.00  0.00    -0.348 OA
HETATM   20  C   UNL     1     -21.876  -8.176  -1.280  1.00  0.00     0.291 C 
HETATM   21  C   UNL     1     -21.754  -9.715  -1.279  1.00  0.00     0.207 C 
HETATM   22  C   UNL     1     -21.634 -10.226  -2.759  1.00  0.00     0.186 C 
BRANCH  18  23
HETATM   23  C   UNL     1     -21.746  -7.262  -4.097  1.00  0.00     0.201 C 
BRANCH  23  24
HETATM   24  O   UNL     1     -21.574  -5.838  -4.167  1.00  0.00    -0.393 OA
HETATM   25  C   UNL     1     -20.737  -5.410  -5.234  1.00  0.00     0.201 C 
ENDBRANCH  23  24
ENDBRANCH  18  23
BRANCH  20  26
HETATM   26  O   UNL     1     -22.000  -7.623   0.023  1.00  0.00    -0.363 OA
HETATM   27  C   UNL     1     -23.240  -8.019   0.627  1.00  0.00     0.204 C 
ENDBRANCH  20  26
BRANCH  21  28
HETATM   28  O   UNL     1     -20.602 -10.077  -0.476  1.00  0.00    -0.383 OA
HETATM   29  C   UNL     1     -20.902 -10.900   0.646  1.00  0.00     0.202 C 
ENDBRANCH  21  28
BRANCH  22  30
HETATM   30  O   UNL     1     -21.445 -11.654  -2.685  1.00  0.00    -0.385 OA
HETATM   31  C   UNL     1     -22.592 -12.448  -2.460  1.00  0.00     0.202 C 
ENDBRANCH  22  30
ENDBRANCH   1  17
TORSDOF 12
ENDMDL
MODEL 2
REMARK VINA RESULT:      -4.6      1.438      3.420
REMARK  12 active torsions:
REMARK  status: ('A' for Active; 'I' for Inactive)
REMARK    1  A    between atoms: O_2  and  C_3 
REMARK    2  A    between atoms: C_3  and  C_4 
REMARK    3  A    between atoms: C_5  and  O_30 
REMARK    4  A    between atoms: C_6  and  O_28 
REMARK    5  A    between atoms: C_7  and  O_26 
REMARK    6  A    between atoms: C_8  and  O_10 
REMARK    7  A    between atoms: O_10  and  C_11 
REMARK    8  A    between atoms: C_12  and  C_23 
REMARK    9  A    between atoms: C_14  and  O_21 
REMARK   10  A    between atoms: C_15  and  O_19 
REMARK   11  A    between atoms: C_16  and  O_17 
REMARK   12  A    between atoms: C_23  and  O_24 
ROOT
HETATM    1  O   UNL     1     -20.863 -10.199  -5.113  1.00  0.00    -0.348 OA
ENDROOT
BRANCH   1   2
HETATM    2  C   UNL     1     -20.443 -11.507  -5.583  1.00  0.00     0.292 C 
HETATM    3  C   UNL     1     -18.942 -11.535  -5.914  1.00  0.00     0.207 C 
HETATM    4  C   UNL     1     -18.466 -12.883  -6.472  1.00  0.00     0.186 C 
HETATM    5  C   UNL     1     -19.349 -13.379  -7.624  1.00  0.00     0.183 C 
HETATM    6  C   UNL     1     -20.862 -13.093  -7.391  1.00  0.00     0.180 C 
HETATM    7  O   UNL     1     -21.164 -11.821  -6.784  1.00  0.00    -0.348 OA
BRANCH   3   8
HETATM    8  O   UNL     1     -18.471 -10.407  -6.682  1.00  0.00    -0.383 OA
HETATM    9  C   UNL     1     -17.645  -9.436  -6.073  1.00  0.00     0.202 C 
ENDBRANCH   3   8
BRANCH   4  10
HETATM   10  O   UNL     1     -17.106 -12.634  -6.879  1.00  0.00    -0.385 OA
HETATM   11  C   UNL     1     -16.070 -13.093  -6.041  1.00  0.00     0.202 C 
ENDBRANCH   4  10
BRANCH   5  12
HETATM   12  O   UNL     1     -19.117 -14.786  -7.832  1.00  0.00    -0.385 OA
HETATM   13  C   UNL     1     -18.457 -15.062  -9.065  1.00  0.00     0.202 C 
ENDBRANCH   5  12
BRANCH   6  14
HETATM   14  C   UNL     1     -21.603 -14.262  -6.704  1.00  0.00     0.201 C 
BRANCH  14  15
HETATM   15  O   UNL     1     -22.783 -13.864  -5.997  1.00  0.00    -0.393 OA
HETATM   16  C   UNL     1     -23.915 -14.689  -6.252  1.00  0.00     0.201 C 
ENDBRANCH  14  15
ENDBRANCH   6  14
ENDBRANCH   1   2
BRANCH   1  17
HETATM   17  C   UNL     1     -20.632  -9.904  -3.714  1.00  0.00     0.187 C 
HETATM   18  C   UNL     1     -20.490  -8.377  -3.455  1.00  0.00     0.180 C 
HETATM   19  O   UNL     1     -20.366  -8.084  -2.066  1.00  0.00    -0.348 OA
HETATM   20  C   UNL     1     -21.510  -8.449  -1.301  1.00  0.00     0.291 C 
HETATM   21  C   UNL     1     -21.644  -9.987  -1.328  1.00  0.00     0.207 C 
HETATM   22  C   UNL     1     -21.795 -10.467  -2.815  1.00  0.00     0.186 C 
BRANCH  18  23
HETATM   23  C   UNL     1     -21.584  -7.487  -4.104  1.00  0.00     0.201 C 
BRANCH  23  24
HETATM   24  O   UNL     1     -21.277  -6.087  -4.009  1.00  0.00    -0.393 OA
HETATM   25  C   UNL     1     -20.805  -5.516  -5.224  1.00  0.00     0.201 C 
ENDBRANCH  23  24
ENDBRANCH  18  23
BRANCH  20  26
HETATM   26  O   UNL     1     -21.378  -7.921   0.012  1.00  0.00    -0.363 OA
HETATM   27  C   UNL     1     -22.622  -8.008   0.722  1.00  0.00     0.204 C 
ENDBRANCH  20  26
BRANCH  21  28
HETATM   28  O   UNL     1     -20.476 -10.553  -0.682  1.00  0.00    -0.383 OA
HETATM   29  C   UNL     1     -20.753 -11.255   0.525  1.00  0.00     0.202 C 
ENDBRANCH  21  28
BRANCH  22  30
HETATM   30  O   UNL     1     -21.836 -11.908  -2.778  1.00  0.00    -0.385 OA
HETATM   31  C   UNL     1     -22.975 -12.509  -2.198  1.00  0.00     0.202 C 
ENDBRANCH  22  30
ENDBRANCH   1  17
TORSDOF 12
ENDMDL
MODEL 3
REMARK VINA RESULT:      -4.5      2.254      2.972
REMARK  12 active torsions:
REMARK  status: ('A' for Active; 'I' for Inactive)
REMARK    1  A    between atoms: O_2  and  C_3 
REMARK    2  A    between atoms: C_3  and  C_4 
REMARK    3  A    between atoms: C_5  and  O_30 
REMARK    4  A    between atoms: C_6  and  O_28 
REMARK    5  A    between atoms: C_7  and  O_26 
REMARK    6  A    between atoms: C_8  and  O_10 
REMARK    7  A    between atoms: O_10  and  C_11 
REMARK    8  A    between atoms: C_12  and  C_23 
REMARK    9  A    between atoms: C_14  and  O_21 
REMARK   10  A    between atoms: C_15  and  O_19 
REMARK   11  A    between atoms: C_16  and  O_17 
REMARK   12  A    between atoms: C_23  and  O_24 
ROOT
HETATM    1  O   UNL     1     -19.378 -10.936  -3.404  1.00  0.00    -0.348 OA
ENDROOT
BRANCH   1   2
HETATM    2  C   UNL     1     -17.966 -11.219  -3.211  1.00  0.00     0.292 C 
HETATM    3  C   UNL     1     -17.327 -11.808  -4.478  1.00  0.00     0.207 C 
HETATM    4  C   UNL     1     -15.849 -12.177  -4.301  1.00  0.00     0.186 C 
HETATM    5  C   UNL     1     -15.610 -13.032  -3.050  1.00  0.00     0.183 C 
HETATM    6  C   UNL     1     -16.480 -12.584  -1.838  1.00  0.00     0.180 C 
HETATM    7  O   UNL     1     -17.826 -12.184  -2.158  1.00  0.00    -0.348 OA
BRANCH   3   8
HETATM    8  O   UNL     1     -18.097 -12.849  -5.115  1.00  0.00    -0.383 OA
HETATM    9  C   UNL     1     -18.768 -12.586  -6.331  1.00  0.00     0.202 C 
ENDBRANCH   3   8
BRANCH   4  10
HETATM   10  O   UNL     1     -15.509 -12.867  -5.520  1.00  0.00    -0.385 OA
HETATM   11  C   UNL     1     -14.843 -12.141  -6.528  1.00  0.00     0.202 C 
ENDBRANCH   4  10
BRANCH   5  12
HETATM   12  O   UNL     1     -14.208 -13.007  -2.715  1.00  0.00    -0.385 OA
HETATM   13  C   UNL     1     -13.566 -14.262  -2.931  1.00  0.00     0.202 C 
ENDBRANCH   5  12
BRANCH   6  14
HETATM   14  C   UNL     1     -15.766 -11.562  -0.922  1.00  0.00     0.201 C 
BRANCH  14  15
HETATM   15  O   UNL     1     -16.152 -11.651   0.454  1.00  0.00    -0.393 OA
HETATM   16  C   UNL     1     -15.393 -12.591   1.207  1.00  0.00     0.201 C 
ENDBRANCH  14  15
ENDBRANCH   6  14
ENDBRANCH   1   2
BRANCH   1  17
HETATM   17  C   UNL     1     -20.198 -10.869  -2.214  1.00  0.00     0.187 C 
HETATM   18  C   UNL     1     -20.374  -9.409  -1.707  1.00  0.00     0.180 C 
HETATM   19  O   UNL     1     -21.264  -9.336  -0.597  1.00  0.00    -0.348 OA
HETATM   20  C   UNL     1     -22.592  -9.747  -0.903  1.00  0.00     0.291 C 
HETATM   21  C   UNL     1     -22.571 -11.253  -1.241  1.00  0.00     0.207 C 
HETATM   22  C   UNL     1     -21.620 -11.495  -2.467  1.00  0.00     0.186 C 
BRANCH  18  23
HETATM   23  C   UNL     1     -20.768  -8.370  -2.791  1.00  0.00     0.201 C 
BRANCH  23  24
HETATM   24  O   UNL     1     -20.821  -7.032  -2.274  1.00  0.00    -0.393 OA
HETATM   25  C   UNL     1     -22.021  -6.337  -2.594  1.00  0.00     0.201 C 
ENDBRANCH  23  24
ENDBRANCH  18  23
BRANCH  20  26
HETATM   26  O   UNL     1     -23.440  -9.430   0.194  1.00  0.00    -0.363 OA
HETATM   27  C   UNL     1     -23.232  -8.076   0.622  1.00  0.00     0.204 C 
ENDBRANCH  20  26
BRANCH  21  28
HETATM   28  O   UNL     1     -22.142 -11.975  -0.060  1.00  0.00    -0.383 OA
HETATM   29  C   UNL     1     -23.126 -12.847   0.487  1.00  0.00     0.202 C 
ENDBRANCH  21  28
BRANCH  22  30
HETATM   30  O   UNL     1     -21.583 -12.920  -2.681  1.00  0.00    -0.385 OA
HETATM   31  C   UNL     1     -22.655 -13.496  -3.399  1.00  0.00     0.202 C 
ENDBRANCH  22  30
ENDBRANCH   1  17
TORSDOF 12
ENDMDL
MODEL 4
REMARK VINA RESULT:      -4.5      3.119      4.514
REMARK  12 active torsions:
REMARK  status: ('A' for Active; 'I' for Inactive)
REMARK    1  A    between atoms: O_2  and  C_3 
REMARK    2  A    between atoms: C_3  and  C_4 
REMARK    3  A    between atoms: C_5  and  O_30 
REMARK    4  A    between atoms: C_6  and  O_28 
REMARK    5  A    between atoms: C_7  and  O_26 
REMARK    6  A    between atoms: C_8  and  O_10 
REMARK    7  A    between atoms: O_10  and  C_11 
REMARK    8  A    between atoms: C_12  and  C_23 
REMARK    9  A    between atoms: C_14  and  O_21 
REMARK   10  A    between atoms: C_15  and  O_19 
REMARK   11  A    between atoms: C_16  and  O_17 
REMARK   12  A    between atoms: C_23  and  O_24 
ROOT
HETATM    1  O   UNL     1     -18.896 -11.752  -2.173  1.00  0.00    -0.348 OA
ENDROOT
BRANCH   1   2
HETATM    2  C   UNL     1     -17.554 -12.012  -1.683  1.00  0.00     0.292 C 
HETATM    3  C   UNL     1     -16.637 -12.546  -2.795  1.00  0.00     0.207 C 
HETATM    4  C   UNL     1     -15.224 -12.891  -2.308  1.00  0.00     0.186 C 
HETATM    5  C   UNL     1     -15.242 -13.782  -1.059  1.00  0.00     0.183 C 
HETATM    6  C   UNL     1     -16.367 -13.392  -0.055  1.00  0.00     0.180 C 
HETATM    7  O   UNL     1     -17.621 -13.009  -0.652  1.00  0.00    -0.348 OA
BRANCH   3   8
HETATM    8  O   UNL     1     -17.221 -13.582  -3.614  1.00  0.00    -0.383 OA
HETATM    9  C   UNL     1     -17.612 -13.293  -4.941  1.00  0.00     0.202 C 
ENDBRANCH   3   8
BRANCH   4  10
HETATM   10  O   UNL     1     -14.607 -13.533  -3.442  1.00  0.00    -0.385 OA
HETATM   11  C   UNL     1     -13.602 -12.830  -4.134  1.00  0.00     0.202 C 
ENDBRANCH   4  10
BRANCH   5  12
HETATM   12  O   UNL     1     -13.948 -13.740  -0.424  1.00  0.00    -0.385 OA
HETATM   13  C   UNL     1     -13.427 -15.037  -0.144  1.00  0.00     0.202 C 
ENDBRANCH   5  12
BRANCH   6  14
HETATM   14  C   UNL     1     -15.899 -12.387   1.022  1.00  0.00     0.201 C 
BRANCH  14  15
HETATM   15  O   UNL     1     -15.719 -12.970   2.318  1.00  0.00    -0.393 OA
HETATM   16  C   UNL     1     -16.208 -14.302   2.425  1.00  0.00     0.201 C 
ENDBRANCH  14  15
ENDBRANCH   6  14
ENDBRANCH   1   2
BRANCH   1  17
HETATM   17  C   UNL     1     -19.444 -10.440  -1.905  1.00  0.00     0.187 C 
HETATM   18  C   UNL     1     -19.338  -9.499  -3.139  1.00  0.00     0.180 C 
HETATM   19  O   UNL     1     -19.970  -8.244  -2.905  1.00  0.00    -0.348 OA
HETATM   20  C   UNL     1     -21.373  -8.345  -2.681  1.00  0.00     0.291 C 
HETATM   21  C   UNL     1     -21.601  -9.108  -1.358  1.00  0.00     0.207 C 
HETATM   22  C   UNL     1     -20.952 -10.534  -1.465  1.00  0.00     0.186 C 
BRANCH  18  23
HETATM   23  C   UNL     1     -19.816 -10.108  -4.484  1.00  0.00     0.201 C 
BRANCH  23  24
HETATM   24  O   UNL     1     -19.246  -9.441  -5.620  1.00  0.00    -0.393 OA
HETATM   25  C   UNL     1     -17.847  -9.652  -5.772  1.00  0.00     0.201 C 
ENDBRANCH  23  24
ENDBRANCH  18  23
BRANCH  20  26
HETATM   26  O   UNL     1     -21.937  -7.040  -2.680  1.00  0.00    -0.363 OA
HETATM   27  C   UNL     1     -21.542  -6.315  -3.854  1.00  0.00     0.204 C 
ENDBRANCH  20  26
BRANCH  21  28
HETATM   28  O   UNL     1     -21.032  -8.323  -0.280  1.00  0.00    -0.383 OA
HETATM   29  C   UNL     1     -21.958  -7.963   0.739  1.00  0.00     0.202 C 
ENDBRANCH  21  28
BRANCH  22  30
HETATM   30  O   UNL     1     -21.131 -11.161  -0.179  1.00  0.00    -0.385 OA
HETATM   31  C   UNL     1     -22.365 -11.806   0.062  1.00  0.00     0.202 C 
ENDBRANCH  22  30
ENDBRANCH   1  17
TORSDOF 12
ENDMDL
MODEL 5
REMARK VINA RESULT:      -4.2      2.990      7.096
REMARK  12 active torsions:
REMARK  status: ('A' for Active; 'I' for Inactive)
REMARK    1  A    between atoms: O_2  and  C_3 
REMARK    2  A    between atoms: C_3  and  C_4 
REMARK    3  A    between atoms: C_5  and  O_30 
REMARK    4  A    between atoms: C_6  and  O_28 
REMARK    5  A    between atoms: C_7  and  O_26 
REMARK    6  A    between atoms: C_8  and  O_10 
REMARK    7  A    between atoms: O_10  and  C_11 
REMARK    8  A    between atoms: C_12  and  C_23 
REMARK    9  A    between atoms: C_14  and  O_21 
REMARK   10  A    between atoms: C_15  and  O_19 
REMARK   11  A    between atoms: C_16  and  O_17 
REMARK   12  A    between atoms: C_23  and  O_24 
ROOT
HETATM    1  O   UNL     1     -16.386 -11.220  -3.269  1.00  0.00    -0.348 OA
ENDROOT
BRANCH   1   2
HETATM    2  C   UNL     1     -17.785 -10.855  -3.398  1.00  0.00     0.292 C 
HETATM    3  C   UNL     1     -18.333 -11.191  -4.794  1.00  0.00     0.207 C 
HETATM    4  C   UNL     1     -19.794 -10.767  -4.994  1.00  0.00     0.186 C 
HETATM    5  C   UNL     1     -20.037  -9.309  -4.584  1.00  0.00     0.183 C 
HETATM    6  C   UNL     1     -19.249  -8.903  -3.304  1.00  0.00     0.180 C 
HETATM    7  O   UNL     1     -17.915  -9.439  -3.204  1.00  0.00    -0.348 OA
BRANCH   3   8
HETATM    8  O   UNL     1     -17.477 -10.802  -5.889  1.00  0.00    -0.383 OA
HETATM    9  C   UNL     1     -16.885 -11.792  -6.706  1.00  0.00     0.202 C 
ENDBRANCH   3   8
BRANCH   4  10
HETATM   10  O   UNL     1     -20.039 -11.000  -6.396  1.00  0.00    -0.385 OA
HETATM   11  C   UNL     1     -20.805 -12.127  -6.755  1.00  0.00     0.202 C 
ENDBRANCH   4  10
BRANCH   5  12
HETATM   12  O   UNL     1     -21.452  -9.092  -4.410  1.00  0.00    -0.385 OA
HETATM   13  C   UNL     1     -21.880  -7.822  -4.895  1.00  0.00     0.202 C 
ENDBRANCH   5  12
BRANCH   6  14
HETATM   14  C   UNL     1     -20.060  -9.101  -2.003  1.00  0.00     0.201 C 
BRANCH  14  15
HETATM   15  O   UNL     1     -20.499  -7.877  -1.403  1.00  0.00    -0.393 OA
HETATM   16  C   UNL     1     -21.892  -7.844  -1.111  1.00  0.00     0.201 C 
ENDBRANCH  14  15
ENDBRANCH   6  14
ENDBRANCH   1   2
BRANCH   1  17
HETATM   17  C   UNL     1     -16.101 -12.600  -2.938  1.00  0.00     0.187 C 
HETATM   18  C   UNL     1     -15.043 -13.224  -3.894  1.00  0.00     0.180 C 
HETATM   19  O   UNL     1     -14.690 -14.547  -3.503  1.00  0.00    -0.348 OA
HETATM   20  C   UNL     1     -14.068 -14.617  -2.224  1.00  0.00     0.291 C 
HETATM   21  C   UNL     1     -15.100 -14.196  -1.156  1.00  0.00     0.207 C 
HETATM   22  C   UNL     1     -15.589 -12.735  -1.456  1.00  0.00     0.186 C 
BRANCH  18  23
HETATM   23  C   UNL     1     -13.771 -12.366  -4.130  1.00  0.00     0.201 C 
BRANCH  23  24
HETATM   24  O   UNL     1     -13.647 -11.934  -5.493  1.00  0.00    -0.393 OA
HETATM   25  C   UNL     1     -13.323 -12.979  -6.402  1.00  0.00     0.201 C 
ENDBRANCH  23  24
ENDBRANCH  18  23
BRANCH  20  26
HETATM   26  O   UNL     1     -13.560 -15.930  -2.026  1.00  0.00    -0.363 OA
HETATM   27  C   UNL     1     -13.497 -16.642  -3.271  1.00  0.00     0.204 C 
ENDBRANCH  20  26
BRANCH  21  28
HETATM   28  O   UNL     1     -16.188 -15.155  -1.176  1.00  0.00    -0.383 OA
HETATM   29  C   UNL     1     -16.377 -15.857   0.048  1.00  0.00     0.202 C 
ENDBRANCH  21  28
BRANCH  22  30
HETATM   30  O   UNL     1     -16.603 -12.433  -0.476  1.00  0.00    -0.385 OA
HETATM   31  C   UNL     1     -16.168 -11.941   0.775  1.00  0.00     0.202 C 
ENDBRANCH  22  30
ENDBRANCH   1  17
TORSDOF 12
ENDMDL
MODEL 6
REMARK VINA RESULT:      -4.1      1.962      3.810
REMARK  12 active torsions:
REMARK  status: ('A' for Active; 'I' for Inactive)
REMARK    1  A    between atoms: O_2  and  C_3 
REMARK    2  A    between atoms: C_3  and  C_4 
REMARK    3  A    between atoms: C_5  and  O_30 
REMARK    4  A    between atoms: C_6  and  O_28 
REMARK    5  A    between atoms: C_7  and  O_26 
REMARK    6  A    between atoms: C_8  and  O_10 
REMARK    7  A    between atoms: O_10  and  C_11 
REMARK    8  A    between atoms: C_12  and  C_23 
REMARK    9  A    between atoms: C_14  and  O_21 
REMARK   10  A    between atoms: C_15  and  O_19 
REMARK   11  A    between atoms: C_16  and  O_17 
REMARK   12  A    between atoms: C_23  and  O_24 
ROOT
HETATM    1  O   UNL     1     -20.069 -11.474  -3.373  1.00  0.00    -0.348 OA
ENDROOT
BRANCH   1   2
HETATM    2  C   UNL     1     -18.627 -11.311  -3.422  1.00  0.00     0.292 C 
HETATM    3  C   UNL     1     -18.089 -11.445  -4.855  1.00  0.00     0.207 C 
HETATM    4  C   UNL     1     -16.561 -11.338  -4.946  1.00  0.00     0.186 C 
HETATM    5  C   UNL     1     -15.854 -12.261  -3.946  1.00  0.00     0.183 C 
HETATM    6  C   UNL     1     -16.576 -12.324  -2.568  1.00  0.00     0.180 C 
HETATM    7  O   UNL     1     -18.016 -12.337  -2.625  1.00  0.00    -0.348 OA
BRANCH   3   8
HETATM    8  O   UNL     1     -18.623 -12.562  -5.599  1.00  0.00    -0.383 OA
HETATM    9  C   UNL     1     -19.560 -12.336  -6.632  1.00  0.00     0.202 C 
ENDBRANCH   3   8
BRANCH   4  10
HETATM   10  O   UNL     1     -16.266 -11.671  -6.317  1.00  0.00    -0.385 OA
HETATM   11  C   UNL     1     -15.693 -12.931  -6.583  1.00  0.00     0.202 C 
ENDBRANCH   4  10
BRANCH   5  12
HETATM   12  O   UNL     1     -14.485 -11.838  -3.791  1.00  0.00    -0.385 OA
HETATM   13  C   UNL     1     -13.583 -12.930  -3.628  1.00  0.00     0.202 C 
ENDBRANCH   5  12
BRANCH   6  14
HETATM   14  C   UNL     1     -16.039 -11.290  -1.552  1.00  0.00     0.201 C 
BRANCH  14  15
HETATM   15  O   UNL     1     -15.793 -11.832  -0.250  1.00  0.00    -0.393 OA
HETATM   16  C   UNL     1     -15.328 -13.178  -0.263  1.00  0.00     0.201 C 
ENDBRANCH  14  15
ENDBRANCH   6  14
ENDBRANCH   1   2
BRANCH   1  17
HETATM   17  C   UNL     1     -20.823 -10.417  -2.735  1.00  0.00     0.187 C 
HETATM   18  C   UNL     1     -21.353 -10.839  -1.334  1.00  0.00     0.180 C 
HETATM   19  O   UNL     1     -22.006  -9.763  -0.668  1.00  0.00    -0.348 OA
HETATM   20  C   UNL     1     -21.148  -8.663  -0.384  1.00  0.00     0.291 C 
HETATM   21  C   UNL     1     -20.704  -8.032  -1.722  1.00  0.00     0.207 C 
HETATM   22  C   UNL     1     -19.955  -9.113  -2.580  1.00  0.00     0.186 C 
BRANCH  18  23
HETATM   23  C   UNL     1     -20.306 -11.505  -0.401  1.00  0.00     0.201 C 
BRANCH  23  24
HETATM   24  O   UNL     1     -20.853 -12.611   0.333  1.00  0.00    -0.393 OA
HETATM   25  C   UNL     1     -21.775 -13.398  -0.412  1.00  0.00     0.201 C 
ENDBRANCH  23  24
ENDBRANCH  18  23
BRANCH  20  26
HETATM   26  O   UNL     1     -21.830  -7.750   0.467  1.00  0.00    -0.363 OA
HETATM   27  C   UNL     1     -23.202  -8.139   0.632  1.00  0.00     0.204 C 
ENDBRANCH  20  26
BRANCH  21  28
HETATM   28  O   UNL     1     -21.883  -7.518  -2.391  1.00  0.00    -0.383 OA
HETATM   29  C   UNL     1     -21.942  -6.098  -2.472  1.00  0.00     0.202 C 
ENDBRANCH  21  28
BRANCH  22  30
HETATM   30  O   UNL     1     -19.639  -8.488  -3.840  1.00  0.00    -0.385 OA
HETATM   31  C   UNL     1     -20.561  -8.657  -4.897  1.00  0.00     0.202 C 
ENDBRANCH  22  30
ENDBRANCH   1  17
TORSDOF 12
ENDMDL
MODEL 7
REMARK VINA RESULT:      -4.1      2.815      5.728
REMARK  12 active torsions:
REMARK  status: ('A' for Active; 'I' for Inactive)
REMARK    1  A    between atoms: O_2  and  C_3 
REMARK    2  A    between atoms: C_3  and  C_4 
REMARK    3  A    between atoms: C_5  and  O_30 
REMARK    4  A    between atoms: C_6  and  O_28 
REMARK    5  A    between atoms: C_7  and  O_26 
REMARK    6  A    between atoms: C_8  and  O_10 
REMARK    7  A    between atoms: O_10  and  C_11 
REMARK    8  A    between atoms: C_12  and  C_23 
REMARK    9  A    between atoms: C_14  and  O_21 
REMARK   10  A    between atoms: C_15  and  O_19 
REMARK   11  A    between atoms: C_16  and  O_17 
REMARK   12  A    between atoms: C_23  and  O_24 
ROOT
HETATM    1  O   UNL     1     -18.535 -11.433  -0.936  1.00  0.00    -0.348 OA
ENDROOT
BRANCH   1   2
HETATM    2  C   UNL     1     -17.971 -11.326  -2.270  1.00  0.00     0.292 C 
HETATM    3  C   UNL     1     -16.500 -11.771  -2.301  1.00  0.00     0.207 C 
HETATM    4  C   UNL     1     -15.846 -11.618  -3.680  1.00  0.00     0.186 C 
HETATM    5  C   UNL     1     -16.069 -10.222  -4.277  1.00  0.00     0.183 C 
HETATM    6  C   UNL     1     -17.497  -9.667  -3.997  1.00  0.00     0.180 C 
HETATM    7  O   UNL     1     -18.025  -9.954  -2.688  1.00  0.00    -0.348 OA
BRANCH   3   8
HETATM    8  O   UNL     1     -15.688 -11.246  -1.229  1.00  0.00    -0.383 OA
HETATM    9  C   UNL     1     -15.534 -11.987  -0.035  1.00  0.00     0.202 C 
ENDBRANCH   3   8
BRANCH   4  10
HETATM   10  O   UNL     1     -14.453 -11.907  -3.443  1.00  0.00    -0.385 OA
HETATM   11  C   UNL     1     -14.038 -13.252  -3.497  1.00  0.00     0.202 C 
ENDBRANCH   4  10
BRANCH   5  12
HETATM   12  O   UNL     1     -15.799 -10.261  -5.693  1.00  0.00    -0.385 OA
HETATM   13  C   UNL     1     -15.840 -11.582  -6.228  1.00  0.00     0.202 C 
ENDBRANCH   5  12
BRANCH   6  14
HETATM   14  C   UNL     1     -18.507  -9.993  -5.122  1.00  0.00     0.201 C 
BRANCH  14  15
HETATM   15  O   UNL     1     -18.965  -8.842  -5.839  1.00  0.00    -0.393 OA
HETATM   16  C   UNL     1     -19.886  -8.037  -5.110  1.00  0.00     0.201 C 
ENDBRANCH  14  15
ENDBRANCH   6  14
ENDBRANCH   1   2
BRANCH   1  17
HETATM   17  C   UNL     1     -19.909 -11.879  -0.844  1.00  0.00     0.187 C 
HETATM   18  C   UNL     1     -20.011 -13.418  -0.637  1.00  0.00     0.180 C 
HETATM   19  O   UNL     1     -21.357 -13.840  -0.444  1.00  0.00    -0.348 OA
HETATM   20  C   UNL     1     -21.961 -13.303   0.729  1.00  0.00     0.291 C 
HETATM   21  C   UNL     1     -22.090 -11.775   0.555  1.00  0.00     0.207 C 
HETATM   22  C   UNL     1     -20.664 -11.157   0.333  1.00  0.00     0.186 C 
BRANCH  18  23
HETATM   23  C   UNL     1     -19.092 -14.003   0.470  1.00  0.00     0.201 C 
BRANCH  23  24
HETATM   24  O   UNL     1     -19.195 -15.431   0.567  1.00  0.00    -0.393 OA
HETATM   25  C   UNL     1     -19.127 -15.925   1.900  1.00  0.00     0.201 C 
ENDBRANCH  23  24
ENDBRANCH  18  23
BRANCH  20  26
HETATM   26  O   UNL     1     -23.208 -13.950   0.946  1.00  0.00    -0.363 OA
HETATM   27  C   UNL     1     -23.451 -14.126   2.350  1.00  0.00     0.204 C 
ENDBRANCH  20  26
BRANCH  21  28
HETATM   28  O   UNL     1     -22.980 -11.521  -0.560  1.00  0.00    -0.383 OA
HETATM   29  C   UNL     1     -24.160 -10.800  -0.220  1.00  0.00     0.202 C 
ENDBRANCH  21  28
BRANCH  22  30
HETATM   30  O   UNL     1     -20.860  -9.747   0.100  1.00  0.00    -0.385 OA
HETATM   31  C   UNL     1     -21.166  -8.942   1.220  1.00  0.00     0.202 C 
ENDBRANCH  22  30
ENDBRANCH   1  17
TORSDOF 12
ENDMDL
MODEL 8
REMARK VINA RESULT:      -4.1      2.522      4.369
REMARK  12 active torsions:
REMARK  status: ('A' for Active; 'I' for Inactive)
REMARK    1  A    between atoms: O_2  and  C_3 
REMARK    2  A    between atoms: C_3  and  C_4 
REMARK    3  A    between atoms: C_5  and  O_30 
REMARK    4  A    between atoms: C_6  and  O_28 
REMARK    5  A    between atoms: C_7  and  O_26 
REMARK    6  A    between atoms: C_8  and  O_10 
REMARK    7  A    between atoms: O_10  and  C_11 
REMARK    8  A    between atoms: C_12  and  C_23 
REMARK    9  A    between atoms: C_14  and  O_21 
REMARK   10  A    between atoms: C_15  and  O_19 
REMARK   11  A    between atoms: C_16  and  O_17 
REMARK   12  A    between atoms: C_23  and  O_24 
ROOT
HETATM    1  O   UNL     1     -18.523 -10.604  -2.775  1.00  0.00    -0.348 OA
ENDROOT
BRANCH   1   2
HETATM    2  C   UNL     1     -17.473 -11.525  -3.173  1.00  0.00     0.292 C 
HETATM    3  C   UNL     1     -17.034 -12.422  -2.006  1.00  0.00     0.207 C 
HETATM    4  C   UNL     1     -15.883 -13.371  -2.366  1.00  0.00     0.186 C 
HETATM    5  C   UNL     1     -14.715 -12.639  -3.039  1.00  0.00     0.183 C 
HETATM    6  C   UNL     1     -15.187 -11.532  -4.029  1.00  0.00     0.180 C 
HETATM    7  O   UNL     1     -16.331 -10.768  -3.601  1.00  0.00    -0.348 OA
BRANCH   3   8
HETATM    8  O   UNL     1     -16.825 -11.730  -0.756  1.00  0.00    -0.383 OA
HETATM    9  C   UNL     1     -17.559 -12.110   0.390  1.00  0.00     0.202 C 
ENDBRANCH   3   8
BRANCH   4  10
HETATM   10  O   UNL     1     -15.514 -13.971  -1.108  1.00  0.00    -0.385 OA
HETATM   11  C   UNL     1     -15.622 -15.371  -0.985  1.00  0.00     0.202 C 
ENDBRANCH   4  10
BRANCH   5  12
HETATM   12  O   UNL     1     -13.869 -13.599  -3.704  1.00  0.00    -0.385 OA
HETATM   13  C   UNL     1     -12.705 -13.926  -2.949  1.00  0.00     0.202 C 
ENDBRANCH   5  12
BRANCH   6  14
HETATM   14  C   UNL     1     -15.329 -12.038  -5.483  1.00  0.00     0.201 C 
BRANCH  14  15
HETATM   15  O   UNL     1     -16.402 -11.425  -6.206  1.00  0.00    -0.393 OA
HETATM   16  C   UNL     1     -17.235 -12.349  -6.897  1.00  0.00     0.201 C 
ENDBRANCH  14  15
ENDBRANCH   6  14
ENDBRANCH   1   2
BRANCH   1  17
HETATM   17  C   UNL     1     -19.775 -11.190  -2.344  1.00  0.00     0.187 C 
HETATM   18  C   UNL     1     -20.470 -10.340  -1.242  1.00  0.00     0.180 C 
HETATM   19  O   UNL     1     -21.747 -10.864  -0.894  1.00  0.00    -0.348 OA
HETATM   20  C   UNL     1     -22.682 -10.849  -1.968  1.00  0.00     0.291 C 
HETATM   21  C   UNL     1     -22.186 -11.821  -3.060  1.00  0.00     0.207 C 
HETATM   22  C   UNL     1     -20.767 -11.365  -3.553  1.00  0.00     0.186 C 
BRANCH  18  23
HETATM   23  C   UNL     1     -20.566  -8.819  -1.537  1.00  0.00     0.201 C 
BRANCH  23  24
HETATM   24  O   UNL     1     -21.098  -8.079  -0.427  1.00  0.00    -0.393 OA
HETATM   25  C   UNL     1     -22.213  -7.261  -0.761  1.00  0.00     0.201 C 
ENDBRANCH  23  24
ENDBRANCH  18  23
BRANCH  20  26
HETATM   26  O   UNL     1     -23.971 -11.180  -1.467  1.00  0.00    -0.363 OA
HETATM   27  C   UNL     1     -24.073 -10.849  -0.074  1.00  0.00     0.204 C 
ENDBRANCH  20  26
BRANCH  21  28
HETATM   28  O   UNL     1     -22.171 -13.159  -2.501  1.00  0.00    -0.383 OA
HETATM   29  C   UNL     1     -22.924 -14.115  -3.239  1.00  0.00     0.202 C 
ENDBRANCH  21  28
BRANCH  22  30
HETATM   30  O   UNL     1     -20.329 -12.352  -4.509  1.00  0.00    -0.385 OA
HETATM   31  C   UNL     1     -20.800 -12.225  -5.835  1.00  0.00     0.202 C 
ENDBRANCH  22  30
ENDBRANCH   1  17
TORSDOF 12
ENDMDL
MODEL 9
REMARK VINA RESULT:      -4.1      1.892      6.986
REMARK  12 active torsions:
REMARK  status: ('A' for Active; 'I' for Inactive)
REMARK    1  A    between atoms: O_2  and  C_3 
REMARK    2  A    between atoms: C_3  and  C_4 
REMARK    3  A    between atoms: C_5  and  O_30 
REMARK    4  A    between atoms: C_6  and  O_28 
REMARK    5  A    between atoms: C_7  and  O_26 
REMARK    6  A    between atoms: C_8  and  O_10 
REMARK    7  A    between atoms: O_10  and  C_11 
REMARK    8  A    between atoms: C_12  and  C_23 
REMARK    9  A    between atoms: C_14  and  O_21 
REMARK   10  A    between atoms: C_15  and  O_19 
REMARK   11  A    between atoms: C_16  and  O_17 
REMARK   12  A    between atoms: C_23  and  O_24 
ROOT
HETATM    1  O   UNL     1     -19.372 -10.983  -4.511  1.00  0.00    -0.348 OA
ENDROOT
BRANCH   1   2
HETATM    2  C   UNL     1     -20.197 -10.993  -3.316  1.00  0.00     0.292 C 
HETATM    3  C   UNL     1     -21.222 -12.138  -3.343  1.00  0.00     0.207 C 
HETATM    4  C   UNL     1     -22.155 -12.150  -2.126  1.00  0.00     0.186 C 
HETATM    5  C   UNL     1     -22.788 -10.777  -1.866  1.00  0.00     0.183 C 
HETATM    6  C   UNL     1     -21.798  -9.600  -2.110  1.00  0.00     0.180 C 
HETATM    7  O   UNL     1     -20.921  -9.756  -3.242  1.00  0.00    -0.348 OA
BRANCH   3   8
HETATM    8  O   UNL     1     -21.924 -12.290  -4.595  1.00  0.00    -0.383 OA
HETATM    9  C   UNL     1     -21.643 -13.394  -5.431  1.00  0.00     0.202 C 
ENDBRANCH   3   8
BRANCH   4  10
HETATM   10  O   UNL     1     -23.131 -13.163  -2.441  1.00  0.00    -0.385 OA
HETATM   11  C   UNL     1     -22.862 -14.488  -2.042  1.00  0.00     0.202 C 
ENDBRANCH   4  10
BRANCH   5  12
HETATM   12  O   UNL     1     -23.312 -10.740  -0.523  1.00  0.00    -0.385 OA
HETATM   13  C   UNL     1     -22.747 -11.742   0.319  1.00  0.00     0.202 C 
ENDBRANCH   5  12
BRANCH   6  14
HETATM   14  C   UNL     1     -21.039  -9.170  -0.833  1.00  0.00     0.201 C 
BRANCH  14  15
HETATM   15  O   UNL     1     -21.651  -8.079  -0.136  1.00  0.00    -0.393 OA
HETATM   16  C   UNL     1     -22.194  -7.079  -0.992  1.00  0.00     0.201 C 
ENDBRANCH  14  15
ENDBRANCH   6  14
ENDBRANCH   1   2
BRANCH   1  17
HETATM   17  C   UNL     1     -18.235 -11.879  -4.525  1.00  0.00     0.187 C 
HETATM   18  C   UNL     1     -18.113 -12.648  -5.872  1.00  0.00     0.180 C 
HETATM   19  O   UNL     1     -16.937 -13.450  -5.920  1.00  0.00    -0.348 OA
HETATM   20  C   UNL     1     -15.730 -12.697  -5.854  1.00  0.00     0.291 C 
HETATM   21  C   UNL     1     -15.646 -12.030  -4.464  1.00  0.00     0.207 C 
HETATM   22  C   UNL     1     -16.894 -11.098  -4.262  1.00  0.00     0.186 C 
BRANCH  18  23
HETATM   23  C   UNL     1     -18.231 -11.775  -7.150  1.00  0.00     0.201 C 
BRANCH  23  24
HETATM   24  O   UNL     1     -19.432 -12.046  -7.888  1.00  0.00    -0.393 OA
HETATM   25  C   UNL     1     -19.402 -13.272  -8.610  1.00  0.00     0.201 C 
ENDBRANCH  23  24
ENDBRANCH  18  23
BRANCH  20  26
HETATM   26  O   UNL     1     -14.631 -13.557  -6.130  1.00  0.00    -0.363 OA
HETATM   27  C   UNL     1     -13.453 -12.794  -6.430  1.00  0.00     0.204 C 
ENDBRANCH  20  26
BRANCH  21  28
HETATM   28  O   UNL     1     -15.574 -13.078  -3.464  1.00  0.00    -0.383 OA
HETATM   29  C   UNL     1     -14.361 -13.098  -2.719  1.00  0.00     0.202 C 
ENDBRANCH  21  28
BRANCH  22  30
HETATM   30  O   UNL     1     -16.797 -10.571  -2.923  1.00  0.00    -0.385 OA
HETATM   31  C   UNL     1     -15.923  -9.480  -2.718  1.00  0.00     0.202 C 
ENDBRANCH  22  30
ENDBRANCH   1  17
TORSDOF 12
ENDMDL
