MODEL 1
REMARK VINA RESULT:      -5.8      0.000      0.000
REMARK  9 active torsions:
REMARK  status: ('A' for Active; 'I' for Inactive)
REMARK    1  A    between atoms: C_1  and  C_2 
REMARK    2  A    between atoms: C_1  and  O_10 
REMARK    3  A    between atoms: C_2  and  C_3 
REMARK    4  A    between atoms: C_2  and  O_9 
REMARK    5  A    between atoms: C_3  and  C_4 
REMARK    6  A    between atoms: C_3  and  O_8 
REMARK    7  A    between atoms: C_4  and  C_5 
REMARK    8  A    between atoms: C_4  and  O_7 
REMARK    9  A    between atoms: C_5  and  O_6 
ROOT
HETATM    1  C   UNL     1     -23.058  -2.571 -12.856  1.00  0.00     0.179 C 
ENDROOT
BRANCH   1   2
HETATM    2  C   UNL     1     -23.054  -2.593 -14.406  1.00  0.00     0.173 C 
BRANCH   2   3
HETATM    3  C   UNL     1     -23.552  -1.261 -15.004  1.00  0.00     0.198 C 
BRANCH   3   4
HETATM    4  O   UNL     1     -24.804  -0.848 -14.476  1.00  0.00    -0.398 OA
HETATM    5  H   UNL     1     -24.645  -0.568 -13.550  1.00  0.00     0.209 HD
ENDBRANCH   3   4
ENDBRANCH   2   3
BRANCH   2   6
HETATM    6  O   UNL     1     -23.855  -3.658 -14.916  1.00  0.00    -0.391 OA
HETATM    7  H   UNL     1     -23.667  -3.771 -15.862  1.00  0.00     0.210 HD
ENDBRANCH   2   6
ENDBRANCH   1   2
BRANCH   1   8
HETATM    8  C   UNL     1     -24.211  -3.375 -12.205  1.00  0.00     0.173 C 
BRANCH   8   9
HETATM    9  C   UNL     1     -24.149  -3.296 -10.669  1.00  0.00     0.198 C 
BRANCH   9  10
HETATM   10  O   UNL     1     -25.473  -3.196 -10.144  1.00  0.00    -0.398 OA
HETATM   11  H   UNL     1     -26.054  -3.624 -10.805  1.00  0.00     0.209 HD
ENDBRANCH   9  10
ENDBRANCH   8   9
BRANCH   8  12
HETATM   12  O   UNL     1     -25.516  -2.924 -12.589  1.00  0.00    -0.391 OA
HETATM   13  H   UNL     1     -25.891  -3.559 -13.222  1.00  0.00     0.210 HD
ENDBRANCH   8  12
ENDBRANCH   1   8
BRANCH   1  14
HETATM   14  O   UNL     1     -21.795  -3.041 -12.362  1.00  0.00    -0.390 OA
HETATM   15  H   UNL     1     -21.977  -3.655 -11.621  1.00  0.00     0.210 HD
ENDBRANCH   1  14
TORSDOF 9
ENDMDL
MODEL 2
REMARK VINA RESULT:      -5.4      1.013      3.950
REMARK  9 active torsions:
REMARK  status: ('A' for Active; 'I' for Inactive)
REMARK    1  A    between atoms: C_1  and  C_2 
REMARK    2  A    between atoms: C_1  and  O_10 
REMARK    3  A    between atoms: C_2  and  C_3 
REMARK    4  A    between atoms: C_2  and  O_9 
REMARK    5  A    between atoms: C_3  and  C_4 
REMARK    6  A    between atoms: C_3  and  O_8 
REMARK    7  A    between atoms: C_4  and  C_5 
REMARK    8  A    between atoms: C_4  and  O_7 
REMARK    9  A    between atoms: C_5  and  O_6 
ROOT
HETATM    1  C   UNL     1     -23.641  -2.555 -13.051  1.00  0.00     0.179 C 
ENDROOT
BRANCH   1   2
HETATM    2  C   UNL     1     -22.930  -3.774 -12.408  1.00  0.00     0.173 C 
BRANCH   2   3
HETATM    3  C   UNL     1     -23.203  -3.869 -10.893  1.00  0.00     0.198 C 
BRANCH   3   4
HETATM    4  O   UNL     1     -24.504  -4.353 -10.592  1.00  0.00    -0.398 OA
HETATM    5  H   UNL     1     -24.932  -3.682 -10.020  1.00  0.00     0.209 HD
ENDBRANCH   3   4
ENDBRANCH   2   3
BRANCH   2   6
HETATM    6  O   UNL     1     -21.521  -3.730 -12.623  1.00  0.00    -0.391 OA
HETATM    7  H   UNL     1     -21.171  -2.899 -12.263  1.00  0.00     0.210 HD
ENDBRANCH   2   6
ENDBRANCH   1   2
BRANCH   1   8
HETATM    8  C   UNL     1     -23.530  -2.488 -14.595  1.00  0.00     0.173 C 
BRANCH   8   9
HETATM    9  C   UNL     1     -23.628  -1.036 -15.099  1.00  0.00     0.198 C 
BRANCH   9  10
HETATM   10  O   UNL     1     -24.900  -0.494 -14.745  1.00  0.00    -0.398 OA
HETATM   11  H   UNL     1     -24.986   0.337 -15.256  1.00  0.00     0.209 HD
ENDBRANCH   9  10
ENDBRANCH   8   9
BRANCH   8  12
HETATM   12  O   UNL     1     -22.302  -3.021 -15.107  1.00  0.00    -0.391 OA
HETATM   13  H   UNL     1     -22.224  -2.776 -16.045  1.00  0.00     0.210 HD
ENDBRANCH   8  12
ENDBRANCH   1   8
BRANCH   1  14
HETATM   14  O   UNL     1     -25.022  -2.539 -12.660  1.00  0.00    -0.390 OA
HETATM   15  H   UNL     1     -25.071  -2.850 -11.733  1.00  0.00     0.210 HD
ENDBRANCH   1  14
TORSDOF 9
ENDMDL
MODEL 3
REMARK VINA RESULT:      -5.3      1.130      2.433
REMARK  9 active torsions:
REMARK  status: ('A' for Active; 'I' for Inactive)
REMARK    1  A    between atoms: C_1  and  C_2 
REMARK    2  A    between atoms: C_1  and  O_10 
REMARK    3  A    between atoms: C_2  and  C_3 
REMARK    4  A    between atoms: C_2  and  O_9 
REMARK    5  A    between atoms: C_3  and  C_4 
REMARK    6  A    between atoms: C_3  and  O_8 
REMARK    7  A    between atoms: C_4  and  C_5 
REMARK    8  A    between atoms: C_4  and  O_7 
REMARK    9  A    between atoms: C_5  and  O_6 
ROOT
HETATM    1  C   UNL     1     -23.884  -3.428 -12.077  1.00  0.00     0.179 C 
ENDROOT
BRANCH   1   2
HETATM    2  C   UNL     1     -22.738  -2.873 -12.962  1.00  0.00     0.173 C 
BRANCH   2   3
HETATM    3  C   UNL     1     -23.163  -2.740 -14.439  1.00  0.00     0.198 C 
BRANCH   3   4
HETATM    4  O   UNL     1     -23.869  -3.876 -14.919  1.00  0.00    -0.398 OA
HETATM    5  H   UNL     1     -24.759  -3.852 -14.509  1.00  0.00     0.209 HD
ENDBRANCH   3   4
ENDBRANCH   2   3
BRANCH   2   6
HETATM    6  O   UNL     1     -21.574  -3.694 -12.887  1.00  0.00    -0.391 OA
HETATM    7  H   UNL     1     -21.022  -3.393 -12.146  1.00  0.00     0.210 HD
ENDBRANCH   2   6
ENDBRANCH   1   2
BRANCH   1   8
HETATM    8  C   UNL     1     -23.712  -3.156 -10.561  1.00  0.00     0.173 C 
BRANCH   8   9
HETATM    9  C   UNL     1     -24.734  -3.955  -9.731  1.00  0.00     0.198 C 
BRANCH   9  10
HETATM   10  O   UNL     1     -25.987  -3.271  -9.732  1.00  0.00    -0.398 OA
HETATM   11  H   UNL     1     -25.785  -2.346  -9.983  1.00  0.00     0.209 HD
ENDBRANCH   9  10
ENDBRANCH   8   9
BRANCH   8  12
HETATM   12  O   UNL     1     -22.415  -3.499 -10.058  1.00  0.00    -0.391 OA
HETATM   13  H   UNL     1     -21.990  -4.110 -10.683  1.00  0.00     0.210 HD
ENDBRANCH   8  12
ENDBRANCH   1   8
BRANCH   1  14
HETATM   14  O   UNL     1     -25.142  -2.904 -12.527  1.00  0.00    -0.390 OA
HETATM   15  H   UNL     1     -24.997  -2.506 -13.410  1.00  0.00     0.210 HD
ENDBRANCH   1  14
TORSDOF 9
ENDMDL
MODEL 4
REMARK VINA RESULT:      -5.3      1.294      4.335
REMARK  9 active torsions:
REMARK  status: ('A' for Active; 'I' for Inactive)
REMARK    1  A    between atoms: C_1  and  C_2 
REMARK    2  A    between atoms: C_1  and  O_10 
REMARK    3  A    between atoms: C_2  and  C_3 
REMARK    4  A    between atoms: C_2  and  O_9 
REMARK    5  A    between atoms: C_3  and  C_4 
REMARK    6  A    between atoms: C_3  and  O_8 
REMARK    7  A    between atoms: C_4  and  C_5 
REMARK    8  A    between atoms: C_4  and  O_7 
REMARK    9  A    between atoms: C_5  and  O_6 
ROOT
HETATM    1  C   UNL     1     -23.976  -3.059 -12.072  1.00  0.00     0.179 C 
ENDROOT
BRANCH   1   2
HETATM    2  C   UNL     1     -23.984  -4.005 -10.843  1.00  0.00     0.173 C 
BRANCH   2   3
HETATM    3  C   UNL     1     -24.644  -3.348  -9.613  1.00  0.00     0.198 C 
BRANCH   3   4
HETATM    4  O   UNL     1     -26.058  -3.263  -9.719  1.00  0.00    -0.398 OA
HETATM    5  H   UNL     1     -26.423  -4.076  -9.311  1.00  0.00     0.209 HD
ENDBRANCH   3   4
ENDBRANCH   2   3
BRANCH   2   6
HETATM    6  O   UNL     1     -22.665  -4.421 -10.495  1.00  0.00    -0.391 OA
HETATM    7  H   UNL     1     -22.623  -4.568  -9.536  1.00  0.00     0.210 HD
ENDBRANCH   2   6
ENDBRANCH   1   2
BRANCH   1   8
HETATM    8  C   UNL     1     -23.075  -3.532 -13.240  1.00  0.00     0.173 C 
BRANCH   8   9
HETATM    9  C   UNL     1     -23.168  -2.573 -14.441  1.00  0.00     0.198 C 
BRANCH   9  10
HETATM   10  O   UNL     1     -22.209  -2.953 -15.429  1.00  0.00    -0.398 OA
HETATM   11  H   UNL     1     -22.070  -2.158 -15.983  1.00  0.00     0.209 HD
ENDBRANCH   9  10
ENDBRANCH   8   9
BRANCH   8  12
HETATM   12  O   UNL     1     -21.687  -3.627 -12.894  1.00  0.00    -0.391 OA
HETATM   13  H   UNL     1     -21.436  -2.832 -12.394  1.00  0.00     0.210 HD
ENDBRANCH   8  12
ENDBRANCH   1   8
BRANCH   1  14
HETATM   14  O   UNL     1     -25.318  -2.862 -12.540  1.00  0.00    -0.390 OA
HETATM   15  H   UNL     1     -25.926  -3.172 -11.838  1.00  0.00     0.210 HD
ENDBRANCH   1  14
TORSDOF 9
ENDMDL
MODEL 5
REMARK VINA RESULT:      -5.0      1.565      4.274
REMARK  9 active torsions:
REMARK  status: ('A' for Active; 'I' for Inactive)
REMARK    1  A    between atoms: C_1  and  C_2 
REMARK    2  A    between atoms: C_1  and  O_10 
REMARK    3  A    between atoms: C_2  and  C_3 
REMARK    4  A    between atoms: C_2  and  O_9 
REMARK    5  A    between atoms: C_3  and  C_4 
REMARK    6  A    between atoms: C_3  and  O_8 
REMARK    7  A    between atoms: C_4  and  C_5 
REMARK    8  A    between atoms: C_4  and  O_7 
REMARK    9  A    between atoms: C_5  and  O_6 
ROOT
HETATM    1  C   UNL     1     -23.501  -4.236 -11.968  1.00  0.00     0.179 C 
ENDROOT
BRANCH   1   2
HETATM    2  C   UNL     1     -23.817  -3.459 -10.665  1.00  0.00     0.173 C 
BRANCH   2   3
HETATM    3  C   UNL     1     -23.341  -4.218  -9.410  1.00  0.00     0.198 C 
BRANCH   3   4
HETATM    4  O   UNL     1     -24.088  -3.894  -8.246  1.00  0.00    -0.398 OA
HETATM    5  H   UNL     1     -23.860  -4.561  -7.565  1.00  0.00     0.209 HD
ENDBRANCH   3   4
ENDBRANCH   2   3
BRANCH   2   6
HETATM    6  O   UNL     1     -25.212  -3.188 -10.541  1.00  0.00    -0.391 OA
HETATM    7  H   UNL     1     -25.539  -3.582  -9.716  1.00  0.00     0.210 HD
ENDBRANCH   2   6
ENDBRANCH   1   2
BRANCH   1   8
HETATM    8  C   UNL     1     -24.120  -3.621 -13.249  1.00  0.00     0.173 C 
BRANCH   8   9
HETATM    9  C   UNL     1     -23.199  -2.544 -13.852  1.00  0.00     0.198 C 
BRANCH   9  10
HETATM   10  O   UNL     1     -22.463  -3.102 -14.940  1.00  0.00    -0.398 OA
HETATM   11  H   UNL     1     -22.394  -4.060 -14.751  1.00  0.00     0.209 HD
ENDBRANCH   9  10
ENDBRANCH   8   9
BRANCH   8  12
HETATM   12  O   UNL     1     -24.369  -4.579 -14.286  1.00  0.00    -0.391 OA
HETATM   13  H   UNL     1     -24.992  -5.245 -13.951  1.00  0.00     0.210 HD
ENDBRANCH   8  12
ENDBRANCH   1   8
BRANCH   1  14
HETATM   14  O   UNL     1     -22.080  -4.363 -12.125  1.00  0.00    -0.390 OA
HETATM   15  H   UNL     1     -21.804  -3.742 -12.830  1.00  0.00     0.210 HD
ENDBRANCH   1  14
TORSDOF 9
ENDMDL
MODEL 6
REMARK VINA RESULT:      -5.0      1.377      2.336
REMARK  9 active torsions:
REMARK  status: ('A' for Active; 'I' for Inactive)
REMARK    1  A    between atoms: C_1  and  C_2 
REMARK    2  A    between atoms: C_1  and  O_10 
REMARK    3  A    between atoms: C_2  and  C_3 
REMARK    4  A    between atoms: C_2  and  O_9 
REMARK    5  A    between atoms: C_3  and  C_4 
REMARK    6  A    between atoms: C_3  and  O_8 
REMARK    7  A    between atoms: C_4  and  C_5 
REMARK    8  A    between atoms: C_4  and  O_7 
REMARK    9  A    between atoms: C_5  and  O_6 
ROOT
HETATM    1  C   UNL     1     -23.416  -3.034 -11.423  1.00  0.00     0.179 C 
ENDROOT
BRANCH   1   2
HETATM    2  C   UNL     1     -24.140  -3.226 -12.781  1.00  0.00     0.173 C 
BRANCH   2   3
HETATM    3  C   UNL     1     -23.454  -2.441 -13.918  1.00  0.00     0.198 C 
BRANCH   3   4
HETATM    4  O   UNL     1     -22.332  -3.120 -14.464  1.00  0.00    -0.398 OA
HETATM    5  H   UNL     1     -22.006  -3.735 -13.772  1.00  0.00     0.209 HD
ENDBRANCH   3   4
ENDBRANCH   2   3
BRANCH   2   6
HETATM    6  O   UNL     1     -25.508  -2.830 -12.705  1.00  0.00    -0.391 OA
HETATM    7  H   UNL     1     -25.926  -2.965 -13.572  1.00  0.00     0.210 HD
ENDBRANCH   2   6
ENDBRANCH   1   2
BRANCH   1   8
HETATM    8  C   UNL     1     -24.134  -3.687 -10.215  1.00  0.00     0.173 C 
BRANCH   8   9
HETATM    9  C   UNL     1     -23.174  -3.864  -9.025  1.00  0.00     0.198 C 
BRANCH   9  10
HETATM   10  O   UNL     1     -23.929  -4.095  -7.835  1.00  0.00    -0.398 OA
HETATM   11  H   UNL     1     -23.373  -4.674  -7.275  1.00  0.00     0.209 HD
ENDBRANCH   9  10
ENDBRANCH   8   9
BRANCH   8  12
HETATM   12  O   UNL     1     -25.253  -2.933  -9.734  1.00  0.00    -0.391 OA
HETATM   13  H   UNL     1     -25.283  -2.084 -10.207  1.00  0.00     0.210 HD
ENDBRANCH   8  12
ENDBRANCH   1   8
BRANCH   1  14
HETATM   14  O   UNL     1     -22.072  -3.527 -11.517  1.00  0.00    -0.390 OA
HETATM   15  H   UNL     1     -22.098  -4.493 -11.358  1.00  0.00     0.210 HD
ENDBRANCH   1  14
TORSDOF 9
ENDMDL
MODEL 7
REMARK VINA RESULT:      -4.6     11.443     12.664
REMARK  9 active torsions:
REMARK  status: ('A' for Active; 'I' for Inactive)
REMARK    1  A    between atoms: C_1  and  C_2 
REMARK    2  A    between atoms: C_1  and  O_10 
REMARK    3  A    between atoms: C_2  and  C_3 
REMARK    4  A    between atoms: C_2  and  O_9 
REMARK    5  A    between atoms: C_3  and  C_4 
REMARK    6  A    between atoms: C_3  and  O_8 
REMARK    7  A    between atoms: C_4  and  C_5 
REMARK    8  A    between atoms: C_4  and  O_7 
REMARK    9  A    between atoms: C_5  and  O_6 
ROOT
HETATM    1  C   UNL     1     -36.268   0.116 -13.954  1.00  0.00     0.179 C 
ENDROOT
BRANCH   1   2
HETATM    2  C   UNL     1     -35.166  -0.239 -12.922  1.00  0.00     0.173 C 
BRANCH   2   3
HETATM    3  C   UNL     1     -35.174  -1.739 -12.563  1.00  0.00     0.198 C 
BRANCH   3   4
HETATM    4  O   UNL     1     -34.679  -2.564 -13.608  1.00  0.00    -0.398 OA
HETATM    5  H   UNL     1     -35.454  -2.851 -14.136  1.00  0.00     0.209 HD
ENDBRANCH   3   4
ENDBRANCH   2   3
BRANCH   2   6
HETATM    6  O   UNL     1     -35.304   0.525 -11.726  1.00  0.00    -0.391 OA
HETATM    7  H   UNL     1     -34.439   0.895 -11.485  1.00  0.00     0.210 HD
ENDBRANCH   2   6
ENDBRANCH   1   2
BRANCH   1   8
HETATM    8  C   UNL     1     -35.740   0.427 -15.377  1.00  0.00     0.173 C 
BRANCH   8   9
HETATM    9  C   UNL     1     -36.090  -0.703 -16.362  1.00  0.00     0.198 C 
BRANCH   9  10
HETATM   10  O   UNL     1     -35.209  -1.807 -16.153  1.00  0.00    -0.398 OA
HETATM   11  H   UNL     1     -35.488  -2.214 -15.308  1.00  0.00     0.209 HD
ENDBRANCH   9  10
ENDBRANCH   8   9
BRANCH   8  12
HETATM   12  O   UNL     1     -36.266   1.638 -15.934  1.00  0.00    -0.391 OA
HETATM   13  H   UNL     1     -36.519   1.471 -16.858  1.00  0.00     0.210 HD
ENDBRANCH   8  12
ENDBRANCH   1   8
BRANCH   1  14
HETATM   14  O   UNL     1     -37.236  -0.942 -14.013  1.00  0.00    -0.390 OA
HETATM   15  H   UNL     1     -37.312  -1.324 -13.114  1.00  0.00     0.210 HD
ENDBRANCH   1  14
TORSDOF 9
ENDMDL
MODEL 8
REMARK VINA RESULT:      -4.5     16.940     17.948
REMARK  9 active torsions:
REMARK  status: ('A' for Active; 'I' for Inactive)
REMARK    1  A    between atoms: C_1  and  C_2 
REMARK    2  A    between atoms: C_1  and  O_10 
REMARK    3  A    between atoms: C_2  and  C_3 
REMARK    4  A    between atoms: C_2  and  O_9 
REMARK    5  A    between atoms: C_3  and  C_4 
REMARK    6  A    between atoms: C_3  and  O_8 
REMARK    7  A    between atoms: C_4  and  C_5 
REMARK    8  A    between atoms: C_4  and  O_7 
REMARK    9  A    between atoms: C_5  and  O_6 
ROOT
HETATM    1  C   UNL     1     -11.479   7.230 -19.910  1.00  0.00     0.179 C 
ENDROOT
BRANCH   1   2
HETATM    2  C   UNL     1     -10.240   6.384 -20.301  1.00  0.00     0.173 C 
BRANCH   2   3
HETATM    3  C   UNL     1      -9.926   5.299 -19.250  1.00  0.00     0.198 C 
BRANCH   3   4
HETATM    4  O   UNL     1      -9.582   5.837 -17.981  1.00  0.00    -0.398 OA
HETATM    5  H   UNL     1      -9.729   6.805 -18.033  1.00  0.00     0.209 HD
ENDBRANCH   3   4
ENDBRANCH   2   3
BRANCH   2   6
HETATM    6  O   UNL     1      -9.085   7.201 -20.482  1.00  0.00    -0.391 OA
HETATM    7  H   UNL     1      -9.324   7.973 -21.021  1.00  0.00     0.210 HD
ENDBRANCH   2   6
ENDBRANCH   1   2
BRANCH   1   8
HETATM    8  C   UNL     1     -11.150   8.660 -19.415  1.00  0.00     0.173 C 
BRANCH   8   9
HETATM    9  C   UNL     1     -12.431   9.439 -19.065  1.00  0.00     0.198 C 
BRANCH   9  10
HETATM   10  O   UNL     1     -13.435   8.528 -18.619  1.00  0.00    -0.398 OA
HETATM   11  H   UNL     1     -13.619   8.770 -17.688  1.00  0.00     0.209 HD
ENDBRANCH   9  10
ENDBRANCH   8   9
BRANCH   8  12
HETATM   12  O   UNL     1     -10.318   8.689 -18.248  1.00  0.00    -0.391 OA
HETATM   13  H   UNL     1      -9.557   8.102 -18.395  1.00  0.00     0.210 HD
ENDBRANCH   8  12
ENDBRANCH   1   8
BRANCH   1  14
HETATM   14  O   UNL     1     -12.391   7.294 -21.017  1.00  0.00    -0.390 OA
HETATM   15  H   UNL     1     -13.106   7.918 -20.776  1.00  0.00     0.210 HD
ENDBRANCH   1  14
TORSDOF 9
ENDMDL
MODEL 9
REMARK VINA RESULT:      -4.5      1.893      4.333
REMARK  9 active torsions:
REMARK  status: ('A' for Active; 'I' for Inactive)
REMARK    1  A    between atoms: C_1  and  C_2 
REMARK    2  A    between atoms: C_1  and  O_10 
REMARK    3  A    between atoms: C_2  and  C_3 
REMARK    4  A    between atoms: C_2  and  O_9 
REMARK    5  A    between atoms: C_3  and  C_4 
REMARK    6  A    between atoms: C_3  and  O_8 
REMARK    7  A    between atoms: C_4  and  C_5 
REMARK    8  A    between atoms: C_4  and  O_7 
REMARK    9  A    between atoms: C_5  and  O_6 
ROOT
HETATM    1  C   UNL     1     -22.988  -4.483 -11.186  1.00  0.00     0.179 C 
ENDROOT
BRANCH   1   2
HETATM    2  C   UNL     1     -22.301  -4.593  -9.800  1.00  0.00     0.173 C 
BRANCH   2   3
HETATM    3  C   UNL     1     -22.857  -3.563  -8.797  1.00  0.00     0.198 C 
BRANCH   3   4
HETATM    4  O   UNL     1     -24.065  -3.983  -8.179  1.00  0.00    -0.398 OA
HETATM    5  H   UNL     1     -24.585  -4.457  -8.863  1.00  0.00     0.209 HD
ENDBRANCH   3   4
ENDBRANCH   2   3
BRANCH   2   6
HETATM    6  O   UNL     1     -20.888  -4.425  -9.902  1.00  0.00    -0.391 OA
HETATM    7  H   UNL     1     -20.623  -3.651  -9.378  1.00  0.00     0.210 HD
ENDBRANCH   2   6
ENDBRANCH   1   2
BRANCH   1   8
HETATM    8  C   UNL     1     -23.752  -3.156 -11.420  1.00  0.00     0.173 C 
BRANCH   8   9
HETATM    9  C   UNL     1     -23.735  -2.756 -12.907  1.00  0.00     0.198 C 
BRANCH   9  10
HETATM   10  O   UNL     1     -24.150  -3.865 -13.703  1.00  0.00    -0.398 OA
HETATM   11  H   UNL     1     -23.706  -3.753 -14.568  1.00  0.00     0.209 HD
ENDBRANCH   9  10
ENDBRANCH   8   9
BRANCH   8  12
HETATM   12  O   UNL     1     -25.128  -3.207 -11.023  1.00  0.00    -0.391 OA
HETATM   13  H   UNL     1     -25.639  -2.605 -11.591  1.00  0.00     0.210 HD
ENDBRANCH   8  12
ENDBRANCH   1   8
BRANCH   1  14
HETATM   14  O   UNL     1     -22.016  -4.676 -12.225  1.00  0.00    -0.390 OA
HETATM   15  H   UNL     1     -21.431  -3.891 -12.233  1.00  0.00     0.210 HD
ENDBRANCH   1  14
TORSDOF 9
ENDMDL
