MODEL 1
REMARK VINA RESULT:      -5.7      0.000      0.000
REMARK  18 active torsions:
REMARK  status: ('A' for Active; 'I' for Inactive)
REMARK    1  A    between atoms: C_1  and  C_2 
REMARK    2  A    between atoms: C_1  and  O_34 
REMARK    3  A    between atoms: C_3  and  O_33 
REMARK    4  A    between atoms: C_4  and  O_32 
REMARK    5  A    between atoms: C_5  and  O_31 
REMARK    6  A    between atoms: C_6  and  O_8 
REMARK    7  A    between atoms: O_8  and  C_9 
REMARK    8  A    between atoms: C_10  and  C_29 
REMARK    9  A    between atoms: C_12  and  O_17 
REMARK   10  A    between atoms: C_13  and  O_16 
REMARK   11  A    between atoms: C_14  and  O_15 
REMARK   12  A    between atoms: O_17  and  C_18 
REMARK   13  A    between atoms: C_19  and  C_27 
REMARK   14  A    between atoms: C_21  and  O_26 
REMARK   15  A    between atoms: C_22  and  O_25 
REMARK   16  A    between atoms: C_23  and  O_24 
REMARK   17  A    between atoms: C_27  and  O_28 
REMARK   18  A    between atoms: C_29  and  O_30 
ROOT
HETATM    1  C   UNL     1     -21.129  -4.729  -7.921  1.00  0.00     0.187 C 
HETATM    2  C   UNL     1     -19.752  -5.353  -7.583  1.00  0.00     0.180 C 
HETATM    3  O   UNL     1     -19.871  -6.712  -7.145  1.00  0.00    -0.348 OA
HETATM    4  C   UNL     1     -20.765  -6.988  -6.063  1.00  0.00     0.292 C 
HETATM    5  C   UNL     1     -22.136  -6.255  -6.168  1.00  0.00     0.204 C 
HETATM    6  C   UNL     1     -22.020  -4.811  -6.675  1.00  0.00     0.183 C 
ENDROOT
BRANCH   1   7
HETATM    7  O   UNL     1     -21.659  -5.455  -9.049  1.00  0.00    -0.348 OA
BRANCH   7   8
HETATM    8  C   UNL     1     -22.391  -4.775 -10.077  1.00  0.00     0.292 C 
HETATM    9  C   UNL     1     -21.631  -4.562 -11.416  1.00  0.00     0.204 C 
HETATM   10  C   UNL     1     -22.573  -3.891 -12.431  1.00  0.00     0.183 C 
HETATM   11  C   UNL     1     -23.153  -2.590 -11.848  1.00  0.00     0.180 C 
HETATM   12  C   UNL     1     -23.840  -2.861 -10.495  1.00  0.00     0.179 C 
HETATM   13  O   UNL     1     -22.966  -3.562  -9.575  1.00  0.00    -0.348 OA
BRANCH   9  14
HETATM   14  O   UNL     1     -20.471  -3.707 -11.309  1.00  0.00    -0.388 OA
HETATM   15  H   UNL     1     -19.963  -3.794 -12.151  1.00  0.00     0.210 HD
ENDBRANCH   9  14
BRANCH  10  16
HETATM   16  O   UNL     1     -21.848  -3.613 -13.636  1.00  0.00    -0.390 OA
HETATM   17  H   UNL     1     -20.995  -4.089 -13.575  1.00  0.00     0.210 HD
ENDBRANCH  10  16
BRANCH  11  18
HETATM   18  O   UNL     1     -22.118  -1.617 -11.602  1.00  0.00    -0.390 OA
HETATM   19  H   UNL     1     -22.141  -0.963 -12.325  1.00  0.00     0.210 HD
ENDBRANCH  11  18
BRANCH  12  20
HETATM   20  C   UNL     1     -25.208  -3.545 -10.627  1.00  0.00     0.198 C 
BRANCH  20  21
HETATM   21  O   UNL     1     -26.083  -3.183  -9.567  1.00  0.00    -0.398 OA
HETATM   22  H   UNL     1     -26.140  -3.941  -8.954  1.00  0.00     0.209 HD
ENDBRANCH  20  21
ENDBRANCH  12  20
ENDBRANCH   7   8
ENDBRANCH   1   7
BRANCH   2  23
HETATM   23  C   UNL     1     -18.880  -4.477  -6.659  1.00  0.00     0.198 C 
BRANCH  23  24
HETATM   24  O   UNL     1     -17.629  -4.118  -7.233  1.00  0.00    -0.398 OA
HETATM   25  H   UNL     1     -17.117  -4.933  -7.395  1.00  0.00     0.209 HD
ENDBRANCH  23  24
ENDBRANCH   2  23
BRANCH   6  26
HETATM   26  O   UNL     1     -23.311  -4.230  -6.923  1.00  0.00    -0.390 OA
HETATM   27  H   UNL     1     -23.213  -3.257  -6.815  1.00  0.00     0.210 HD
ENDBRANCH   6  26
BRANCH   5  28
HETATM   28  O   UNL     1     -22.895  -6.336  -4.960  1.00  0.00    -0.388 OA
HETATM   29  H   UNL     1     -23.781  -6.667  -5.191  1.00  0.00     0.210 HD
ENDBRANCH   5  28
BRANCH   4  30
HETATM   30  O   UNL     1     -20.113  -6.931  -4.768  1.00  0.00    -0.348 OA
BRANCH  30  31
HETATM   31  C   UNL     1     -19.688  -8.248  -4.310  1.00  0.00     0.187 C 
HETATM   32  C   UNL     1     -19.922  -9.369  -5.347  1.00  0.00     0.180 C 
HETATM   33  O   UNL     1     -21.258  -9.893  -5.362  1.00  0.00    -0.349 OA
HETATM   34  C   UNL     1     -21.789 -10.320  -4.127  1.00  0.00     0.288 C 
HETATM   35  C   UNL     1     -21.752  -9.220  -3.057  1.00  0.00     0.204 C 
HETATM   36  C   UNL     1     -20.347  -8.607  -2.952  1.00  0.00     0.183 C 
BRANCH  32  37
HETATM   37  C   UNL     1     -18.867 -10.485  -5.226  1.00  0.00     0.198 C 
BRANCH  37  38
HETATM   38  O   UNL     1     -19.214 -11.572  -6.077  1.00  0.00    -0.398 OA
HETATM   39  H   UNL     1     -18.367 -11.920  -6.421  1.00  0.00     0.209 HD
ENDBRANCH  37  38
ENDBRANCH  32  37
BRANCH  34  40
HETATM   40  O   UNL     1     -21.170 -11.525  -3.688  1.00  0.00    -0.369 OA
HETATM   41  H   UNL     1     -20.729 -11.353  -2.837  1.00  0.00     0.212 HD
ENDBRANCH  34  40
BRANCH  35  42
HETATM   42  O   UNL     1     -22.113  -9.785  -1.778  1.00  0.00    -0.388 OA
HETATM   43  H   UNL     1     -23.077  -9.713  -1.660  1.00  0.00     0.210 HD
ENDBRANCH  35  42
BRANCH  36  44
HETATM   44  O   UNL     1     -20.356  -7.477  -2.071  1.00  0.00    -0.390 OA
HETATM   45  H   UNL     1     -21.059  -7.643  -1.414  1.00  0.00     0.210 HD
ENDBRANCH  36  44
ENDBRANCH  30  31
ENDBRANCH   4  30
TORSDOF 18
ENDMDL
MODEL 2
REMARK VINA RESULT:      -5.6      1.078      2.388
REMARK  18 active torsions:
REMARK  status: ('A' for Active; 'I' for Inactive)
REMARK    1  A    between atoms: C_1  and  C_2 
REMARK    2  A    between atoms: C_1  and  O_34 
REMARK    3  A    between atoms: C_3  and  O_33 
REMARK    4  A    between atoms: C_4  and  O_32 
REMARK    5  A    between atoms: C_5  and  O_31 
REMARK    6  A    between atoms: C_6  and  O_8 
REMARK    7  A    between atoms: O_8  and  C_9 
REMARK    8  A    between atoms: C_10  and  C_29 
REMARK    9  A    between atoms: C_12  and  O_17 
REMARK   10  A    between atoms: C_13  and  O_16 
REMARK   11  A    between atoms: C_14  and  O_15 
REMARK   12  A    between atoms: O_17  and  C_18 
REMARK   13  A    between atoms: C_19  and  C_27 
REMARK   14  A    between atoms: C_21  and  O_26 
REMARK   15  A    between atoms: C_22  and  O_25 
REMARK   16  A    between atoms: C_23  and  O_24 
REMARK   17  A    between atoms: C_27  and  O_28 
REMARK   18  A    between atoms: C_29  and  O_30 
ROOT
HETATM    1  C   UNL     1     -21.346  -4.676  -7.960  1.00  0.00     0.187 C 
HETATM    2  C   UNL     1     -20.022  -5.352  -7.521  1.00  0.00     0.180 C 
HETATM    3  O   UNL     1     -20.229  -6.697  -7.074  1.00  0.00    -0.348 OA
HETATM    4  C   UNL     1     -21.204  -6.918  -6.051  1.00  0.00     0.292 C 
HETATM    5  C   UNL     1     -22.532  -6.130  -6.259  1.00  0.00     0.204 C 
HETATM    6  C   UNL     1     -22.321  -4.700  -6.776  1.00  0.00     0.183 C 
ENDROOT
BRANCH   1   7
HETATM    7  O   UNL     1     -21.830  -5.398  -9.112  1.00  0.00    -0.348 OA
BRANCH   7   8
HETATM    8  C   UNL     1     -22.515  -4.713 -10.169  1.00  0.00     0.292 C 
HETATM    9  C   UNL     1     -21.713  -4.541 -11.489  1.00  0.00     0.204 C 
HETATM   10  C   UNL     1     -22.608  -3.860 -12.538  1.00  0.00     0.183 C 
HETATM   11  C   UNL     1     -23.166  -2.534 -11.989  1.00  0.00     0.180 C 
HETATM   12  C   UNL     1     -23.896  -2.765 -10.653  1.00  0.00     0.179 C 
HETATM   13  O   UNL     1     -23.068  -3.477  -9.699  1.00  0.00    -0.348 OA
BRANCH   9  14
HETATM   14  O   UNL     1     -20.533  -3.717 -11.362  1.00  0.00    -0.388 OA
HETATM   15  H   UNL     1     -20.432  -3.216 -12.207  1.00  0.00     0.210 HD
ENDBRANCH   9  14
BRANCH  10  16
HETATM   16  O   UNL     1     -21.843  -3.619 -13.727  1.00  0.00    -0.390 OA
HETATM   17  H   UNL     1     -22.409  -3.863 -14.487  1.00  0.00     0.210 HD
ENDBRANCH  10  16
BRANCH  11  18
HETATM   18  O   UNL     1     -22.111  -1.587 -11.729  1.00  0.00    -0.390 OA
HETATM   19  H   UNL     1     -22.208  -1.273 -10.810  1.00  0.00     0.210 HD
ENDBRANCH  11  18
BRANCH  12  20
HETATM   20  C   UNL     1     -25.280  -3.413 -10.812  1.00  0.00     0.198 C 
BRANCH  20  21
HETATM   21  O   UNL     1     -26.063  -3.280  -9.633  1.00  0.00    -0.398 OA
HETATM   22  H   UNL     1     -26.518  -4.130  -9.479  1.00  0.00     0.209 HD
ENDBRANCH  20  21
ENDBRANCH  12  20
ENDBRANCH   7   8
ENDBRANCH   1   7
BRANCH   2  23
HETATM   23  C   UNL     1     -19.177  -4.499  -6.553  1.00  0.00     0.198 C 
BRANCH  23  24
HETATM   24  O   UNL     1     -19.755  -4.367  -5.260  1.00  0.00    -0.398 OA
HETATM   25  H   UNL     1     -19.570  -5.182  -4.755  1.00  0.00     0.209 HD
ENDBRANCH  23  24
ENDBRANCH   2  23
BRANCH   6  26
HETATM   26  O   UNL     1     -23.566  -4.070  -7.118  1.00  0.00    -0.390 OA
HETATM   27  H   UNL     1     -23.782  -4.342  -8.038  1.00  0.00     0.210 HD
ENDBRANCH   6  26
BRANCH   5  28
HETATM   28  O   UNL     1     -23.373  -6.159  -5.103  1.00  0.00    -0.388 OA
HETATM   29  H   UNL     1     -24.112  -5.545  -5.261  1.00  0.00     0.210 HD
ENDBRANCH   5  28
BRANCH   4  30
HETATM   30  O   UNL     1     -20.638  -6.866  -4.716  1.00  0.00    -0.348 OA
BRANCH  30  31
HETATM   31  C   UNL     1     -21.255  -7.838  -3.822  1.00  0.00     0.187 C 
HETATM   32  C   UNL     1     -20.962  -7.576  -2.327  1.00  0.00     0.180 C 
HETATM   33  O   UNL     1     -19.697  -8.082  -1.874  1.00  0.00    -0.349 OA
HETATM   34  C   UNL     1     -19.419  -9.439  -2.145  1.00  0.00     0.288 C 
HETATM   35  C   UNL     1     -19.526  -9.775  -3.639  1.00  0.00     0.204 C 
HETATM   36  C   UNL     1     -20.865  -9.287  -4.214  1.00  0.00     0.183 C 
BRANCH  32  37
HETATM   37  C   UNL     1     -22.123  -8.043  -1.429  1.00  0.00     0.198 C 
BRANCH  37  38
HETATM   38  O   UNL     1     -22.697  -6.924  -0.761  1.00  0.00    -0.398 OA
HETATM   39  H   UNL     1     -21.962  -6.296  -0.617  1.00  0.00     0.209 HD
ENDBRANCH  37  38
ENDBRANCH  32  37
BRANCH  34  40
HETATM   40  O   UNL     1     -20.214 -10.300  -1.337  1.00  0.00    -0.369 OA
HETATM   41  H   UNL     1     -21.101 -10.364  -1.733  1.00  0.00     0.212 HD
ENDBRANCH  34  40
BRANCH  35  42
HETATM   42  O   UNL     1     -19.436 -11.206  -3.814  1.00  0.00    -0.388 OA
HETATM   43  H   UNL     1     -20.318 -11.555  -4.033  1.00  0.00     0.210 HD
ENDBRANCH  35  42
BRANCH  36  44
HETATM   44  O   UNL     1     -20.894  -9.459  -5.637  1.00  0.00    -0.390 OA
HETATM   45  H   UNL     1     -21.286 -10.338  -5.802  1.00  0.00     0.210 HD
ENDBRANCH  36  44
ENDBRANCH  30  31
ENDBRANCH   4  30
TORSDOF 18
ENDMDL
MODEL 3
REMARK VINA RESULT:      -5.4      1.192      2.203
REMARK  18 active torsions:
REMARK  status: ('A' for Active; 'I' for Inactive)
REMARK    1  A    between atoms: C_1  and  C_2 
REMARK    2  A    between atoms: C_1  and  O_34 
REMARK    3  A    between atoms: C_3  and  O_33 
REMARK    4  A    between atoms: C_4  and  O_32 
REMARK    5  A    between atoms: C_5  and  O_31 
REMARK    6  A    between atoms: C_6  and  O_8 
REMARK    7  A    between atoms: O_8  and  C_9 
REMARK    8  A    between atoms: C_10  and  C_29 
REMARK    9  A    between atoms: C_12  and  O_17 
REMARK   10  A    between atoms: C_13  and  O_16 
REMARK   11  A    between atoms: C_14  and  O_15 
REMARK   12  A    between atoms: O_17  and  C_18 
REMARK   13  A    between atoms: C_19  and  C_27 
REMARK   14  A    between atoms: C_21  and  O_26 
REMARK   15  A    between atoms: C_22  and  O_25 
REMARK   16  A    between atoms: C_23  and  O_24 
REMARK   17  A    between atoms: C_27  and  O_28 
REMARK   18  A    between atoms: C_29  and  O_30 
ROOT
HETATM    1  C   UNL     1     -21.433  -4.658  -7.366  1.00  0.00     0.187 C 
HETATM    2  C   UNL     1     -20.052  -5.288  -7.055  1.00  0.00     0.180 C 
HETATM    3  O   UNL     1     -20.145  -6.699  -6.822  1.00  0.00    -0.348 OA
HETATM    4  C   UNL     1     -21.076  -7.151  -5.834  1.00  0.00     0.292 C 
HETATM    5  C   UNL     1     -22.464  -6.447  -5.899  1.00  0.00     0.204 C 
HETATM    6  C   UNL     1     -22.374  -4.942  -6.188  1.00  0.00     0.183 C 
ENDROOT
BRANCH   1   7
HETATM    7  O   UNL     1     -21.890  -5.228  -8.610  1.00  0.00    -0.348 OA
BRANCH   7   8
HETATM    8  C   UNL     1     -22.324  -4.384  -9.685  1.00  0.00     0.292 C 
HETATM    9  C   UNL     1     -23.862  -4.212  -9.825  1.00  0.00     0.204 C 
HETATM   10  C   UNL     1     -24.158  -3.225 -10.967  1.00  0.00     0.183 C 
HETATM   11  C   UNL     1     -23.477  -3.688 -12.269  1.00  0.00     0.180 C 
HETATM   12  C   UNL     1     -21.967  -3.896 -12.045  1.00  0.00     0.179 C 
HETATM   13  O   UNL     1     -21.701  -4.767 -10.917  1.00  0.00    -0.348 OA
BRANCH   9  14
HETATM   14  O   UNL     1     -24.568  -5.431 -10.147  1.00  0.00    -0.388 OA
HETATM   15  H   UNL     1     -24.905  -5.341 -11.070  1.00  0.00     0.210 HD
ENDBRANCH   9  14
BRANCH  10  16
HETATM   16  O   UNL     1     -25.577  -3.133 -11.158  1.00  0.00    -0.390 OA
HETATM   17  H   UNL     1     -25.995  -3.312 -10.291  1.00  0.00     0.210 HD
ENDBRANCH  10  16
BRANCH  11  18
HETATM   18  O   UNL     1     -24.009  -4.949 -12.720  1.00  0.00    -0.390 OA
HETATM   19  H   UNL     1     -24.778  -4.765 -13.291  1.00  0.00     0.210 HD
ENDBRANCH  11  18
BRANCH  12  20
HETATM   20  C   UNL     1     -21.171  -2.586 -11.962  1.00  0.00     0.198 C 
BRANCH  20  21
HETATM   21  O   UNL     1     -19.903  -2.776 -11.348  1.00  0.00    -0.398 OA
HETATM   22  H   UNL     1     -19.814  -3.725 -11.137  1.00  0.00     0.209 HD
ENDBRANCH  20  21
ENDBRANCH  12  20
ENDBRANCH   7   8
ENDBRANCH   1   7
BRANCH   2  23
HETATM   23  C   UNL     1     -19.249  -4.533  -5.976  1.00  0.00     0.198 C 
BRANCH  23  24
HETATM   24  O   UNL     1     -19.940  -4.408  -4.739  1.00  0.00    -0.398 OA
HETATM   25  H   UNL     1     -19.284  -4.421  -4.016  1.00  0.00     0.209 HD
ENDBRANCH  23  24
ENDBRANCH   2  23
BRANCH   6  26
HETATM   26  O   UNL     1     -23.671  -4.365  -6.412  1.00  0.00    -0.390 OA
HETATM   27  H   UNL     1     -24.021  -4.096  -5.533  1.00  0.00     0.210 HD
ENDBRANCH   6  26
BRANCH   5  28
HETATM   28  O   UNL     1     -23.272  -6.720  -4.752  1.00  0.00    -0.388 OA
HETATM   29  H   UNL     1     -22.841  -6.307  -3.983  1.00  0.00     0.210 HD
ENDBRANCH   5  28
BRANCH   4  30
HETATM   30  O   UNL     1     -20.482  -7.264  -4.515  1.00  0.00    -0.348 OA
BRANCH  30  31
HETATM   31  C   UNL     1     -20.000  -8.612  -4.244  1.00  0.00     0.187 C 
HETATM   32  C   UNL     1     -20.569  -9.678  -5.208  1.00  0.00     0.180 C 
HETATM   33  O   UNL     1     -21.874 -10.160  -4.853  1.00  0.00    -0.349 OA
HETATM   34  C   UNL     1     -22.044 -10.626  -3.533  1.00  0.00     0.288 C 
HETATM   35  C   UNL     1     -21.654  -9.576  -2.482  1.00  0.00     0.204 C 
HETATM   36  C   UNL     1     -20.254  -9.012  -2.768  1.00  0.00     0.183 C 
BRANCH  32  37
HETATM   37  C   UNL     1     -19.573 -10.830  -5.435  1.00  0.00     0.198 C 
BRANCH  37  38
HETATM   38  O   UNL     1     -19.703 -11.327  -6.763  1.00  0.00    -0.398 OA
HETATM   39  H   UNL     1     -19.647 -12.300  -6.689  1.00  0.00     0.209 HD
ENDBRANCH  37  38
ENDBRANCH  32  37
BRANCH  34  40
HETATM   40  O   UNL     1     -21.376 -11.867  -3.333  1.00  0.00    -0.369 OA
HETATM   41  H   UNL     1     -20.853 -11.809  -2.514  1.00  0.00     0.212 HD
ENDBRANCH  34  40
BRANCH  35  42
HETATM   42  O   UNL     1     -21.655 -10.188  -1.173  1.00  0.00    -0.388 OA
HETATM   43  H   UNL     1     -20.996  -9.739  -0.614  1.00  0.00     0.210 HD
ENDBRANCH  35  42
BRANCH  36  44
HETATM   44  O   UNL     1     -19.961  -7.923  -1.883  1.00  0.00    -0.390 OA
HETATM   45  H   UNL     1     -20.026  -8.278  -0.975  1.00  0.00     0.210 HD
ENDBRANCH  36  44
ENDBRANCH  30  31
ENDBRANCH   4  30
TORSDOF 18
ENDMDL
MODEL 4
REMARK VINA RESULT:      -5.4      4.775      8.684
REMARK  18 active torsions:
REMARK  status: ('A' for Active; 'I' for Inactive)
REMARK    1  A    between atoms: C_1  and  C_2 
REMARK    2  A    between atoms: C_1  and  O_34 
REMARK    3  A    between atoms: C_3  and  O_33 
REMARK    4  A    between atoms: C_4  and  O_32 
REMARK    5  A    between atoms: C_5  and  O_31 
REMARK    6  A    between atoms: C_6  and  O_8 
REMARK    7  A    between atoms: O_8  and  C_9 
REMARK    8  A    between atoms: C_10  and  C_29 
REMARK    9  A    between atoms: C_12  and  O_17 
REMARK   10  A    between atoms: C_13  and  O_16 
REMARK   11  A    between atoms: C_14  and  O_15 
REMARK   12  A    between atoms: O_17  and  C_18 
REMARK   13  A    between atoms: C_19  and  C_27 
REMARK   14  A    between atoms: C_21  and  O_26 
REMARK   15  A    between atoms: C_22  and  O_25 
REMARK   16  A    between atoms: C_23  and  O_24 
REMARK   17  A    between atoms: C_27  and  O_28 
REMARK   18  A    between atoms: C_29  and  O_30 
ROOT
HETATM    1  C   UNL     1     -17.595 -12.685  -3.492  1.00  0.00     0.187 C 
HETATM    2  C   UNL     1     -19.137 -12.534  -3.451  1.00  0.00     0.180 C 
HETATM    3  O   UNL     1     -19.571 -11.304  -4.046  1.00  0.00    -0.348 OA
HETATM    4  C   UNL     1     -18.989 -10.089  -3.565  1.00  0.00     0.292 C 
HETATM    5  C   UNL     1     -17.446 -10.160  -3.363  1.00  0.00     0.204 C 
HETATM    6  C   UNL     1     -16.968 -11.490  -2.763  1.00  0.00     0.183 C 
ENDROOT
BRANCH   1   7
HETATM    7  O   UNL     1     -17.213 -12.770  -4.881  1.00  0.00    -0.348 OA
BRANCH   7   8
HETATM    8  C   UNL     1     -18.122 -13.294  -5.858  1.00  0.00     0.292 C 
HETATM    9  C   UNL     1     -17.784 -14.710  -6.400  1.00  0.00     0.204 C 
HETATM   10  C   UNL     1     -18.888 -15.155  -7.375  1.00  0.00     0.183 C 
HETATM   11  C   UNL     1     -19.077 -14.108  -8.488  1.00  0.00     0.180 C 
HETATM   12  C   UNL     1     -19.350 -12.718  -7.883  1.00  0.00     0.179 C 
HETATM   13  O   UNL     1     -18.343 -12.344  -6.909  1.00  0.00    -0.348 OA
BRANCH   9  14
HETATM   14  O   UNL     1     -16.541 -14.784  -7.132  1.00  0.00    -0.388 OA
HETATM   15  H   UNL     1     -16.551 -15.627  -7.645  1.00  0.00     0.210 HD
ENDBRANCH   9  14
BRANCH  10  16
HETATM   16  O   UNL     1     -18.534 -16.423  -7.944  1.00  0.00    -0.390 OA
HETATM   17  H   UNL     1     -19.007 -17.110  -7.432  1.00  0.00     0.210 HD
ENDBRANCH  10  16
BRANCH  11  18
HETATM   18  O   UNL     1     -17.892 -13.984  -9.299  1.00  0.00    -0.390 OA
HETATM   19  H   UNL     1     -17.921 -13.117  -9.744  1.00  0.00     0.210 HD
ENDBRANCH  11  18
BRANCH  12  20
HETATM   20  C   UNL     1     -20.774 -12.555  -7.332  1.00  0.00     0.198 C 
BRANCH  20  21
HETATM   21  O   UNL     1     -20.942 -11.312  -6.663  1.00  0.00    -0.398 OA
HETATM   22  H   UNL     1     -20.214 -11.219  -6.019  1.00  0.00     0.209 HD
ENDBRANCH  20  21
ENDBRANCH  12  20
ENDBRANCH   7   8
ENDBRANCH   1   7
BRANCH   2  23
HETATM   23  C   UNL     1     -19.754 -12.804  -2.063  1.00  0.00     0.198 C 
BRANCH  23  24
HETATM   24  O   UNL     1     -21.093 -12.342  -1.938  1.00  0.00    -0.398 OA
HETATM   25  H   UNL     1     -21.620 -13.037  -1.501  1.00  0.00     0.209 HD
ENDBRANCH  23  24
ENDBRANCH   2  23
BRANCH   6  26
HETATM   26  O   UNL     1     -15.534 -11.585  -2.754  1.00  0.00    -0.390 OA
HETATM   27  H   UNL     1     -15.202 -10.845  -2.197  1.00  0.00     0.210 HD
ENDBRANCH   6  26
BRANCH   5  28
HETATM   28  O   UNL     1     -16.935  -9.037  -2.641  1.00  0.00    -0.388 OA
HETATM   29  H   UNL     1     -17.312  -8.234  -3.042  1.00  0.00     0.210 HD
ENDBRANCH   5  28
BRANCH   4  30
HETATM   30  O   UNL     1     -19.745  -9.496  -2.479  1.00  0.00    -0.348 OA
BRANCH  30  31
HETATM   31  C   UNL     1     -21.009  -8.932  -2.934  1.00  0.00     0.187 C 
HETATM   32  C   UNL     1     -20.854  -7.586  -3.679  1.00  0.00     0.180 C 
HETATM   33  O   UNL     1     -20.745  -6.442  -2.817  1.00  0.00    -0.349 OA
HETATM   34  C   UNL     1     -21.746  -6.288  -1.835  1.00  0.00     0.288 C 
HETATM   35  C   UNL     1     -21.876  -7.520  -0.928  1.00  0.00     0.204 C 
HETATM   36  C   UNL     1     -22.018  -8.801  -1.764  1.00  0.00     0.183 C 
BRANCH  32  37
HETATM   37  C   UNL     1     -21.944  -7.399  -4.749  1.00  0.00     0.198 C 
BRANCH  37  38
HETATM   38  O   UNL     1     -22.037  -6.024  -5.109  1.00  0.00    -0.398 OA
HETATM   39  H   UNL     1     -22.785  -5.965  -5.737  1.00  0.00     0.209 HD
ENDBRANCH  37  38
ENDBRANCH  32  37
BRANCH  34  40
HETATM   40  O   UNL     1     -22.988  -5.909  -2.417  1.00  0.00    -0.369 OA
HETATM   41  H   UNL     1     -22.956  -4.958  -2.624  1.00  0.00     0.212 HD
ENDBRANCH  34  40
BRANCH  35  42
HETATM   42  O   UNL     1     -23.045  -7.375  -0.091  1.00  0.00    -0.388 OA
HETATM   43  H   UNL     1     -23.685  -8.072  -0.318  1.00  0.00     0.210 HD
ENDBRANCH  35  42
BRANCH  36  44
HETATM   44  O   UNL     1     -21.979  -9.959  -0.920  1.00  0.00    -0.390 OA
HETATM   45  H   UNL     1     -22.421 -10.676  -1.414  1.00  0.00     0.210 HD
ENDBRANCH  36  44
ENDBRANCH  30  31
ENDBRANCH   4  30
TORSDOF 18
ENDMDL
MODEL 5
REMARK VINA RESULT:      -5.4      3.961      7.555
REMARK  18 active torsions:
REMARK  status: ('A' for Active; 'I' for Inactive)
REMARK    1  A    between atoms: C_1  and  C_2 
REMARK    2  A    between atoms: C_1  and  O_34 
REMARK    3  A    between atoms: C_3  and  O_33 
REMARK    4  A    between atoms: C_4  and  O_32 
REMARK    5  A    between atoms: C_5  and  O_31 
REMARK    6  A    between atoms: C_6  and  O_8 
REMARK    7  A    between atoms: O_8  and  C_9 
REMARK    8  A    between atoms: C_10  and  C_29 
REMARK    9  A    between atoms: C_12  and  O_17 
REMARK   10  A    between atoms: C_13  and  O_16 
REMARK   11  A    between atoms: C_14  and  O_15 
REMARK   12  A    between atoms: O_17  and  C_18 
REMARK   13  A    between atoms: C_19  and  C_27 
REMARK   14  A    between atoms: C_21  and  O_26 
REMARK   15  A    between atoms: C_22  and  O_25 
REMARK   16  A    between atoms: C_23  and  O_24 
REMARK   17  A    between atoms: C_27  and  O_28 
REMARK   18  A    between atoms: C_29  and  O_30 
ROOT
HETATM    1  C   UNL     1     -19.533 -10.115  -4.951  1.00  0.00     0.187 C 
HETATM    2  C   UNL     1     -18.417 -10.188  -3.879  1.00  0.00     0.180 C 
HETATM    3  O   UNL     1     -17.125 -10.401  -4.463  1.00  0.00    -0.348 OA
HETATM    4  C   UNL     1     -16.970 -11.514  -5.349  1.00  0.00     0.292 C 
HETATM    5  C   UNL     1     -18.138 -11.686  -6.365  1.00  0.00     0.204 C 
HETATM    6  C   UNL     1     -19.522 -11.420  -5.757  1.00  0.00     0.183 C 
ENDROOT
BRANCH   1   7
HETATM    7  O   UNL     1     -19.274  -8.946  -5.756  1.00  0.00    -0.348 OA
BRANCH   7   8
HETATM    8  C   UNL     1     -19.829  -7.674  -5.398  1.00  0.00     0.292 C 
HETATM    9  C   UNL     1     -20.761  -7.673  -4.155  1.00  0.00     0.204 C 
HETATM   10  C   UNL     1     -21.210  -6.231  -3.861  1.00  0.00     0.183 C 
HETATM   11  C   UNL     1     -21.861  -5.605  -5.108  1.00  0.00     0.180 C 
HETATM   12  C   UNL     1     -20.909  -5.692  -6.317  1.00  0.00     0.179 C 
HETATM   13  O   UNL     1     -20.433  -7.044  -6.535  1.00  0.00    -0.348 OA
BRANCH   9  14
HETATM   14  O   UNL     1     -21.968  -8.450  -4.318  1.00  0.00    -0.388 OA
HETATM   15  H   UNL     1     -22.300  -8.670  -3.415  1.00  0.00     0.210 HD
ENDBRANCH   9  14
BRANCH  10  16
HETATM   16  O   UNL     1     -22.140  -6.239  -2.769  1.00  0.00    -0.390 OA
HETATM   17  H   UNL     1     -22.917  -5.715  -3.050  1.00  0.00     0.210 HD
ENDBRANCH  10  16
BRANCH  11  18
HETATM   18  O   UNL     1     -23.067  -6.303  -5.477  1.00  0.00    -0.390 OA
HETATM   19  H   UNL     1     -23.124  -6.311  -6.451  1.00  0.00     0.210 HD
ENDBRANCH  11  18
BRANCH  12  20
HETATM   20  C   UNL     1     -19.759  -4.676  -6.268  1.00  0.00     0.198 C 
BRANCH  20  21
HETATM   21  O   UNL     1     -19.135  -4.524  -7.536  1.00  0.00    -0.398 OA
HETATM   22  H   UNL     1     -19.813  -4.676  -8.222  1.00  0.00     0.209 HD
ENDBRANCH  20  21
ENDBRANCH  12  20
ENDBRANCH   7   8
ENDBRANCH   1   7
BRANCH   2  23
HETATM   23  C   UNL     1     -18.735 -11.144  -2.711  1.00  0.00     0.198 C 
BRANCH  23  24
HETATM   24  O   UNL     1     -17.594 -11.493  -1.937  1.00  0.00    -0.398 OA
HETATM   25  H   UNL     1     -17.645 -12.444  -1.722  1.00  0.00     0.209 HD
ENDBRANCH  23  24
ENDBRANCH   2  23
BRANCH   6  26
HETATM   26  O   UNL     1     -20.552 -11.418  -6.759  1.00  0.00    -0.390 OA
HETATM   27  H   UNL     1     -20.165 -11.011  -7.567  1.00  0.00     0.210 HD
ENDBRANCH   6  26
BRANCH   5  28
HETATM   28  O   UNL     1     -18.089 -12.940  -7.049  1.00  0.00    -0.388 OA
HETATM   29  H   UNL     1     -17.415 -12.868  -7.748  1.00  0.00     0.210 HD
ENDBRANCH   5  28
BRANCH   4  30
HETATM   30  O   UNL     1     -16.541 -12.719  -4.665  1.00  0.00    -0.348 OA
BRANCH  30  31
HETATM   31  C   UNL     1     -15.100 -12.917  -4.755  1.00  0.00     0.187 C 
HETATM   32  C   UNL     1     -14.699 -14.240  -5.446  1.00  0.00     0.180 C 
HETATM   33  O   UNL     1     -14.722 -15.389  -4.585  1.00  0.00    -0.349 OA
HETATM   34  C   UNL     1     -14.006 -15.291  -3.373  1.00  0.00     0.288 C 
HETATM   35  C   UNL     1     -14.442 -14.088  -2.525  1.00  0.00     0.204 C 
HETATM   36  C   UNL     1     -14.430 -12.798  -3.361  1.00  0.00     0.183 C 
BRANCH  32  37
HETATM   37  C   UNL     1     -13.358 -14.108  -6.193  1.00  0.00     0.198 C 
BRANCH  37  38
HETATM   38  O   UNL     1     -13.207 -12.780  -6.683  1.00  0.00    -0.398 OA
HETATM   39  H   UNL     1     -12.370 -12.451  -6.300  1.00  0.00     0.209 HD
ENDBRANCH  37  38
ENDBRANCH  32  37
BRANCH  34  40
HETATM   40  O   UNL     1     -12.601 -15.313  -3.601  1.00  0.00    -0.369 OA
HETATM   41  H   UNL     1     -12.211 -16.021  -3.058  1.00  0.00     0.212 HD
ENDBRANCH  34  40
BRANCH  35  42
HETATM   42  O   UNL     1     -13.534 -13.933  -1.413  1.00  0.00    -0.388 OA
HETATM   43  H   UNL     1     -13.374 -12.984  -1.264  1.00  0.00     0.210 HD
ENDBRANCH  35  42
BRANCH  36  44
HETATM   44  O   UNL     1     -14.989 -11.710  -2.614  1.00  0.00    -0.390 OA
HETATM   45  H   UNL     1     -15.100 -12.031  -1.698  1.00  0.00     0.210 HD
ENDBRANCH  36  44
ENDBRANCH  30  31
ENDBRANCH   4  30
TORSDOF 18
ENDMDL
MODEL 6
REMARK VINA RESULT:      -5.3      2.026      4.080
REMARK  18 active torsions:
REMARK  status: ('A' for Active; 'I' for Inactive)
REMARK    1  A    between atoms: C_1  and  C_2 
REMARK    2  A    between atoms: C_1  and  O_34 
REMARK    3  A    between atoms: C_3  and  O_33 
REMARK    4  A    between atoms: C_4  and  O_32 
REMARK    5  A    between atoms: C_5  and  O_31 
REMARK    6  A    between atoms: C_6  and  O_8 
REMARK    7  A    between atoms: O_8  and  C_9 
REMARK    8  A    between atoms: C_10  and  C_29 
REMARK    9  A    between atoms: C_12  and  O_17 
REMARK   10  A    between atoms: C_13  and  O_16 
REMARK   11  A    between atoms: C_14  and  O_15 
REMARK   12  A    between atoms: O_17  and  C_18 
REMARK   13  A    between atoms: C_19  and  C_27 
REMARK   14  A    between atoms: C_21  and  O_26 
REMARK   15  A    between atoms: C_22  and  O_25 
REMARK   16  A    between atoms: C_23  and  O_24 
REMARK   17  A    between atoms: C_27  and  O_28 
REMARK   18  A    between atoms: C_29  and  O_30 
ROOT
HETATM    1  C   UNL     1     -20.799  -6.043  -6.292  1.00  0.00     0.187 C 
HETATM    2  C   UNL     1     -20.971  -7.579  -6.193  1.00  0.00     0.180 C 
HETATM    3  O   UNL     1     -21.961  -7.947  -5.223  1.00  0.00    -0.348 OA
HETATM    4  C   UNL     1     -21.821  -7.426  -3.898  1.00  0.00     0.292 C 
HETATM    5  C   UNL     1     -21.443  -5.915  -3.846  1.00  0.00     0.204 C 
HETATM    6  C   UNL     1     -20.413  -5.505  -4.908  1.00  0.00     0.183 C 
ENDROOT
BRANCH   1   7
HETATM    7  O   UNL     1     -22.044  -5.506  -6.785  1.00  0.00    -0.348 OA
BRANCH   7   8
HETATM    8  C   UNL     1     -22.079  -4.729  -7.989  1.00  0.00     0.292 C 
HETATM    9  C   UNL     1     -23.466  -4.139  -8.369  1.00  0.00     0.204 C 
HETATM   10  C   UNL     1     -23.319  -3.276  -9.633  1.00  0.00     0.183 C 
HETATM   11  C   UNL     1     -22.673  -4.091 -10.769  1.00  0.00     0.180 C 
HETATM   12  C   UNL     1     -21.334  -4.696 -10.308  1.00  0.00     0.179 C 
HETATM   13  O   UNL     1     -21.472  -5.443  -9.073  1.00  0.00    -0.348 OA
BRANCH   9  14
HETATM   14  O   UNL     1     -24.471  -5.133  -8.668  1.00  0.00    -0.388 OA
HETATM   15  H   UNL     1     -24.894  -5.390  -7.814  1.00  0.00     0.210 HD
ENDBRANCH   9  14
BRANCH  10  16
HETATM   16  O   UNL     1     -24.611  -2.803 -10.037  1.00  0.00    -0.390 OA
HETATM   17  H   UNL     1     -24.550  -1.829 -10.112  1.00  0.00     0.210 HD
ENDBRANCH  10  16
BRANCH  11  18
HETATM   18  O   UNL     1     -23.513  -5.193 -11.167  1.00  0.00    -0.390 OA
HETATM   19  H   UNL     1     -22.952  -5.853 -11.615  1.00  0.00     0.210 HD
ENDBRANCH  11  18
BRANCH  12  20
HETATM   20  C   UNL     1     -20.189  -3.674 -10.239  1.00  0.00     0.198 C 
BRANCH  20  21
HETATM   21  O   UNL     1     -20.153  -2.845 -11.394  1.00  0.00    -0.398 OA
HETATM   22  H   UNL     1     -20.490  -3.366 -12.147  1.00  0.00     0.209 HD
ENDBRANCH  20  21
ENDBRANCH  12  20
ENDBRANCH   7   8
ENDBRANCH   1   7
BRANCH   2  23
HETATM   23  C   UNL     1     -19.642  -8.349  -6.046  1.00  0.00     0.198 C 
BRANCH  23  24
HETATM   24  O   UNL     1     -19.807  -9.684  -5.586  1.00  0.00    -0.398 OA
HETATM   25  H   UNL     1     -18.985 -10.178  -5.767  1.00  0.00     0.209 HD
ENDBRANCH  23  24
ENDBRANCH   2  23
BRANCH   6  26
HETATM   26  O   UNL     1     -20.222  -4.081  -4.941  1.00  0.00    -0.390 OA
HETATM   27  H   UNL     1     -21.060  -3.672  -4.628  1.00  0.00     0.210 HD
ENDBRANCH   6  26
BRANCH   5  28
HETATM   28  O   UNL     1     -21.055  -5.492  -2.537  1.00  0.00    -0.388 OA
HETATM   29  H   UNL     1     -21.009  -6.285  -1.973  1.00  0.00     0.210 HD
ENDBRANCH   5  28
BRANCH   4  30
HETATM   30  O   UNL     1     -21.059  -8.301  -3.028  1.00  0.00    -0.348 OA
BRANCH  30  31
HETATM   31  C   UNL     1     -21.919  -9.104  -2.168  1.00  0.00     0.187 C 
HETATM   32  C   UNL     1     -21.757  -8.790  -0.663  1.00  0.00     0.180 C 
HETATM   33  O   UNL     1     -20.648  -9.452  -0.037  1.00  0.00    -0.349 OA
HETATM   34  C   UNL     1     -20.562 -10.850  -0.206  1.00  0.00     0.288 C 
HETATM   35  C   UNL     1     -20.555 -11.266  -1.684  1.00  0.00     0.204 C 
HETATM   36  C   UNL     1     -21.725 -10.619  -2.439  1.00  0.00     0.183 C 
BRANCH  32  37
HETATM   37  C   UNL     1     -23.070  -9.012   0.109  1.00  0.00     0.198 C 
BRANCH  37  38
HETATM   38  O   UNL     1     -23.652  -7.756   0.444  1.00  0.00    -0.398 OA
HETATM   39  H   UNL     1     -22.950  -7.255   0.906  1.00  0.00     0.209 HD
ENDBRANCH  37  38
ENDBRANCH  32  37
BRANCH  34  40
HETATM   40  O   UNL     1     -21.570 -11.523   0.542  1.00  0.00    -0.369 OA
HETATM   41  H   UNL     1     -22.420 -11.419   0.080  1.00  0.00     0.212 HD
ENDBRANCH  34  40
BRANCH  35  42
HETATM   42  O   UNL     1     -20.675 -12.703  -1.776  1.00  0.00    -0.388 OA
HETATM   43  H   UNL     1     -19.797 -13.084  -1.953  1.00  0.00     0.210 HD
ENDBRANCH  35  42
BRANCH  36  44
HETATM   44  O   UNL     1     -21.622 -10.880  -3.845  1.00  0.00    -0.390 OA
HETATM   45  H   UNL     1     -20.671 -10.844  -4.064  1.00  0.00     0.210 HD
ENDBRANCH  36  44
ENDBRANCH  30  31
ENDBRANCH   4  30
TORSDOF 18
ENDMDL
MODEL 7
REMARK VINA RESULT:      -5.3      1.463      3.046
REMARK  18 active torsions:
REMARK  status: ('A' for Active; 'I' for Inactive)
REMARK    1  A    between atoms: C_1  and  C_2 
REMARK    2  A    between atoms: C_1  and  O_34 
REMARK    3  A    between atoms: C_3  and  O_33 
REMARK    4  A    between atoms: C_4  and  O_32 
REMARK    5  A    between atoms: C_5  and  O_31 
REMARK    6  A    between atoms: C_6  and  O_8 
REMARK    7  A    between atoms: O_8  and  C_9 
REMARK    8  A    between atoms: C_10  and  C_29 
REMARK    9  A    between atoms: C_12  and  O_17 
REMARK   10  A    between atoms: C_13  and  O_16 
REMARK   11  A    between atoms: C_14  and  O_15 
REMARK   12  A    between atoms: O_17  and  C_18 
REMARK   13  A    between atoms: C_19  and  C_27 
REMARK   14  A    between atoms: C_21  and  O_26 
REMARK   15  A    between atoms: C_22  and  O_25 
REMARK   16  A    between atoms: C_23  and  O_24 
REMARK   17  A    between atoms: C_27  and  O_28 
REMARK   18  A    between atoms: C_29  and  O_30 
ROOT
HETATM    1  C   UNL     1     -21.213  -4.711  -7.644  1.00  0.00     0.187 C 
HETATM    2  C   UNL     1     -19.886  -5.496  -7.492  1.00  0.00     0.180 C 
HETATM    3  O   UNL     1     -20.112  -6.886  -7.227  1.00  0.00    -0.348 OA
HETATM    4  C   UNL     1     -20.961  -7.226  -6.128  1.00  0.00     0.292 C 
HETATM    5  C   UNL     1     -22.257  -6.366  -6.037  1.00  0.00     0.204 C 
HETATM    6  C   UNL     1     -22.031  -4.882  -6.358  1.00  0.00     0.183 C 
ENDROOT
BRANCH   1   7
HETATM    7  O   UNL     1     -21.879  -5.226  -8.816  1.00  0.00    -0.348 OA
BRANCH   7   8
HETATM    8  C   UNL     1     -22.360  -4.337  -9.834  1.00  0.00     0.292 C 
HETATM    9  C   UNL     1     -23.905  -4.203  -9.934  1.00  0.00     0.204 C 
HETATM   10  C   UNL     1     -24.252  -3.164 -11.014  1.00  0.00     0.183 C 
HETATM   11  C   UNL     1     -23.586  -3.535 -12.352  1.00  0.00     0.180 C 
HETATM   12  C   UNL     1     -22.066  -3.711 -12.170  1.00  0.00     0.179 C 
HETATM   13  O   UNL     1     -21.752  -4.634 -11.097  1.00  0.00    -0.348 OA
BRANCH   9  14
HETATM   14  O   UNL     1     -24.582  -5.423 -10.309  1.00  0.00    -0.388 OA
HETATM   15  H   UNL     1     -25.513  -5.353  -9.989  1.00  0.00     0.210 HD
ENDBRANCH   9  14
BRANCH  10  16
HETATM   16  O   UNL     1     -25.677  -3.104 -11.171  1.00  0.00    -0.390 OA
HETATM   17  H   UNL     1     -25.914  -2.160 -11.275  1.00  0.00     0.210 HD
ENDBRANCH  10  16
BRANCH  11  18
HETATM   18  O   UNL     1     -24.091  -4.785 -12.862  1.00  0.00    -0.390 OA
HETATM   19  H   UNL     1     -25.024  -4.652 -13.114  1.00  0.00     0.210 HD
ENDBRANCH  11  18
BRANCH  12  20
HETATM   20  C   UNL     1     -21.306  -2.384 -12.030  1.00  0.00     0.198 C 
BRANCH  20  21
HETATM   21  O   UNL     1     -20.045  -2.562 -11.397  1.00  0.00    -0.398 OA
HETATM   22  H   UNL     1     -19.368  -2.631 -12.097  1.00  0.00     0.209 HD
ENDBRANCH  20  21
ENDBRANCH  12  20
ENDBRANCH   7   8
ENDBRANCH   1   7
BRANCH   2  23
HETATM   23  C   UNL     1     -18.877  -4.837  -6.529  1.00  0.00     0.198 C 
BRANCH  23  24
HETATM   24  O   UNL     1     -17.852  -4.108  -7.192  1.00  0.00    -0.398 OA
HETATM   25  H   UNL     1     -18.022  -4.140  -8.153  1.00  0.00     0.209 HD
ENDBRANCH  23  24
ENDBRANCH   2  23
BRANCH   6  26
HETATM   26  O   UNL     1     -23.270  -4.159  -6.434  1.00  0.00    -0.390 OA
HETATM   27  H   UNL     1     -23.616  -4.277  -7.347  1.00  0.00     0.210 HD
ENDBRANCH   6  26
BRANCH   5  28
HETATM   28  O   UNL     1     -22.946  -6.543  -4.797  1.00  0.00    -0.388 OA
HETATM   29  H   UNL     1     -23.126  -5.658  -4.431  1.00  0.00     0.210 HD
ENDBRANCH   5  28
BRANCH   4  30
HETATM   30  O   UNL     1     -20.230  -7.405  -4.888  1.00  0.00    -0.348 OA
BRANCH  30  31
HETATM   31  C   UNL     1     -20.292  -8.779  -4.408  1.00  0.00     0.187 C 
HETATM   32  C   UNL     1     -20.562  -8.893  -2.890  1.00  0.00     0.180 C 
HETATM   33  O   UNL     1     -19.394  -8.744  -2.069  1.00  0.00    -0.349 OA
HETATM   34  C   UNL     1     -18.287  -9.561  -2.381  1.00  0.00     0.288 C 
HETATM   35  C   UNL     1     -17.831  -9.405  -3.839  1.00  0.00     0.204 C 
HETATM   36  C   UNL     1     -19.017  -9.569  -4.802  1.00  0.00     0.183 C 
BRANCH  32  37
HETATM   37  C   UNL     1     -21.348 -10.172  -2.547  1.00  0.00     0.198 C 
BRANCH  37  38
HETATM   38  O   UNL     1     -21.415 -10.333  -1.133  1.00  0.00    -0.398 OA
HETATM   39  H   UNL     1     -21.195  -9.458  -0.757  1.00  0.00     0.209 HD
ENDBRANCH  37  38
ENDBRANCH  32  37
BRANCH  34  40
HETATM   40  O   UNL     1     -18.533 -10.919  -2.032  1.00  0.00    -0.369 OA
HETATM   41  H   UNL     1     -18.700 -11.423  -2.849  1.00  0.00     0.212 HD
ENDBRANCH  34  40
BRANCH  35  42
HETATM   42  O   UNL     1     -16.840 -10.412  -4.140  1.00  0.00    -0.388 OA
HETATM   43  H   UNL     1     -16.960 -11.164  -3.534  1.00  0.00     0.210 HD
ENDBRANCH  35  42
BRANCH  36  44
HETATM   44  O   UNL     1     -18.619  -9.265  -6.145  1.00  0.00    -0.390 OA
HETATM   45  H   UNL     1     -18.969  -8.375  -6.343  1.00  0.00     0.210 HD
ENDBRANCH  36  44
ENDBRANCH  30  31
ENDBRANCH   4  30
TORSDOF 18
ENDMDL
MODEL 8
REMARK VINA RESULT:      -5.3      5.880     10.439
REMARK  18 active torsions:
REMARK  status: ('A' for Active; 'I' for Inactive)
REMARK    1  A    between atoms: C_1  and  C_2 
REMARK    2  A    between atoms: C_1  and  O_34 
REMARK    3  A    between atoms: C_3  and  O_33 
REMARK    4  A    between atoms: C_4  and  O_32 
REMARK    5  A    between atoms: C_5  and  O_31 
REMARK    6  A    between atoms: C_6  and  O_8 
REMARK    7  A    between atoms: O_8  and  C_9 
REMARK    8  A    between atoms: C_10  and  C_29 
REMARK    9  A    between atoms: C_12  and  O_17 
REMARK   10  A    between atoms: C_13  and  O_16 
REMARK   11  A    between atoms: C_14  and  O_15 
REMARK   12  A    between atoms: O_17  and  C_18 
REMARK   13  A    between atoms: C_19  and  C_27 
REMARK   14  A    between atoms: C_21  and  O_26 
REMARK   15  A    between atoms: C_22  and  O_25 
REMARK   16  A    between atoms: C_23  and  O_24 
REMARK   17  A    between atoms: C_27  and  O_28 
REMARK   18  A    between atoms: C_29  and  O_30 
ROOT
HETATM    1  C   UNL     1     -17.574 -12.861  -3.392  1.00  0.00     0.187 C 
HETATM    2  C   UNL     1     -18.836 -12.241  -4.043  1.00  0.00     0.180 C 
HETATM    3  O   UNL     1     -19.134 -10.945  -3.509  1.00  0.00    -0.348 OA
HETATM    4  C   UNL     1     -19.257 -10.822  -2.089  1.00  0.00     0.292 C 
HETATM    5  C   UNL     1     -18.154 -11.576  -1.288  1.00  0.00     0.204 C 
HETATM    6  C   UNL     1     -17.800 -12.949  -1.877  1.00  0.00     0.183 C 
ENDROOT
BRANCH   1   7
HETATM    7  O   UNL     1     -16.454 -12.025  -3.753  1.00  0.00    -0.348 OA
BRANCH   7   8
HETATM    8  C   UNL     1     -15.185 -12.605  -4.082  1.00  0.00     0.292 C 
HETATM    9  C   UNL     1     -14.660 -12.306  -5.514  1.00  0.00     0.204 C 
HETATM   10  C   UNL     1     -13.265 -12.931  -5.681  1.00  0.00     0.183 C 
HETATM   11  C   UNL     1     -13.306 -14.435  -5.351  1.00  0.00     0.180 C 
HETATM   12  C   UNL     1     -13.891 -14.664  -3.944  1.00  0.00     0.179 C 
HETATM   13  O   UNL     1     -15.170 -14.005  -3.775  1.00  0.00    -0.348 OA
BRANCH   9  14
HETATM   14  O   UNL     1     -15.480 -12.850  -6.572  1.00  0.00    -0.388 OA
HETATM   15  H   UNL     1     -14.959 -13.565  -7.010  1.00  0.00     0.210 HD
ENDBRANCH   9  14
BRANCH  10  16
HETATM   16  O   UNL     1     -12.816 -12.733  -7.029  1.00  0.00    -0.390 OA
HETATM   17  H   UNL     1     -12.841 -11.771  -7.201  1.00  0.00     0.210 HD
ENDBRANCH  10  16
BRANCH  11  18
HETATM   18  O   UNL     1     -14.148 -15.152  -6.274  1.00  0.00    -0.390 OA
HETATM   19  H   UNL     1     -14.987 -14.662  -6.360  1.00  0.00     0.210 HD
ENDBRANCH  11  18
BRANCH  12  20
HETATM   20  C   UNL     1     -12.913 -14.327  -2.809  1.00  0.00     0.198 C 
BRANCH  20  21
HETATM   21  O   UNL     1     -13.558 -14.320  -1.542  1.00  0.00    -0.398 OA
HETATM   22  H   UNL     1     -12.985 -13.834  -0.918  1.00  0.00     0.209 HD
ENDBRANCH  20  21
ENDBRANCH  12  20
ENDBRANCH   7   8
ENDBRANCH   1   7
BRANCH   2  23
HETATM   23  C   UNL     1     -20.050 -13.192  -4.081  1.00  0.00     0.198 C 
BRANCH  23  24
HETATM   24  O   UNL     1     -21.277 -12.533  -4.366  1.00  0.00    -0.398 OA
HETATM   25  H   UNL     1     -22.011 -13.138  -4.145  1.00  0.00     0.209 HD
ENDBRANCH  23  24
ENDBRANCH   2  23
BRANCH   6  26
HETATM   26  O   UNL     1     -16.665 -13.534  -1.218  1.00  0.00    -0.390 OA
HETATM   27  H   UNL     1     -16.778 -13.370  -0.254  1.00  0.00     0.210 HD
ENDBRANCH   6  26
BRANCH   5  28
HETATM   28  O   UNL     1     -18.449 -11.657   0.108  1.00  0.00    -0.388 OA
HETATM   29  H   UNL     1     -18.678 -12.582   0.308  1.00  0.00     0.210 HD
ENDBRANCH   5  28
BRANCH   4  30
HETATM   30  O   UNL     1     -20.619 -11.009  -1.626  1.00  0.00    -0.348 OA
BRANCH  30  31
HETATM   31  C   UNL     1     -21.509  -9.959  -2.103  1.00  0.00     0.187 C 
HETATM   32  C   UNL     1     -20.810  -8.594  -2.293  1.00  0.00     0.180 C 
HETATM   33  O   UNL     1     -20.677  -7.824  -1.089  1.00  0.00    -0.349 OA
HETATM   34  C   UNL     1     -21.850  -7.615  -0.334  1.00  0.00     0.288 C 
HETATM   35  C   UNL     1     -22.546  -8.929   0.050  1.00  0.00     0.204 C 
HETATM   36  C   UNL     1     -22.752  -9.819  -1.185  1.00  0.00     0.183 C 
BRANCH  32  37
HETATM   37  C   UNL     1     -21.455  -7.778  -3.430  1.00  0.00     0.198 C 
BRANCH  37  38
HETATM   38  O   UNL     1     -21.071  -6.412  -3.321  1.00  0.00    -0.398 OA
HETATM   39  H   UNL     1     -20.116  -6.421  -3.113  1.00  0.00     0.209 HD
ENDBRANCH  37  38
ENDBRANCH  32  37
BRANCH  34  40
HETATM   40  O   UNL     1     -22.730  -6.706  -0.986  1.00  0.00    -0.369 OA
HETATM   41  H   UNL     1     -22.208  -5.956  -1.321  1.00  0.00     0.212 HD
ENDBRANCH  34  40
BRANCH  35  42
HETATM   42  O   UNL     1     -23.834  -8.634   0.635  1.00  0.00    -0.388 OA
HETATM   43  H   UNL     1     -24.512  -9.177   0.196  1.00  0.00     0.210 HD
ENDBRANCH  35  42
BRANCH  36  44
HETATM   44  O   UNL     1     -23.254 -11.105  -0.799  1.00  0.00    -0.390 OA
HETATM   45  H   UNL     1     -22.927 -11.270   0.106  1.00  0.00     0.210 HD
ENDBRANCH  36  44
ENDBRANCH  30  31
ENDBRANCH   4  30
TORSDOF 18
ENDMDL
MODEL 9
REMARK VINA RESULT:      -5.2      5.161     10.966
REMARK  18 active torsions:
REMARK  status: ('A' for Active; 'I' for Inactive)
REMARK    1  A    between atoms: C_1  and  C_2 
REMARK    2  A    between atoms: C_1  and  O_34 
REMARK    3  A    between atoms: C_3  and  O_33 
REMARK    4  A    between atoms: C_4  and  O_32 
REMARK    5  A    between atoms: C_5  and  O_31 
REMARK    6  A    between atoms: C_6  and  O_8 
REMARK    7  A    between atoms: O_8  and  C_9 
REMARK    8  A    between atoms: C_10  and  C_29 
REMARK    9  A    between atoms: C_12  and  O_17 
REMARK   10  A    between atoms: C_13  and  O_16 
REMARK   11  A    between atoms: C_14  and  O_15 
REMARK   12  A    between atoms: O_17  and  C_18 
REMARK   13  A    between atoms: C_19  and  C_27 
REMARK   14  A    between atoms: C_21  and  O_26 
REMARK   15  A    between atoms: C_22  and  O_25 
REMARK   16  A    between atoms: C_23  and  O_24 
REMARK   17  A    between atoms: C_27  and  O_28 
REMARK   18  A    between atoms: C_29  and  O_30 
ROOT
HETATM    1  C   UNL     1     -17.248 -12.706  -2.035  1.00  0.00     0.187 C 
HETATM    2  C   UNL     1     -18.760 -12.869  -1.739  1.00  0.00     0.180 C 
HETATM    3  O   UNL     1     -19.568 -12.075  -2.616  1.00  0.00    -0.348 OA
HETATM    4  C   UNL     1     -19.278 -10.677  -2.707  1.00  0.00     0.292 C 
HETATM    5  C   UNL     1     -17.758 -10.348  -2.808  1.00  0.00     0.204 C 
HETATM    6  C   UNL     1     -16.881 -11.222  -1.900  1.00  0.00     0.183 C 
ENDROOT
BRANCH   1   7
HETATM    7  O   UNL     1     -17.015 -13.231  -3.359  1.00  0.00    -0.348 OA
BRANCH   7   8
HETATM    8  C   UNL     1     -15.789 -13.905  -3.673  1.00  0.00     0.292 C 
HETATM    9  C   UNL     1     -15.370 -15.032  -2.690  1.00  0.00     0.204 C 
HETATM   10  C   UNL     1     -14.084 -15.700  -3.205  1.00  0.00     0.183 C 
HETATM   11  C   UNL     1     -12.982 -14.647  -3.426  1.00  0.00     0.180 C 
HETATM   12  C   UNL     1     -13.482 -13.529  -4.361  1.00  0.00     0.179 C 
HETATM   13  O   UNL     1     -14.735 -12.961  -3.905  1.00  0.00    -0.348 OA
BRANCH   9  14
HETATM   14  O   UNL     1     -15.083 -14.574  -1.350  1.00  0.00    -0.388 OA
HETATM   15  H   UNL     1     -14.133 -14.306  -1.328  1.00  0.00     0.210 HD
ENDBRANCH   9  14
BRANCH  10  16
HETATM   16  O   UNL     1     -13.646 -16.681  -2.254  1.00  0.00    -0.390 OA
HETATM   17  H   UNL     1     -12.840 -17.097  -2.620  1.00  0.00     0.210 HD
ENDBRANCH  10  16
BRANCH  11  18
HETATM   18  O   UNL     1     -12.603 -14.015  -2.188  1.00  0.00    -0.390 OA
HETATM   19  H   UNL     1     -12.147 -13.180  -2.403  1.00  0.00     0.210 HD
ENDBRANCH  11  18
BRANCH  12  20
HETATM   20  C   UNL     1     -13.540 -13.944  -5.839  1.00  0.00     0.198 C 
BRANCH  20  21
HETATM   21  O   UNL     1     -12.960 -12.961  -6.686  1.00  0.00    -0.398 OA
HETATM   22  H   UNL     1     -12.681 -12.211  -6.126  1.00  0.00     0.209 HD
ENDBRANCH  20  21
ENDBRANCH  12  20
ENDBRANCH   7   8
ENDBRANCH   1   7
BRANCH   2  23
HETATM   23  C   UNL     1     -19.123 -12.711  -0.248  1.00  0.00     0.198 C 
BRANCH  23  24
HETATM   24  O   UNL     1     -20.475 -12.328  -0.031  1.00  0.00    -0.398 OA
HETATM   25  H   UNL     1     -20.969 -12.449  -0.865  1.00  0.00     0.209 HD
ENDBRANCH  23  24
ENDBRANCH   2  23
BRANCH   6  26
HETATM   26  O   UNL     1     -15.482 -11.010  -2.149  1.00  0.00    -0.390 OA
HETATM   27  H   UNL     1     -15.350 -10.039  -2.233  1.00  0.00     0.210 HD
ENDBRANCH   6  26
BRANCH   5  28
HETATM   28  O   UNL     1     -17.485  -8.956  -2.632  1.00  0.00    -0.388 OA
HETATM   29  H   UNL     1     -16.884  -8.681  -3.347  1.00  0.00     0.210 HD
ENDBRANCH   5  28
BRANCH   4  30
HETATM   30  O   UNL     1     -20.037  -9.884  -1.759  1.00  0.00    -0.348 OA
BRANCH  30  31
HETATM   31  C   UNL     1     -21.189  -9.242  -2.380  1.00  0.00     0.187 C 
HETATM   32  C   UNL     1     -20.841  -7.935  -3.129  1.00  0.00     0.180 C 
HETATM   33  O   UNL     1     -20.750  -6.777  -2.286  1.00  0.00    -0.349 OA
HETATM   34  C   UNL     1     -21.847  -6.518  -1.438  1.00  0.00     0.288 C 
HETATM   35  C   UNL     1     -22.182  -7.708  -0.528  1.00  0.00     0.204 C 
HETATM   36  C   UNL     1     -22.320  -9.000  -1.347  1.00  0.00     0.183 C 
BRANCH  32  37
HETATM   37  C   UNL     1     -21.775  -7.701  -4.330  1.00  0.00     0.198 C 
BRANCH  37  38
HETATM   38  O   UNL     1     -21.586  -6.385  -4.840  1.00  0.00    -0.398 OA
HETATM   39  H   UNL     1     -20.641  -6.328  -5.082  1.00  0.00     0.209 HD
ENDBRANCH  37  38
ENDBRANCH  32  37
BRANCH  34  40
HETATM   40  O   UNL     1     -22.977  -6.067  -2.178  1.00  0.00    -0.369 OA
HETATM   41  H   UNL     1     -23.213  -5.175  -1.869  1.00  0.00     0.212 HD
ENDBRANCH  34  40
BRANCH  35  42
HETATM   42  O   UNL     1     -23.430  -7.451   0.154  1.00  0.00    -0.388 OA
HETATM   43  H   UNL     1     -24.129  -7.994  -0.250  1.00  0.00     0.210 HD
ENDBRANCH  35  42
BRANCH  36  44
HETATM   44  O   UNL     1     -22.473 -10.131  -0.480  1.00  0.00    -0.390 OA
HETATM   45  H   UNL     1     -22.178  -9.844   0.406  1.00  0.00     0.210 HD
ENDBRANCH  36  44
ENDBRANCH  30  31
ENDBRANCH   4  30
TORSDOF 18
ENDMDL
