MODEL 1
REMARK VINA RESULT:      -8.7      0.000      0.000
REMARK  20 active torsions:
REMARK  status: ('A' for Active; 'I' for Inactive)
REMARK    1  A    between atoms: C_2  and  C_3 
REMARK    2  A    between atoms: C_3  and  C_4 
REMARK    3  A    between atoms: C_4  and  C_5 
REMARK    4  A    between atoms: C_5  and  C_6 
REMARK    5  A    between atoms: C_5  and  C_8 
REMARK    6  A    between atoms: C_8  and  O_9 
REMARK    7  A    between atoms: O_9  and  C_10 
REMARK    8  A    between atoms: C_12  and  O_49 
REMARK    9  A    between atoms: C_13  and  C_16 
REMARK   10  A    between atoms: C_19  and  C_33 
REMARK   11  A    between atoms: C_22  and  C_25 
REMARK   12  A    between atoms: C_28  and  O_31 
REMARK   13  A    between atoms: C_34  and  O_48 
REMARK   14  A    between atoms: C_36  and  O_39 
REMARK   15  A    between atoms: O_39  and  C_40 
REMARK   16  A    between atoms: C_40  and  C_41 
REMARK   17  A    between atoms: C_41  and  C_42 
REMARK   18  A    between atoms: C_41  and  C_44 
REMARK   19  A    between atoms: C_44  and  C_45 
REMARK   20  A    between atoms: C_45  and  C_46 
ROOT
HETATM    1  C   UNL     1     -20.538  -9.409  -3.338  1.00  0.00     0.121 A 
HETATM    2  N   UNL     1     -20.937  -8.352  -4.039  1.00  0.00    -0.327 N 
ATOM      3  HN  UNL     1     -21.830  -7.891  -3.863  1.00  0.00     0.169 HD
HETATM    4  C   UNL     1     -20.100  -7.933  -4.983  1.00  0.00     0.121 A 
HETATM    5  N   UNL     1     -18.911  -8.471  -5.223  1.00  0.00    -0.327 N 
ATOM      6  HN  UNL     1     -18.291  -8.122  -5.953  1.00  0.00     0.169 HD
HETATM    7  C   UNL     1     -18.583  -9.500  -4.443  1.00  0.00     0.118 A 
HETATM    8  N   UNL     1     -19.358 -10.007  -3.484  1.00  0.00    -0.327 N 
ATOM      9  HN  UNL     1     -19.068 -10.795  -2.905  1.00  0.00     0.169 HD
ENDROOT
BRANCH   1  10
HETATM   10  C   UNL     1     -21.453  -9.941  -2.315  1.00  0.00     0.041 A 
HETATM   11  C   UNL     1     -21.675  -9.307  -1.075  1.00  0.00     0.082 A 
HETATM   12  C   UNL     1     -22.540  -9.845  -0.106  1.00  0.00     0.074 A 
HETATM   13  C   UNL     1     -23.196 -11.048  -0.361  1.00  0.00     0.071 A 
HETATM   14  C   UNL     1     -22.995 -11.695  -1.580  1.00  0.00     0.038 A 
HETATM   15  C   UNL     1     -22.147 -11.143  -2.545  1.00  0.00     0.021 A 
BRANCH  11  16
HETATM   16  O   UNL     1     -21.032  -8.124  -0.802  1.00  0.00    -0.360 OA
HETATM   17  H   UNL     1     -21.185  -7.492  -1.526  1.00  0.00     0.217 HD
ENDBRANCH  11  16
BRANCH  13  18
HETATM   18  O   UNL     1     -23.987 -11.728   0.524  1.00  0.00    -0.351 OA
BRANCH  18  19
HETATM   19  C   UNL     1     -23.900 -13.152   0.517  1.00  0.00     0.180 C 
BRANCH  19  20
HETATM   20  C   UNL     1     -22.798 -13.553   1.514  1.00  0.00     0.009 C 
BRANCH  20  21
HETATM   21  C   UNL     1     -23.418 -14.283   2.726  1.00  0.00     0.007 C 
BRANCH  21  22
HETATM   22  C   UNL     1     -22.364 -14.821   3.696  1.00  0.00     0.000 C 
BRANCH  22  23
HETATM   23  C   UNL     1     -22.884 -15.960   4.570  1.00  0.00    -0.005 C 
HETATM   24  C   UNL     1     -23.167 -15.454   5.978  1.00  0.00     0.005 C 
ENDBRANCH  22  23
ENDBRANCH  21  22
ENDBRANCH  20  21
BRANCH  20  25
HETATM   25  C   UNL     1     -21.638 -14.317   0.830  1.00  0.00     0.002 C 
HETATM   26  C   UNL     1     -20.480 -13.449   0.357  1.00  0.00     0.005 C 
ENDBRANCH  20  25
ENDBRANCH  19  20
ENDBRANCH  18  19
ENDBRANCH  13  18
ENDBRANCH   1  10
BRANCH   4  27
HETATM   27  C   UNL     1     -20.544  -6.806  -5.816  1.00  0.00     0.041 A 
HETATM   28  C   UNL     1     -21.786  -6.167  -5.640  1.00  0.00     0.082 A 
HETATM   29  C   UNL     1     -22.170  -5.079  -6.422  1.00  0.00     0.074 A 
HETATM   30  C   UNL     1     -21.325  -4.610  -7.421  1.00  0.00     0.071 A 
HETATM   31  C   UNL     1     -20.110  -5.243  -7.653  1.00  0.00     0.038 A 
HETATM   32  C   UNL     1     -19.720  -6.321  -6.854  1.00  0.00     0.021 A 
BRANCH  28  33
HETATM   33  O   UNL     1     -22.717  -6.561  -4.710  1.00  0.00    -0.360 OA
HETATM   34  H   UNL     1     -22.235  -6.858  -3.905  1.00  0.00     0.217 HD
ENDBRANCH  28  33
BRANCH  30  35
HETATM   35  O   UNL     1     -21.618  -3.571  -8.258  1.00  0.00    -0.351 OA
BRANCH  35  36
HETATM   36  C   UNL     1     -22.899  -3.671  -8.885  1.00  0.00     0.180 C 
BRANCH  36  37
HETATM   37  C   UNL     1     -22.738  -3.441 -10.396  1.00  0.00     0.009 C 
BRANCH  37  38
HETATM   38  C   UNL     1     -21.766  -4.468 -11.029  1.00  0.00     0.002 C 
HETATM   39  C   UNL     1     -20.366  -3.942 -11.323  1.00  0.00     0.005 C 
ENDBRANCH  37  38
BRANCH  37  40
HETATM   40  C   UNL     1     -24.105  -3.424 -11.109  1.00  0.00     0.007 C 
BRANCH  40  41
HETATM   41  C   UNL     1     -23.992  -3.681 -12.615  1.00  0.00     0.000 C 
BRANCH  41  42
HETATM   42  C   UNL     1     -23.615  -2.421 -13.390  1.00  0.00    -0.005 C 
HETATM   43  C   UNL     1     -22.868  -2.787 -14.664  1.00  0.00     0.005 C 
ENDBRANCH  41  42
ENDBRANCH  40  41
ENDBRANCH  37  40
ENDBRANCH  36  37
ENDBRANCH  35  36
ENDBRANCH  30  35
ENDBRANCH   4  27
BRANCH   7  44
HETATM   44  C   UNL     1     -17.274 -10.128  -4.672  1.00  0.00     0.008 A 
HETATM   45  C   UNL     1     -16.515 -10.631  -3.600  1.00  0.00     0.018 A 
HETATM   46  C   UNL     1     -15.267 -11.230  -3.804  1.00  0.00     0.037 A 
HETATM   47  C   UNL     1     -14.747 -11.339  -5.091  1.00  0.00     0.068 A 
HETATM   48  C   UNL     1     -15.484 -10.842  -6.166  1.00  0.00     0.037 A 
HETATM   49  C   UNL     1     -16.728 -10.246  -5.962  1.00  0.00     0.018 A 
BRANCH  47  50
HETATM   50  O   UNL     1     -13.550 -11.904  -5.425  1.00  0.00    -0.356 OA
HETATM   51  C   UNL     1     -13.544 -12.729  -6.584  1.00  0.00     0.210 C 
ENDBRANCH  47  50
ENDBRANCH   7  44
TORSDOF 20
ENDMDL
MODEL 2
REMARK VINA RESULT:      -8.5      1.359      2.224
REMARK  20 active torsions:
REMARK  status: ('A' for Active; 'I' for Inactive)
REMARK    1  A    between atoms: C_2  and  C_3 
REMARK    2  A    between atoms: C_3  and  C_4 
REMARK    3  A    between atoms: C_4  and  C_5 
REMARK    4  A    between atoms: C_5  and  C_6 
REMARK    5  A    between atoms: C_5  and  C_8 
REMARK    6  A    between atoms: C_8  and  O_9 
REMARK    7  A    between atoms: O_9  and  C_10 
REMARK    8  A    between atoms: C_12  and  O_49 
REMARK    9  A    between atoms: C_13  and  C_16 
REMARK   10  A    between atoms: C_19  and  C_33 
REMARK   11  A    between atoms: C_22  and  C_25 
REMARK   12  A    between atoms: C_28  and  O_31 
REMARK   13  A    between atoms: C_34  and  O_48 
REMARK   14  A    between atoms: C_36  and  O_39 
REMARK   15  A    between atoms: O_39  and  C_40 
REMARK   16  A    between atoms: C_40  and  C_41 
REMARK   17  A    between atoms: C_41  and  C_42 
REMARK   18  A    between atoms: C_41  and  C_44 
REMARK   19  A    between atoms: C_44  and  C_45 
REMARK   20  A    between atoms: C_45  and  C_46 
ROOT
HETATM    1  C   UNL     1     -20.667  -9.231  -3.574  1.00  0.00     0.121 A 
HETATM    2  N   UNL     1     -21.025  -8.181  -4.307  1.00  0.00    -0.327 N 
ATOM      3  HN  UNL     1     -21.916  -7.703  -4.170  1.00  0.00     0.169 HD
HETATM    4  C   UNL     1     -20.150  -7.793  -5.230  1.00  0.00     0.121 A 
HETATM    5  N   UNL     1     -18.962  -8.354  -5.419  1.00  0.00    -0.327 N 
ATOM      6  HN  UNL     1     -18.313  -8.028  -6.135  1.00  0.00     0.169 HD
HETATM    7  C   UNL     1     -18.678  -9.372  -4.611  1.00  0.00     0.118 A 
HETATM    8  N   UNL     1     -19.493  -9.849  -3.668  1.00  0.00    -0.327 N 
ATOM      9  HN  UNL     1     -19.235 -10.630  -3.066  1.00  0.00     0.169 HD
ENDROOT
BRANCH   1  10
HETATM   10  C   UNL     1     -21.624  -9.729  -2.573  1.00  0.00     0.041 A 
HETATM   11  C   UNL     1     -21.744  -9.178  -1.279  1.00  0.00     0.082 A 
HETATM   12  C   UNL     1     -22.653  -9.684  -0.335  1.00  0.00     0.074 A 
HETATM   13  C   UNL     1     -23.459 -10.771  -0.668  1.00  0.00     0.071 A 
HETATM   14  C   UNL     1     -23.361 -11.333  -1.941  1.00  0.00     0.038 A 
HETATM   15  C   UNL     1     -22.468 -10.812  -2.880  1.00  0.00     0.021 A 
BRANCH  11  16
HETATM   16  O   UNL     1     -20.953  -8.111  -0.930  1.00  0.00    -0.360 OA
HETATM   17  H   UNL     1     -20.970  -7.991   0.035  1.00  0.00     0.217 HD
ENDBRANCH  11  16
BRANCH  13  18
HETATM   18  O   UNL     1     -24.314 -11.419   0.180  1.00  0.00    -0.351 OA
BRANCH  18  19
HETATM   19  C   UNL     1     -23.746 -12.373   1.077  1.00  0.00     0.180 C 
BRANCH  19  20
HETATM   20  C   UNL     1     -23.011 -13.426   0.227  1.00  0.00     0.009 C 
BRANCH  20  21
HETATM   21  C   UNL     1     -21.615 -13.710   0.824  1.00  0.00     0.007 C 
BRANCH  21  22
HETATM   22  C   UNL     1     -20.480 -13.409  -0.157  1.00  0.00     0.000 C 
BRANCH  22  23
HETATM   23  C   UNL     1     -19.838 -12.044   0.074  1.00  0.00    -0.005 C 
HETATM   24  C   UNL     1     -18.707 -11.821  -0.921  1.00  0.00     0.005 C 
ENDBRANCH  22  23
ENDBRANCH  21  22
ENDBRANCH  20  21
BRANCH  20  25
HETATM   25  C   UNL     1     -23.874 -14.688  -0.017  1.00  0.00     0.002 C 
HETATM   26  C   UNL     1     -24.462 -14.811  -1.416  1.00  0.00     0.005 C 
ENDBRANCH  20  25
ENDBRANCH  19  20
ENDBRANCH  18  19
ENDBRANCH  13  18
ENDBRANCH   1  10
BRANCH   4  27
HETATM   27  C   UNL     1     -20.548  -6.675  -6.098  1.00  0.00     0.041 A 
HETATM   28  C   UNL     1     -21.759  -5.976  -5.938  1.00  0.00     0.082 A 
HETATM   29  C   UNL     1     -22.098  -4.897  -6.754  1.00  0.00     0.074 A 
HETATM   30  C   UNL     1     -21.238  -4.500  -7.773  1.00  0.00     0.071 A 
HETATM   31  C   UNL     1     -20.054  -5.195  -7.988  1.00  0.00     0.038 A 
HETATM   32  C   UNL     1     -19.709  -6.262  -7.155  1.00  0.00     0.021 A 
BRANCH  28  33
HETATM   33  O   UNL     1     -22.701  -6.295  -4.992  1.00  0.00    -0.360 OA
HETATM   34  H   UNL     1     -22.248  -6.358  -4.121  1.00  0.00     0.217 HD
ENDBRANCH  28  33
BRANCH  30  35
HETATM   35  O   UNL     1     -21.490  -3.477  -8.642  1.00  0.00    -0.351 OA
BRANCH  35  36
HETATM   36  C   UNL     1     -21.059  -3.732  -9.981  1.00  0.00     0.180 C 
BRANCH  36  37
HETATM   37  C   UNL     1     -22.292  -3.828 -10.895  1.00  0.00     0.009 C 
BRANCH  37  38
HETATM   38  C   UNL     1     -23.591  -3.453 -10.141  1.00  0.00     0.002 C 
HETATM   39  C   UNL     1     -24.532  -4.616  -9.850  1.00  0.00     0.005 C 
ENDBRANCH  37  38
BRANCH  37  40
HETATM   40  C   UNL     1     -22.105  -2.990 -12.176  1.00  0.00     0.007 C 
BRANCH  40  41
HETATM   41  C   UNL     1     -23.316  -3.061 -13.113  1.00  0.00     0.000 C 
BRANCH  41  42
HETATM   42  C   UNL     1     -22.966  -2.656 -14.542  1.00  0.00    -0.005 C 
HETATM   43  C   UNL     1     -23.687  -1.370 -14.920  1.00  0.00     0.005 C 
ENDBRANCH  41  42
ENDBRANCH  40  41
ENDBRANCH  37  40
ENDBRANCH  36  37
ENDBRANCH  35  36
ENDBRANCH  30  35
ENDBRANCH   4  27
BRANCH   7  44
HETATM   44  C   UNL     1     -17.372 -10.024  -4.783  1.00  0.00     0.008 A 
HETATM   45  C   UNL     1     -16.498 -10.196  -3.694  1.00  0.00     0.018 A 
HETATM   46  C   UNL     1     -15.252 -10.814  -3.845  1.00  0.00     0.037 A 
HETATM   47  C   UNL     1     -14.850 -11.277  -5.095  1.00  0.00     0.068 A 
HETATM   48  C   UNL     1     -15.701 -11.112  -6.187  1.00  0.00     0.037 A 
HETATM   49  C   UNL     1     -16.943 -10.497  -6.036  1.00  0.00     0.018 A 
BRANCH  47  50
HETATM   50  O   UNL     1     -13.667 -11.900  -5.374  1.00  0.00    -0.356 OA
HETATM   51  C   UNL     1     -13.624 -12.658  -6.577  1.00  0.00     0.210 C 
ENDBRANCH  47  50
ENDBRANCH   7  44
TORSDOF 20
ENDMDL
MODEL 3
REMARK VINA RESULT:      -8.3      1.733     11.820
REMARK  20 active torsions:
REMARK  status: ('A' for Active; 'I' for Inactive)
REMARK    1  A    between atoms: C_2  and  C_3 
REMARK    2  A    between atoms: C_3  and  C_4 
REMARK    3  A    between atoms: C_4  and  C_5 
REMARK    4  A    between atoms: C_5  and  C_6 
REMARK    5  A    between atoms: C_5  and  C_8 
REMARK    6  A    between atoms: C_8  and  O_9 
REMARK    7  A    between atoms: O_9  and  C_10 
REMARK    8  A    between atoms: C_12  and  O_49 
REMARK    9  A    between atoms: C_13  and  C_16 
REMARK   10  A    between atoms: C_19  and  C_33 
REMARK   11  A    between atoms: C_22  and  C_25 
REMARK   12  A    between atoms: C_28  and  O_31 
REMARK   13  A    between atoms: C_34  and  O_48 
REMARK   14  A    between atoms: C_36  and  O_39 
REMARK   15  A    between atoms: O_39  and  C_40 
REMARK   16  A    between atoms: C_40  and  C_41 
REMARK   17  A    between atoms: C_41  and  C_42 
REMARK   18  A    between atoms: C_41  and  C_44 
REMARK   19  A    between atoms: C_44  and  C_45 
REMARK   20  A    between atoms: C_45  and  C_46 
ROOT
HETATM    1  C   UNL     1     -20.502  -7.872  -5.420  1.00  0.00     0.121 A 
HETATM    2  N   UNL     1     -19.380  -8.470  -5.810  1.00  0.00    -0.327 N 
ATOM      3  HN  UNL     1     -18.798  -8.095  -6.559  1.00  0.00     0.169 HD
HETATM    4  C   UNL     1     -19.065  -9.588  -5.164  1.00  0.00     0.121 A 
HETATM    5  N   UNL     1     -19.766 -10.095  -4.156  1.00  0.00    -0.327 N 
ATOM      6  HN  UNL     1     -19.492 -10.954  -3.680  1.00  0.00     0.169 HD
HETATM    7  C   UNL     1     -20.850  -9.403  -3.813  1.00  0.00     0.118 A 
HETATM    8  N   UNL     1     -21.262  -8.284  -4.409  1.00  0.00    -0.327 N 
ATOM      9  HN  UNL     1     -22.098  -7.781  -4.112  1.00  0.00     0.169 HD
ENDROOT
BRANCH   1  10
HETATM   10  C   UNL     1     -20.919  -6.658  -6.140  1.00  0.00     0.041 A 
HETATM   11  C   UNL     1     -22.109  -5.959  -5.848  1.00  0.00     0.082 A 
HETATM   12  C   UNL     1     -22.496  -4.812  -6.563  1.00  0.00     0.074 A 
HETATM   13  C   UNL     1     -21.694  -4.347  -7.605  1.00  0.00     0.071 A 
HETATM   14  C   UNL     1     -20.511  -5.020  -7.913  1.00  0.00     0.038 A 
HETATM   15  C   UNL     1     -20.126  -6.148  -7.184  1.00  0.00     0.021 A 
BRANCH  11  16
HETATM   16  O   UNL     1     -22.916  -6.406  -4.830  1.00  0.00    -0.360 OA
HETATM   17  H   UNL     1     -23.643  -5.775  -4.686  1.00  0.00     0.217 HD
ENDBRANCH  11  16
BRANCH  13  18
HETATM   18  O   UNL     1     -21.995  -3.307  -8.439  1.00  0.00    -0.351 OA
BRANCH  18  19
HETATM   19  C   UNL     1     -23.250  -3.354  -9.116  1.00  0.00     0.180 C 
BRANCH  19  20
HETATM   20  C   UNL     1     -22.966  -3.688 -10.592  1.00  0.00     0.009 C 
BRANCH  20  21
HETATM   21  C   UNL     1     -24.158  -3.254 -11.474  1.00  0.00     0.007 C 
BRANCH  21  22
HETATM   22  C   UNL     1     -23.939  -3.560 -12.957  1.00  0.00     0.000 C 
BRANCH  22  23
HETATM   23  C   UNL     1     -23.679  -2.309 -13.792  1.00  0.00    -0.005 C 
HETATM   24  C   UNL     1     -22.795  -2.649 -14.985  1.00  0.00     0.005 C 
ENDBRANCH  22  23
ENDBRANCH  21  22
ENDBRANCH  20  21
BRANCH  20  25
HETATM   25  C   UNL     1     -21.592  -3.152 -11.061  1.00  0.00     0.002 C 
HETATM   26  C   UNL     1     -20.549  -4.217 -11.366  1.00  0.00     0.005 C 
ENDBRANCH  20  25
ENDBRANCH  19  20
ENDBRANCH  18  19
ENDBRANCH  13  18
ENDBRANCH   1  10
BRANCH   4  27
HETATM   27  C   UNL     1     -17.865 -10.306  -5.618  1.00  0.00     0.041 A 
HETATM   28  C   UNL     1     -17.922 -11.528  -6.314  1.00  0.00     0.082 A 
HETATM   29  C   UNL     1     -16.770 -12.172  -6.764  1.00  0.00     0.074 A 
HETATM   30  C   UNL     1     -15.521 -11.618  -6.510  1.00  0.00     0.071 A 
HETATM   31  C   UNL     1     -15.423 -10.434  -5.787  1.00  0.00     0.038 A 
HETATM   32  C   UNL     1     -16.581  -9.782  -5.356  1.00  0.00     0.021 A 
BRANCH  28  33
HETATM   33  O   UNL     1     -19.093 -12.188  -6.595  1.00  0.00    -0.360 OA
HETATM   34  H   UNL     1     -18.900 -13.152  -6.623  1.00  0.00     0.217 HD
ENDBRANCH  28  33
BRANCH  30  35
HETATM   35  O   UNL     1     -14.334 -12.182  -6.882  1.00  0.00    -0.351 OA
BRANCH  35  36
HETATM   36  C   UNL     1     -13.464 -12.485  -5.789  1.00  0.00     0.180 C 
BRANCH  36  37
HETATM   37  C   UNL     1     -14.085 -13.615  -4.952  1.00  0.00     0.009 C 
BRANCH  37  38
HETATM   38  C   UNL     1     -14.171 -14.937  -5.753  1.00  0.00     0.002 C 
HETATM   39  C   UNL     1     -12.850 -15.437  -6.326  1.00  0.00     0.005 C 
ENDBRANCH  37  38
BRANCH  37  40
HETATM   40  C   UNL     1     -13.339 -13.797  -3.615  1.00  0.00     0.007 C 
BRANCH  40  41
HETATM   41  C   UNL     1     -14.206 -13.452  -2.399  1.00  0.00     0.000 C 
BRANCH  41  42
HETATM   42  C   UNL     1     -15.172 -12.305  -2.685  1.00  0.00    -0.005 C 
HETATM   43  C   UNL     1     -16.431 -12.453  -1.844  1.00  0.00     0.005 C 
ENDBRANCH  41  42
ENDBRANCH  40  41
ENDBRANCH  37  40
ENDBRANCH  36  37
ENDBRANCH  35  36
ENDBRANCH  30  35
ENDBRANCH   4  27
BRANCH   7  44
HETATM   44  C   UNL     1     -21.657  -9.926  -2.701  1.00  0.00     0.008 A 
HETATM   45  C   UNL     1     -21.694  -9.265  -1.459  1.00  0.00     0.018 A 
HETATM   46  C   UNL     1     -22.458  -9.752  -0.393  1.00  0.00     0.037 A 
HETATM   47  C   UNL     1     -23.204 -10.918  -0.545  1.00  0.00     0.068 A 
HETATM   48  C   UNL     1     -23.176 -11.589  -1.767  1.00  0.00     0.037 A 
HETATM   49  C   UNL     1     -22.416 -11.102  -2.829  1.00  0.00     0.018 A 
BRANCH  47  50
HETATM   50  O   UNL     1     -23.992 -11.493   0.412  1.00  0.00    -0.356 OA
HETATM   51  C   UNL     1     -23.559 -12.754   0.908  1.00  0.00     0.210 C 
ENDBRANCH  47  50
ENDBRANCH   7  44
TORSDOF 20
ENDMDL
MODEL 4
REMARK VINA RESULT:      -8.3      1.677      6.984
REMARK  20 active torsions:
REMARK  status: ('A' for Active; 'I' for Inactive)
REMARK    1  A    between atoms: C_2  and  C_3 
REMARK    2  A    between atoms: C_3  and  C_4 
REMARK    3  A    between atoms: C_4  and  C_5 
REMARK    4  A    between atoms: C_5  and  C_6 
REMARK    5  A    between atoms: C_5  and  C_8 
REMARK    6  A    between atoms: C_8  and  O_9 
REMARK    7  A    between atoms: O_9  and  C_10 
REMARK    8  A    between atoms: C_12  and  O_49 
REMARK    9  A    between atoms: C_13  and  C_16 
REMARK   10  A    between atoms: C_19  and  C_33 
REMARK   11  A    between atoms: C_22  and  C_25 
REMARK   12  A    between atoms: C_28  and  O_31 
REMARK   13  A    between atoms: C_34  and  O_48 
REMARK   14  A    between atoms: C_36  and  O_39 
REMARK   15  A    between atoms: O_39  and  C_40 
REMARK   16  A    between atoms: C_40  and  C_41 
REMARK   17  A    between atoms: C_41  and  C_42 
REMARK   18  A    between atoms: C_41  and  C_44 
REMARK   19  A    between atoms: C_44  and  C_45 
REMARK   20  A    between atoms: C_45  and  C_46 
ROOT
HETATM    1  C   UNL     1     -18.937  -9.464  -4.745  1.00  0.00     0.121 A 
HETATM    2  N   UNL     1     -19.335  -8.455  -5.514  1.00  0.00    -0.327 N 
ATOM      3  HN  UNL     1     -18.768  -8.108  -6.288  1.00  0.00     0.169 HD
HETATM    4  C   UNL     1     -20.517  -7.927  -5.213  1.00  0.00     0.121 A 
HETATM    5  N   UNL     1     -21.310  -8.368  -4.244  1.00  0.00    -0.327 N 
ATOM      6  HN  UNL     1     -22.214  -7.941  -4.042  1.00  0.00     0.169 HD
HETATM    7  C   UNL     1     -20.843  -9.407  -3.555  1.00  0.00     0.118 A 
HETATM    8  N   UNL     1     -19.665  -9.995  -3.766  1.00  0.00    -0.327 N 
ATOM      9  HN  UNL     1     -19.345 -10.792  -3.216  1.00  0.00     0.169 HD
ENDROOT
BRANCH   1  10
HETATM   10  C   UNL     1     -17.612 -10.049  -5.008  1.00  0.00     0.041 A 
HETATM   11  C   UNL     1     -17.332 -10.844  -6.139  1.00  0.00     0.082 A 
HETATM   12  C   UNL     1     -16.063 -11.407  -6.359  1.00  0.00     0.074 A 
HETATM   13  C   UNL     1     -15.044 -11.192  -5.432  1.00  0.00     0.071 A 
HETATM   14  C   UNL     1     -15.295 -10.408  -4.306  1.00  0.00     0.038 A 
HETATM   15  C   UNL     1     -16.555  -9.837  -4.105  1.00  0.00     0.021 A 
BRANCH  11  16
HETATM   16  O   UNL     1     -18.325 -11.074  -7.060  1.00  0.00    -0.360 OA
HETATM   17  H   UNL     1     -18.855 -10.267  -7.180  1.00  0.00     0.217 HD
ENDBRANCH  11  16
BRANCH  13  18
HETATM   18  O   UNL     1     -13.798 -11.753  -5.473  1.00  0.00    -0.351 OA
BRANCH  18  19
HETATM   19  C   UNL     1     -13.379 -12.497  -4.329  1.00  0.00     0.180 C 
BRANCH  19  20
HETATM   20  C   UNL     1     -14.278 -13.743  -4.233  1.00  0.00     0.009 C 
BRANCH  20  21
HETATM   21  C   UNL     1     -13.480 -15.005  -4.631  1.00  0.00     0.007 C 
BRANCH  21  22
HETATM   22  C   UNL     1     -14.140 -15.790  -5.766  1.00  0.00     0.000 C 
BRANCH  22  23
HETATM   23  C   UNL     1     -15.354 -15.077  -6.358  1.00  0.00    -0.005 C 
HETATM   24  C   UNL     1     -16.484 -16.070  -6.588  1.00  0.00     0.005 C 
ENDBRANCH  22  23
ENDBRANCH  21  22
ENDBRANCH  20  21
BRANCH  20  25
HETATM   25  C   UNL     1     -14.998 -13.843  -2.867  1.00  0.00     0.002 C 
HETATM   26  C   UNL     1     -16.518 -13.898  -2.937  1.00  0.00     0.005 C 
ENDBRANCH  20  25
ENDBRANCH  19  20
ENDBRANCH  18  19
ENDBRANCH  13  18
ENDBRANCH   1  10
BRANCH   4  27
HETATM   27  C   UNL     1     -20.952  -6.768  -6.006  1.00  0.00     0.041 A 
HETATM   28  C   UNL     1     -22.130  -6.049  -5.727  1.00  0.00     0.082 A 
HETATM   29  C   UNL     1     -22.503  -4.932  -6.474  1.00  0.00     0.074 A 
HETATM   30  C   UNL     1     -21.713  -4.515  -7.541  1.00  0.00     0.071 A 
HETATM   31  C   UNL     1     -20.567  -5.226  -7.872  1.00  0.00     0.038 A 
HETATM   32  C   UNL     1     -20.186  -6.333  -7.108  1.00  0.00     0.021 A 
BRANCH  28  33
HETATM   33  O   UNL     1     -23.005  -6.385  -4.724  1.00  0.00    -0.360 OA
HETATM   34  H   UNL     1     -23.915  -6.361  -5.095  1.00  0.00     0.217 HD
ENDBRANCH  28  33
BRANCH  30  35
HETATM   35  O   UNL     1     -22.005  -3.453  -8.350  1.00  0.00    -0.351 OA
BRANCH  35  36
HETATM   36  C   UNL     1     -23.178  -3.632  -9.145  1.00  0.00     0.180 C 
BRANCH  36  37
HETATM   37  C   UNL     1     -22.847  -3.303 -10.610  1.00  0.00     0.009 C 
BRANCH  37  38
HETATM   38  C   UNL     1     -21.931  -4.380 -11.242  1.00  0.00     0.002 C 
HETATM   39  C   UNL     1     -20.445  -4.043 -11.256  1.00  0.00     0.005 C 
ENDBRANCH  37  38
BRANCH  37  40
HETATM   40  C   UNL     1     -24.129  -3.077 -11.436  1.00  0.00     0.007 C 
BRANCH  40  41
HETATM   41  C   UNL     1     -23.984  -3.532 -12.893  1.00  0.00     0.000 C 
BRANCH  41  42
HETATM   42  C   UNL     1     -23.755  -2.361 -13.844  1.00  0.00    -0.005 C 
HETATM   43  C   UNL     1     -22.677  -2.708 -14.861  1.00  0.00     0.005 C 
ENDBRANCH  41  42
ENDBRANCH  40  41
ENDBRANCH  37  40
ENDBRANCH  36  37
ENDBRANCH  35  36
ENDBRANCH  30  35
ENDBRANCH   4  27
BRANCH   7  44
HETATM   44  C   UNL     1     -21.688  -9.931  -2.472  1.00  0.00     0.008 A 
HETATM   45  C   UNL     1     -21.605  -9.406  -1.169  1.00  0.00     0.018 A 
HETATM   46  C   UNL     1     -22.403  -9.896  -0.130  1.00  0.00     0.037 A 
HETATM   47  C   UNL     1     -23.306 -10.928  -0.372  1.00  0.00     0.068 A 
HETATM   48  C   UNL     1     -23.400 -11.463  -1.656  1.00  0.00     0.037 A 
HETATM   49  C   UNL     1     -22.605 -10.974  -2.691  1.00  0.00     0.018 A 
BRANCH  47  50
HETATM   50  O   UNL     1     -24.143 -11.491   0.550  1.00  0.00    -0.356 OA
HETATM   51  C   UNL     1     -23.733 -12.739   1.094  1.00  0.00     0.210 C 
ENDBRANCH  47  50
ENDBRANCH   7  44
TORSDOF 20
ENDMDL
MODEL 5
REMARK VINA RESULT:      -8.0      1.321      2.279
REMARK  20 active torsions:
REMARK  status: ('A' for Active; 'I' for Inactive)
REMARK    1  A    between atoms: C_2  and  C_3 
REMARK    2  A    between atoms: C_3  and  C_4 
REMARK    3  A    between atoms: C_4  and  C_5 
REMARK    4  A    between atoms: C_5  and  C_6 
REMARK    5  A    between atoms: C_5  and  C_8 
REMARK    6  A    between atoms: C_8  and  O_9 
REMARK    7  A    between atoms: O_9  and  C_10 
REMARK    8  A    between atoms: C_12  and  O_49 
REMARK    9  A    between atoms: C_13  and  C_16 
REMARK   10  A    between atoms: C_19  and  C_33 
REMARK   11  A    between atoms: C_22  and  C_25 
REMARK   12  A    between atoms: C_28  and  O_31 
REMARK   13  A    between atoms: C_34  and  O_48 
REMARK   14  A    between atoms: C_36  and  O_39 
REMARK   15  A    between atoms: O_39  and  C_40 
REMARK   16  A    between atoms: C_40  and  C_41 
REMARK   17  A    between atoms: C_41  and  C_42 
REMARK   18  A    between atoms: C_41  and  C_44 
REMARK   19  A    between atoms: C_44  and  C_45 
REMARK   20  A    between atoms: C_45  and  C_46 
ROOT
HETATM    1  C   UNL     1     -20.409  -9.595  -3.694  1.00  0.00     0.121 A 
HETATM    2  N   UNL     1     -20.769  -8.446  -4.258  1.00  0.00    -0.327 N 
ATOM      3  HN  UNL     1     -21.575  -7.913  -3.934  1.00  0.00     0.169 HD
HETATM    4  C   UNL     1     -20.011  -8.036  -5.271  1.00  0.00     0.121 A 
HETATM    5  N   UNL     1     -18.929  -8.671  -5.702  1.00  0.00    -0.327 N 
ATOM      6  HN  UNL     1     -18.368  -8.325  -6.481  1.00  0.00     0.169 HD
HETATM    7  C   UNL     1     -18.627  -9.791  -5.049  1.00  0.00     0.118 A 
HETATM    8  N   UNL     1     -19.331 -10.296  -4.035  1.00  0.00    -0.327 N 
ATOM      9  HN  UNL     1     -19.063 -11.156  -3.558  1.00  0.00     0.169 HD
ENDROOT
BRANCH   1  10
HETATM   10  C   UNL     1     -21.247 -10.116  -2.601  1.00  0.00     0.041 A 
HETATM   11  C   UNL     1     -21.444  -9.427  -1.386  1.00  0.00     0.082 A 
HETATM   12  C   UNL     1     -22.233  -9.954  -0.349  1.00  0.00     0.074 A 
HETATM   13  C   UNL     1     -22.836 -11.201  -0.508  1.00  0.00     0.071 A 
HETATM   14  C   UNL     1     -22.658 -11.902  -1.701  1.00  0.00     0.038 A 
HETATM   15  C   UNL     1     -21.886 -11.361  -2.734  1.00  0.00     0.021 A 
BRANCH  11  16
HETATM   16  O   UNL     1     -20.852  -8.200  -1.207  1.00  0.00    -0.360 OA
HETATM   17  H   UNL     1     -19.976  -8.314  -0.800  1.00  0.00     0.217 HD
ENDBRANCH  11  16
BRANCH  13  18
HETATM   18  O   UNL     1     -23.548 -11.870   0.448  1.00  0.00    -0.351 OA
BRANCH  18  19
HETATM   19  C   UNL     1     -22.867 -12.895   1.172  1.00  0.00     0.180 C 
BRANCH  19  20
HETATM   20  C   UNL     1     -23.871 -14.037   1.410  1.00  0.00     0.009 C 
BRANCH  20  21
HETATM   21  C   UNL     1     -23.689 -15.136   0.340  1.00  0.00     0.007 C 
BRANCH  21  22
HETATM   22  C   UNL     1     -24.667 -14.994  -0.828  1.00  0.00     0.000 C 
BRANCH  22  23
HETATM   23  C   UNL     1     -25.468 -16.266  -1.094  1.00  0.00    -0.005 C 
HETATM   24  C   UNL     1     -26.456 -16.510   0.039  1.00  0.00     0.005 C 
ENDBRANCH  22  23
ENDBRANCH  21  22
ENDBRANCH  20  21
BRANCH  20  25
HETATM   25  C   UNL     1     -23.838 -14.551   2.870  1.00  0.00     0.002 C 
HETATM   26  C   UNL     1     -24.260 -16.002   3.057  1.00  0.00     0.005 C 
ENDBRANCH  20  25
ENDBRANCH  19  20
ENDBRANCH  18  19
ENDBRANCH  13  18
ENDBRANCH   1  10
BRANCH   4  27
HETATM   27  C   UNL     1     -20.424  -6.802  -5.955  1.00  0.00     0.041 A 
HETATM   28  C   UNL     1     -21.696  -6.222  -5.786  1.00  0.00     0.082 A 
HETATM   29  C   UNL     1     -22.051  -5.032  -6.421  1.00  0.00     0.074 A 
HETATM   30  C   UNL     1     -21.145  -4.398  -7.263  1.00  0.00     0.071 A 
HETATM   31  C   UNL     1     -19.896  -4.964  -7.488  1.00  0.00     0.038 A 
HETATM   32  C   UNL     1     -19.537  -6.145  -6.834  1.00  0.00     0.021 A 
BRANCH  28  33
HETATM   33  O   UNL     1     -22.684  -6.773  -5.008  1.00  0.00    -0.360 OA
HETATM   34  H   UNL     1     -22.253  -7.286  -4.288  1.00  0.00     0.217 HD
ENDBRANCH  28  33
BRANCH  30  35
HETATM   35  O   UNL     1     -21.404  -3.247  -7.952  1.00  0.00    -0.351 OA
BRANCH  35  36
HETATM   36  C   UNL     1     -22.503  -3.347  -8.860  1.00  0.00     0.180 C 
BRANCH  36  37
HETATM   37  C   UNL     1     -22.234  -4.492  -9.850  1.00  0.00     0.009 C 
BRANCH  37  38
HETATM   38  C   UNL     1     -23.547  -5.185 -10.291  1.00  0.00     0.002 C 
HETATM   39  C   UNL     1     -24.829  -4.519  -9.803  1.00  0.00     0.005 C 
ENDBRANCH  37  38
BRANCH  37  40
HETATM   40  C   UNL     1     -21.404  -4.007 -11.056  1.00  0.00     0.007 C 
BRANCH  40  41
HETATM   41  C   UNL     1     -21.954  -2.716 -11.674  1.00  0.00     0.000 C 
BRANCH  41  42
HETATM   42  C   UNL     1     -22.609  -2.959 -13.031  1.00  0.00    -0.005 C 
HETATM   43  C   UNL     1     -24.110  -2.721 -12.943  1.00  0.00     0.005 C 
ENDBRANCH  41  42
ENDBRANCH  40  41
ENDBRANCH  37  40
ENDBRANCH  36  37
ENDBRANCH  35  36
ENDBRANCH  30  35
ENDBRANCH   4  27
BRANCH   7  44
HETATM   44  C   UNL     1     -17.435 -10.528  -5.492  1.00  0.00     0.008 A 
HETATM   45  C   UNL     1     -17.552 -11.701  -6.260  1.00  0.00     0.018 A 
HETATM   46  C   UNL     1     -16.425 -12.413  -6.687  1.00  0.00     0.037 A 
HETATM   47  C   UNL     1     -15.150 -11.965  -6.353  1.00  0.00     0.068 A 
HETATM   48  C   UNL     1     -15.014 -10.805  -5.589  1.00  0.00     0.037 A 
HETATM   49  C   UNL     1     -16.138 -10.097  -5.165  1.00  0.00     0.018 A 
BRANCH  47  50
HETATM   50  O   UNL     1     -13.974 -12.561  -6.710  1.00  0.00    -0.356 OA
HETATM   51  C   UNL     1     -13.597 -13.709  -5.960  1.00  0.00     0.210 C 
ENDBRANCH  47  50
ENDBRANCH   7  44
TORSDOF 20
ENDMDL
MODEL 6
REMARK VINA RESULT:      -8.0      0.994     11.688
REMARK  20 active torsions:
REMARK  status: ('A' for Active; 'I' for Inactive)
REMARK    1  A    between atoms: C_2  and  C_3 
REMARK    2  A    between atoms: C_3  and  C_4 
REMARK    3  A    between atoms: C_4  and  C_5 
REMARK    4  A    between atoms: C_5  and  C_6 
REMARK    5  A    between atoms: C_5  and  C_8 
REMARK    6  A    between atoms: C_8  and  O_9 
REMARK    7  A    between atoms: O_9  and  C_10 
REMARK    8  A    between atoms: C_12  and  O_49 
REMARK    9  A    between atoms: C_13  and  C_16 
REMARK   10  A    between atoms: C_19  and  C_33 
REMARK   11  A    between atoms: C_22  and  C_25 
REMARK   12  A    between atoms: C_28  and  O_31 
REMARK   13  A    between atoms: C_34  and  O_48 
REMARK   14  A    between atoms: C_36  and  O_39 
REMARK   15  A    between atoms: O_39  and  C_40 
REMARK   16  A    between atoms: C_40  and  C_41 
REMARK   17  A    between atoms: C_41  and  C_42 
REMARK   18  A    between atoms: C_41  and  C_44 
REMARK   19  A    between atoms: C_44  and  C_45 
REMARK   20  A    between atoms: C_45  and  C_46 
ROOT
HETATM    1  C   UNL     1     -19.951  -8.561  -4.676  1.00  0.00     0.121 A 
HETATM    2  N   UNL     1     -20.754  -9.107  -3.767  1.00  0.00    -0.327 N 
ATOM      3  HN  UNL     1     -21.687  -8.740  -3.577  1.00  0.00     0.169 HD
HETATM    4  C   UNL     1     -20.266 -10.162  -3.122  1.00  0.00     0.121 A 
HETATM    5  N   UNL     1     -19.078 -10.703  -3.360  1.00  0.00    -0.327 N 
ATOM      6  HN  UNL     1     -18.735 -11.515  -2.848  1.00  0.00     0.169 HD
HETATM    7  C   UNL     1     -18.363 -10.110  -4.315  1.00  0.00     0.118 A 
HETATM    8  N   UNL     1     -18.754  -9.038  -5.006  1.00  0.00    -0.327 N 
ATOM      9  HN  UNL     1     -18.178  -8.616  -5.733  1.00  0.00     0.169 HD
ENDROOT
BRANCH   1  10
HETATM   10  C   UNL     1     -20.429  -7.361  -5.382  1.00  0.00     0.041 A 
HETATM   11  C   UNL     1     -21.605  -6.671  -5.019  1.00  0.00     0.082 A 
HETATM   12  C   UNL     1     -22.050  -5.538  -5.721  1.00  0.00     0.074 A 
HETATM   13  C   UNL     1     -21.324  -5.077  -6.819  1.00  0.00     0.071 A 
HETATM   14  C   UNL     1     -20.157  -5.741  -7.196  1.00  0.00     0.038 A 
HETATM   15  C   UNL     1     -19.711  -6.856  -6.481  1.00  0.00     0.021 A 
BRANCH  11  16
HETATM   16  O   UNL     1     -22.338  -7.114  -3.946  1.00  0.00    -0.360 OA
HETATM   17  H   UNL     1     -23.205  -7.434  -4.250  1.00  0.00     0.217 HD
ENDBRANCH  11  16
BRANCH  13  18
HETATM   18  O   UNL     1     -21.691  -4.050  -7.643  1.00  0.00    -0.351 OA
BRANCH  18  19
HETATM   19  C   UNL     1     -22.895  -4.211  -8.391  1.00  0.00     0.180 C 
BRANCH  19  20
HETATM   20  C   UNL     1     -22.516  -4.220  -9.883  1.00  0.00     0.009 C 
BRANCH  20  21
HETATM   21  C   UNL     1     -23.625  -3.542 -10.717  1.00  0.00     0.007 C 
BRANCH  21  22
HETATM   22  C   UNL     1     -23.490  -3.817 -12.217  1.00  0.00     0.000 C 
BRANCH  22  23
HETATM   23  C   UNL     1     -22.785  -2.691 -12.969  1.00  0.00    -0.005 C 
HETATM   24  C   UNL     1     -23.127  -2.757 -14.451  1.00  0.00     0.005 C 
ENDBRANCH  22  23
ENDBRANCH  21  22
ENDBRANCH  20  21
BRANCH  20  25
HETATM   25  C   UNL     1     -21.094  -3.659 -10.129  1.00  0.00     0.002 C 
HETATM   26  C   UNL     1     -20.127  -4.619 -10.809  1.00  0.00     0.005 C 
ENDBRANCH  20  25
ENDBRANCH  19  20
ENDBRANCH  18  19
ENDBRANCH  13  18
ENDBRANCH   1  10
BRANCH   4  27
HETATM   27  C   UNL     1     -21.106 -10.746  -2.066  1.00  0.00     0.041 A 
HETATM   28  C   UNL     1     -21.966  -9.976  -1.259  1.00  0.00     0.082 A 
HETATM   29  C   UNL     1     -22.778 -10.558  -0.287  1.00  0.00     0.074 A 
HETATM   30  C   UNL     1     -22.737 -11.933  -0.080  1.00  0.00     0.071 A 
HETATM   31  C   UNL     1     -21.869 -12.719  -0.828  1.00  0.00     0.038 A 
HETATM   32  C   UNL     1     -21.071 -12.134  -1.815  1.00  0.00     0.021 A 
BRANCH  28  33
HETATM   33  O   UNL     1     -22.068  -8.609  -1.347  1.00  0.00    -0.360 OA
HETATM   34  H   UNL     1     -22.161  -8.372  -2.297  1.00  0.00     0.217 HD
ENDBRANCH  28  33
BRANCH  30  35
HETATM   35  O   UNL     1     -23.469 -12.595   0.864  1.00  0.00    -0.351 OA
BRANCH  35  36
HETATM   36  C   UNL     1     -23.078 -13.956   1.055  1.00  0.00     0.180 C 
BRANCH  36  37
HETATM   37  C   UNL     1     -22.866 -14.212   2.556  1.00  0.00     0.009 C 
BRANCH  37  38
HETATM   38  C   UNL     1     -24.165 -14.706   3.239  1.00  0.00     0.002 C 
HETATM   39  C   UNL     1     -23.963 -15.680   4.393  1.00  0.00     0.005 C 
ENDBRANCH  37  38
BRANCH  37  40
HETATM   40  C   UNL     1     -21.684 -15.171   2.799  1.00  0.00     0.007 C 
BRANCH  40  41
HETATM   41  C   UNL     1     -21.044 -15.667   1.498  1.00  0.00     0.000 C 
BRANCH  41  42
HETATM   42  C   UNL     1     -19.520 -15.602   1.542  1.00  0.00    -0.005 C 
HETATM   43  C   UNL     1     -19.006 -14.558   0.562  1.00  0.00     0.005 C 
ENDBRANCH  41  42
ENDBRANCH  40  41
ENDBRANCH  37  40
ENDBRANCH  36  37
ENDBRANCH  35  36
ENDBRANCH  30  35
ENDBRANCH   4  27
BRANCH   7  44
HETATM   44  C   UNL     1     -17.041 -10.675  -4.615  1.00  0.00     0.008 A 
HETATM   45  C   UNL     1     -16.175 -11.084  -3.582  1.00  0.00     0.018 A 
HETATM   46  C   UNL     1     -14.913 -11.623  -3.855  1.00  0.00     0.037 A 
HETATM   47  C   UNL     1     -14.485 -11.766  -5.172  1.00  0.00     0.068 A 
HETATM   48  C   UNL     1     -15.328 -11.363  -6.208  1.00  0.00     0.037 A 
HETATM   49  C   UNL     1     -16.585 -10.827  -5.936  1.00  0.00     0.018 A 
BRANCH  47  50
HETATM   50  O   UNL     1     -13.285 -12.280  -5.571  1.00  0.00    -0.356 OA
HETATM   51  C   UNL     1     -13.322 -13.563  -6.185  1.00  0.00     0.210 C 
ENDBRANCH  47  50
ENDBRANCH   7  44
TORSDOF 20
ENDMDL
MODEL 7
REMARK VINA RESULT:      -8.0      1.788      6.923
REMARK  20 active torsions:
REMARK  status: ('A' for Active; 'I' for Inactive)
REMARK    1  A    between atoms: C_2  and  C_3 
REMARK    2  A    between atoms: C_3  and  C_4 
REMARK    3  A    between atoms: C_4  and  C_5 
REMARK    4  A    between atoms: C_5  and  C_6 
REMARK    5  A    between atoms: C_5  and  C_8 
REMARK    6  A    between atoms: C_8  and  O_9 
REMARK    7  A    between atoms: O_9  and  C_10 
REMARK    8  A    between atoms: C_12  and  O_49 
REMARK    9  A    between atoms: C_13  and  C_16 
REMARK   10  A    between atoms: C_19  and  C_33 
REMARK   11  A    between atoms: C_22  and  C_25 
REMARK   12  A    between atoms: C_28  and  O_31 
REMARK   13  A    between atoms: C_34  and  O_48 
REMARK   14  A    between atoms: C_36  and  O_39 
REMARK   15  A    between atoms: O_39  and  C_40 
REMARK   16  A    between atoms: C_40  and  C_41 
REMARK   17  A    between atoms: C_41  and  C_42 
REMARK   18  A    between atoms: C_41  and  C_44 
REMARK   19  A    between atoms: C_44  and  C_45 
REMARK   20  A    between atoms: C_45  and  C_46 
ROOT
HETATM    1  C   UNL     1     -19.171  -9.790  -5.026  1.00  0.00     0.121 A 
HETATM    2  N   UNL     1     -19.590  -8.730  -5.711  1.00  0.00    -0.327 N 
ATOM      3  HN  UNL     1     -19.088  -8.381  -6.528  1.00  0.00     0.169 HD
HETATM    4  C   UNL     1     -20.702  -8.154  -5.266  1.00  0.00     0.121 A 
HETATM    5  N   UNL     1     -21.412  -8.593  -4.234  1.00  0.00    -0.327 N 
ATOM      6  HN  UNL     1     -22.264  -8.129  -3.921  1.00  0.00     0.169 HD
HETATM    7  C   UNL     1     -20.935  -9.683  -3.637  1.00  0.00     0.118 A 
HETATM    8  N   UNL     1     -19.820 -10.323  -3.994  1.00  0.00    -0.327 N 
ATOM      9  HN  UNL     1     -19.491 -11.158  -3.512  1.00  0.00     0.169 HD
ENDROOT
BRANCH   1  10
HETATM   10  C   UNL     1     -17.916 -10.432  -5.451  1.00  0.00     0.041 A 
HETATM   11  C   UNL     1     -17.878 -11.600  -6.241  1.00  0.00     0.082 A 
HETATM   12  C   UNL     1     -16.666 -12.205  -6.618  1.00  0.00     0.074 A 
HETATM   13  C   UNL     1     -15.458 -11.651  -6.195  1.00  0.00     0.071 A 
HETATM   14  C   UNL     1     -15.470 -10.496  -5.414  1.00  0.00     0.038 A 
HETATM   15  C   UNL     1     -16.679  -9.890  -5.059  1.00  0.00     0.021 A 
BRANCH  11  16
HETATM   16  O   UNL     1     -19.057 -12.164  -6.661  1.00  0.00    -0.360 OA
HETATM   17  H   UNL     1     -19.051 -12.254  -7.630  1.00  0.00     0.217 HD
ENDBRANCH  11  16
BRANCH  13  18
HETATM   18  O   UNL     1     -14.218 -12.186  -6.408  1.00  0.00    -0.351 OA
BRANCH  18  19
HETATM   19  C   UNL     1     -13.348 -12.286  -5.282  1.00  0.00     0.180 C 
BRANCH  19  20
HETATM   20  C   UNL     1     -13.433 -13.731  -4.758  1.00  0.00     0.009 C 
BRANCH  20  21
HETATM   21  C   UNL     1     -14.657 -13.888  -3.830  1.00  0.00     0.007 C 
BRANCH  21  22
HETATM   22  C   UNL     1     -14.646 -12.900  -2.661  1.00  0.00     0.000 C 
BRANCH  22  23
HETATM   23  C   UNL     1     -16.041 -12.413  -2.277  1.00  0.00    -0.005 C 
HETATM   24  C   UNL     1     -15.967 -10.999  -1.719  1.00  0.00     0.005 C 
ENDBRANCH  22  23
ENDBRANCH  21  22
ENDBRANCH  20  21
BRANCH  20  25
HETATM   25  C   UNL     1     -13.355 -14.774  -5.899  1.00  0.00     0.002 C 
HETATM   26  C   UNL     1     -14.653 -15.512  -6.194  1.00  0.00     0.005 C 
ENDBRANCH  20  25
ENDBRANCH  19  20
ENDBRANCH  18  19
ENDBRANCH  13  18
ENDBRANCH   1  10
BRANCH   4  27
HETATM   27  C   UNL     1     -21.151  -6.941  -5.965  1.00  0.00     0.041 A 
HETATM   28  C   UNL     1     -20.349  -6.253  -6.895  1.00  0.00     0.082 A 
HETATM   29  C   UNL     1     -20.811  -5.124  -7.570  1.00  0.00     0.074 A 
HETATM   30  C   UNL     1     -22.090  -4.638  -7.317  1.00  0.00     0.071 A 
HETATM   31  C   UNL     1     -22.893  -5.267  -6.374  1.00  0.00     0.038 A 
HETATM   32  C   UNL     1     -22.434  -6.409  -5.714  1.00  0.00     0.021 A 
BRANCH  28  33
HETATM   33  O   UNL     1     -19.061  -6.616  -7.203  1.00  0.00    -0.360 OA
HETATM   34  H   UNL     1     -18.774  -7.297  -6.553  1.00  0.00     0.217 HD
ENDBRANCH  28  33
BRANCH  30  35
HETATM   35  O   UNL     1     -22.625  -3.527  -7.903  1.00  0.00    -0.351 OA
BRANCH  35  36
HETATM   36  C   UNL     1     -23.559  -3.810  -8.946  1.00  0.00     0.180 C 
BRANCH  36  37
HETATM   37  C   UNL     1     -22.947  -3.398 -10.294  1.00  0.00     0.009 C 
BRANCH  37  38
HETATM   38  C   UNL     1     -21.893  -4.424 -10.779  1.00  0.00     0.002 C 
HETATM   39  C   UNL     1     -20.496  -3.861 -11.011  1.00  0.00     0.005 C 
ENDBRANCH  37  38
BRANCH  37  40
HETATM   40  C   UNL     1     -24.039  -3.148 -11.353  1.00  0.00     0.007 C 
BRANCH  40  41
HETATM   41  C   UNL     1     -23.511  -2.411 -12.588  1.00  0.00     0.000 C 
BRANCH  41  42
HETATM   42  C   UNL     1     -23.567  -3.276 -13.845  1.00  0.00    -0.005 C 
HETATM   43  C   UNL     1     -22.692  -2.678 -14.938  1.00  0.00     0.005 C 
ENDBRANCH  41  42
ENDBRANCH  40  41
ENDBRANCH  37  40
ENDBRANCH  36  37
ENDBRANCH  35  36
ENDBRANCH  30  35
ENDBRANCH   4  27
BRANCH   7  44
HETATM   44  C   UNL     1     -21.690 -10.207  -2.490  1.00  0.00     0.008 A 
HETATM   45  C   UNL     1     -21.731  -9.509  -1.269  1.00  0.00     0.018 A 
HETATM   46  C   UNL     1     -22.445  -9.998  -0.170  1.00  0.00     0.037 A 
HETATM   47  C   UNL     1     -23.138 -11.202  -0.267  1.00  0.00     0.068 A 
HETATM   48  C   UNL     1     -23.105 -11.910  -1.468  1.00  0.00     0.037 A 
HETATM   49  C   UNL     1     -22.394 -11.422  -2.563  1.00  0.00     0.018 A 
BRANCH  47  50
HETATM   50  O   UNL     1     -23.874 -11.783   0.726  1.00  0.00    -0.356 OA
HETATM   51  C   UNL     1     -23.439 -13.064   1.165  1.00  0.00     0.210 C 
ENDBRANCH  47  50
ENDBRANCH   7  44
TORSDOF 20
ENDMDL
MODEL 8
REMARK VINA RESULT:      -7.9      1.367      1.981
REMARK  20 active torsions:
REMARK  status: ('A' for Active; 'I' for Inactive)
REMARK    1  A    between atoms: C_2  and  C_3 
REMARK    2  A    between atoms: C_3  and  C_4 
REMARK    3  A    between atoms: C_4  and  C_5 
REMARK    4  A    between atoms: C_5  and  C_6 
REMARK    5  A    between atoms: C_5  and  C_8 
REMARK    6  A    between atoms: C_8  and  O_9 
REMARK    7  A    between atoms: O_9  and  C_10 
REMARK    8  A    between atoms: C_12  and  O_49 
REMARK    9  A    between atoms: C_13  and  C_16 
REMARK   10  A    between atoms: C_19  and  C_33 
REMARK   11  A    between atoms: C_22  and  C_25 
REMARK   12  A    between atoms: C_28  and  O_31 
REMARK   13  A    between atoms: C_34  and  O_48 
REMARK   14  A    between atoms: C_36  and  O_39 
REMARK   15  A    between atoms: O_39  and  C_40 
REMARK   16  A    between atoms: C_40  and  C_41 
REMARK   17  A    between atoms: C_41  and  C_42 
REMARK   18  A    between atoms: C_41  and  C_44 
REMARK   19  A    between atoms: C_44  and  C_45 
REMARK   20  A    between atoms: C_45  and  C_46 
ROOT
HETATM    1  C   UNL     1     -20.198 -10.389  -2.454  1.00  0.00     0.121 A 
HETATM    2  N   UNL     1     -20.637  -9.293  -3.064  1.00  0.00    -0.327 N 
ATOM      3  HN  UNL     1     -21.525  -8.855  -2.820  1.00  0.00     0.169 HD
HETATM    4  C   UNL     1     -19.846  -8.801  -4.013  1.00  0.00     0.121 A 
HETATM    5  N   UNL     1     -18.664  -9.309  -4.341  1.00  0.00    -0.327 N 
ATOM      6  HN  UNL     1     -18.081  -8.904  -5.073  1.00  0.00     0.169 HD
HETATM    7  C   UNL     1     -18.293 -10.383  -3.647  1.00  0.00     0.118 A 
HETATM    8  N   UNL     1     -19.021 -10.962  -2.691  1.00  0.00    -0.327 N 
ATOM      9  HN  UNL     1     -18.698 -11.783  -2.180  1.00  0.00     0.169 HD
ENDROOT
BRANCH   1  10
HETATM   10  C   UNL     1     -21.062 -10.999  -1.430  1.00  0.00     0.041 A 
HETATM   11  C   UNL     1     -20.567 -11.529  -0.220  1.00  0.00     0.082 A 
HETATM   12  C   UNL     1     -21.411 -12.124   0.734  1.00  0.00     0.074 A 
HETATM   13  C   UNL     1     -22.780 -12.211   0.484  1.00  0.00     0.071 A 
HETATM   14  C   UNL     1     -23.295 -11.693  -0.705  1.00  0.00     0.038 A 
HETATM   15  C   UNL     1     -22.450 -11.086  -1.639  1.00  0.00     0.021 A 
BRANCH  11  16
HETATM   16  O   UNL     1     -19.221 -11.460   0.041  1.00  0.00    -0.360 OA
HETATM   17  H   UNL     1     -18.759 -11.062  -0.717  1.00  0.00     0.217 HD
ENDBRANCH  11  16
BRANCH  13  18
HETATM   18  O   UNL     1     -23.697 -12.844   1.276  1.00  0.00    -0.351 OA
BRANCH  18  19
HETATM   19  C   UNL     1     -23.558 -14.255   1.438  1.00  0.00     0.180 C 
BRANCH  19  20
HETATM   20  C   UNL     1     -23.504 -14.544   2.948  1.00  0.00     0.009 C 
BRANCH  20  21
HETATM   21  C   UNL     1     -24.570 -15.596   3.326  1.00  0.00     0.007 C 
BRANCH  21  22
HETATM   22  C   UNL     1     -25.255 -15.294   4.660  1.00  0.00     0.000 C 
BRANCH  22  23
HETATM   23  C   UNL     1     -24.732 -16.154   5.808  1.00  0.00    -0.005 C 
HETATM   24  C   UNL     1     -23.802 -15.337   6.694  1.00  0.00     0.005 C 
ENDBRANCH  22  23
ENDBRANCH  21  22
ENDBRANCH  20  21
BRANCH  20  25
HETATM   25  C   UNL     1     -22.072 -14.880   3.431  1.00  0.00     0.002 C 
HETATM   26  C   UNL     1     -21.720 -16.361   3.435  1.00  0.00     0.005 C 
ENDBRANCH  20  25
ENDBRANCH  19  20
ENDBRANCH  18  19
ENDBRANCH  13  18
ENDBRANCH   1  10
BRANCH   4  27
HETATM   27  C   UNL     1     -20.337  -7.627  -4.749  1.00  0.00     0.041 A 
HETATM   28  C   UNL     1     -21.186  -6.663  -4.173  1.00  0.00     0.082 A 
HETATM   29  C   UNL     1     -21.611  -5.540  -4.882  1.00  0.00     0.074 A 
HETATM   30  C   UNL     1     -21.211  -5.361  -6.202  1.00  0.00     0.071 A 
HETATM   31  C   UNL     1     -20.409  -6.314  -6.817  1.00  0.00     0.038 A 
HETATM   32  C   UNL     1     -19.969  -7.427  -6.097  1.00  0.00     0.021 A 
BRANCH  28  33
HETATM   33  O   UNL     1     -21.673  -6.749  -2.892  1.00  0.00    -0.360 OA
HETATM   34  H   UNL     1     -21.025  -7.258  -2.354  1.00  0.00     0.217 HD
ENDBRANCH  28  33
BRANCH  30  35
HETATM   35  O   UNL     1     -21.594  -4.312  -6.990  1.00  0.00    -0.351 OA
BRANCH  35  36
HETATM   36  C   UNL     1     -21.025  -4.331  -8.301  1.00  0.00     0.180 C 
BRANCH  36  37
HETATM   37  C   UNL     1     -22.158  -4.327  -9.340  1.00  0.00     0.009 C 
BRANCH  37  38
HETATM   38  C   UNL     1     -23.536  -4.076  -8.679  1.00  0.00     0.002 C 
HETATM   39  C   UNL     1     -24.543  -3.323  -9.541  1.00  0.00     0.005 C 
ENDBRANCH  37  38
BRANCH  37  40
HETATM   40  C   UNL     1     -21.872  -3.326 -10.477  1.00  0.00     0.007 C 
BRANCH  40  41
HETATM   41  C   UNL     1     -21.912  -3.977 -11.864  1.00  0.00     0.000 C 
BRANCH  41  42
HETATM   42  C   UNL     1     -22.640  -3.110 -12.888  1.00  0.00    -0.005 C 
HETATM   43  C   UNL     1     -24.050  -3.635 -13.119  1.00  0.00     0.005 C 
ENDBRANCH  41  42
ENDBRANCH  40  41
ENDBRANCH  37  40
ENDBRANCH  36  37
ENDBRANCH  35  36
ENDBRANCH  30  35
ENDBRANCH   4  27
BRANCH   7  44
HETATM   44  C   UNL     1     -16.990 -10.978  -3.974  1.00  0.00     0.008 A 
HETATM   45  C   UNL     1     -16.409 -11.953  -3.142  1.00  0.00     0.018 A 
HETATM   46  C   UNL     1     -15.169 -12.527  -3.442  1.00  0.00     0.037 A 
HETATM   47  C   UNL     1     -14.478 -12.137  -4.586  1.00  0.00     0.068 A 
HETATM   48  C   UNL     1     -15.036 -11.169  -5.421  1.00  0.00     0.037 A 
HETATM   49  C   UNL     1     -16.272 -10.598  -5.122  1.00  0.00     0.018 A 
BRANCH  47  50
HETATM   50  O   UNL     1     -13.267 -12.621  -4.993  1.00  0.00    -0.356 OA
HETATM   51  C   UNL     1     -13.192 -13.078  -6.338  1.00  0.00     0.210 C 
ENDBRANCH  47  50
ENDBRANCH   7  44
TORSDOF 20
ENDMDL
MODEL 9
REMARK VINA RESULT:      -7.8     17.669     21.909
REMARK  20 active torsions:
REMARK  status: ('A' for Active; 'I' for Inactive)
REMARK    1  A    between atoms: C_2  and  C_3 
REMARK    2  A    between atoms: C_3  and  C_4 
REMARK    3  A    between atoms: C_4  and  C_5 
REMARK    4  A    between atoms: C_5  and  C_6 
REMARK    5  A    between atoms: C_5  and  C_8 
REMARK    6  A    between atoms: C_8  and  O_9 
REMARK    7  A    between atoms: O_9  and  C_10 
REMARK    8  A    between atoms: C_12  and  O_49 
REMARK    9  A    between atoms: C_13  and  C_16 
REMARK   10  A    between atoms: C_19  and  C_33 
REMARK   11  A    between atoms: C_22  and  C_25 
REMARK   12  A    between atoms: C_28  and  O_31 
REMARK   13  A    between atoms: C_34  and  O_48 
REMARK   14  A    between atoms: C_36  and  O_39 
REMARK   15  A    between atoms: O_39  and  C_40 
REMARK   16  A    between atoms: C_40  and  C_41 
REMARK   17  A    between atoms: C_41  and  C_42 
REMARK   18  A    between atoms: C_41  and  C_44 
REMARK   19  A    between atoms: C_44  and  C_45 
REMARK   20  A    between atoms: C_45  and  C_46 
ROOT
HETATM    1  C   UNL     1     -23.458   8.933   1.119  1.00  0.00     0.121 A 
HETATM    2  N   UNL     1     -22.207   8.952   1.570  1.00  0.00    -0.327 N 
ATOM      3  HN  UNL     1     -21.415   8.694   0.981  1.00  0.00     0.169 HD
HETATM    4  C   UNL     1     -22.052   9.327   2.836  1.00  0.00     0.121 A 
HETATM    5  N   UNL     1     -23.044   9.711   3.630  1.00  0.00    -0.327 N 
ATOM      6  HN  UNL     1     -22.889   9.997   4.596  1.00  0.00     0.169 HD
HETATM    7  C   UNL     1     -24.255   9.696   3.077  1.00  0.00     0.118 A 
HETATM    8  N   UNL     1     -24.517   9.319   1.825  1.00  0.00    -0.327 N 
ATOM      9  HN  UNL     1     -25.460   9.326   1.437  1.00  0.00     0.169 HD
ENDROOT
BRANCH   1  10
HETATM   10  C   UNL     1     -23.684   8.475  -0.262  1.00  0.00     0.041 A 
HETATM   11  C   UNL     1     -23.236   9.190  -1.393  1.00  0.00     0.082 A 
HETATM   12  C   UNL     1     -23.482   8.741  -2.702  1.00  0.00     0.074 A 
HETATM   13  C   UNL     1     -24.199   7.563  -2.905  1.00  0.00     0.071 A 
HETATM   14  C   UNL     1     -24.651   6.838  -1.802  1.00  0.00     0.038 A 
HETATM   15  C   UNL     1     -24.387   7.281  -0.504  1.00  0.00     0.021 A 
BRANCH  11  16
HETATM   16  O   UNL     1     -22.535  10.357  -1.215  1.00  0.00    -0.360 OA
HETATM   17  H   UNL     1     -22.131  10.629  -2.056  1.00  0.00     0.217 HD
ENDBRANCH  11  16
BRANCH  13  18
HETATM   18  O   UNL     1     -24.588   7.065  -4.117  1.00  0.00    -0.351 OA
BRANCH  18  19
HETATM   19  C   UNL     1     -25.906   6.526  -4.209  1.00  0.00     0.180 C 
BRANCH  19  20
HETATM   20  C   UNL     1     -26.771   7.550  -4.967  1.00  0.00     0.009 C 
BRANCH  20  21
HETATM   21  C   UNL     1     -27.403   8.549  -3.973  1.00  0.00     0.007 C 
BRANCH  21  22
HETATM   22  C   UNL     1     -28.109   7.858  -2.805  1.00  0.00     0.000 C 
BRANCH  22  23
HETATM   23  C   UNL     1     -27.827   8.522  -1.460  1.00  0.00    -0.005 C 
HETATM   24  C   UNL     1     -27.017   9.794  -1.663  1.00  0.00     0.005 C 
ENDBRANCH  22  23
ENDBRANCH  21  22
ENDBRANCH  20  21
BRANCH  20  25
HETATM   25  C   UNL     1     -26.008   8.208  -6.141  1.00  0.00     0.002 C 
HETATM   26  C   UNL     1     -25.761   9.704  -5.998  1.00  0.00     0.005 C 
ENDBRANCH  20  25
ENDBRANCH  19  20
ENDBRANCH  18  19
ENDBRANCH  13  18
ENDBRANCH   1  10
BRANCH   4  27
HETATM   27  C   UNL     1     -20.687   9.295   3.379  1.00  0.00     0.041 A 
HETATM   28  C   UNL     1     -20.406   8.988   4.725  1.00  0.00     0.082 A 
HETATM   29  C   UNL     1     -19.100   8.930   5.208  1.00  0.00     0.074 A 
HETATM   30  C   UNL     1     -18.033   9.201   4.358  1.00  0.00     0.071 A 
HETATM   31  C   UNL     1     -18.274   9.550   3.035  1.00  0.00     0.038 A 
HETATM   32  C   UNL     1     -19.584   9.586   2.550  1.00  0.00     0.021 A 
BRANCH  28  33
HETATM   33  O   UNL     1     -21.376   8.736   5.664  1.00  0.00    -0.360 OA
HETATM   34  H   UNL     1     -22.026   8.112   5.270  1.00  0.00     0.217 HD
ENDBRANCH  28  33
BRANCH  30  35
HETATM   35  O   UNL     1     -16.721   9.199   4.738  1.00  0.00    -0.351 OA
BRANCH  35  36
HETATM   36  C   UNL     1     -15.846   9.855   3.819  1.00  0.00     0.180 C 
BRANCH  36  37
HETATM   37  C   UNL     1     -14.539   9.054   3.709  1.00  0.00     0.009 C 
BRANCH  37  38
HETATM   38  C   UNL     1     -14.165   8.387   5.056  1.00  0.00     0.002 C 
HETATM   39  C   UNL     1     -13.104   9.118   5.870  1.00  0.00     0.005 C 
ENDBRANCH  37  38
BRANCH  37  40
HETATM   40  C   UNL     1     -14.604   8.031   2.557  1.00  0.00     0.007 C 
BRANCH  40  41
HETATM   41  C   UNL     1     -14.383   8.672   1.182  1.00  0.00     0.000 C 
BRANCH  41  42
HETATM   42  C   UNL     1     -13.271   9.718   1.204  1.00  0.00    -0.005 C 
HETATM   43  C   UNL     1     -13.799  11.060   0.719  1.00  0.00     0.005 C 
ENDBRANCH  41  42
ENDBRANCH  40  41
ENDBRANCH  37  40
ENDBRANCH  36  37
ENDBRANCH  35  36
ENDBRANCH  30  35
ENDBRANCH   4  27
BRANCH   7  44
HETATM   44  C   UNL     1     -25.385  10.115   3.919  1.00  0.00     0.008 A 
HETATM   45  C   UNL     1     -26.524  10.719   3.355  1.00  0.00     0.018 A 
HETATM   46  C   UNL     1     -27.606  11.123   4.146  1.00  0.00     0.037 A 
HETATM   47  C   UNL     1     -27.572  10.931   5.524  1.00  0.00     0.068 A 
HETATM   48  C   UNL     1     -26.449  10.337   6.101  1.00  0.00     0.037 A 
HETATM   49  C   UNL     1     -25.372   9.934   5.313  1.00  0.00     0.018 A 
BRANCH  47  50
HETATM   50  O   UNL     1     -28.559  11.273   6.404  1.00  0.00    -0.356 OA
HETATM   51  C   UNL     1     -29.867  11.410   5.860  1.00  0.00     0.210 C 
ENDBRANCH  47  50
ENDBRANCH   7  44
TORSDOF 20
ENDMDL
