MODEL 1
REMARK VINA RESULT:      -1.1      0.000      0.000
REMARK  12 active torsions:
REMARK  status: ('A' for Active; 'I' for Inactive)
REMARK    1  A    between atoms: C_2  and  C_5 
REMARK    2  A    between atoms: C_5  and  C_6 
REMARK    3  A    between atoms: C_6  and  C_9 
REMARK    4  A    between atoms: C_12  and  O_15 
REMARK    5  A    between atoms: O_15  and  C_16 
REMARK    6  A    between atoms: C_16  and  C_17 
REMARK    7  A    between atoms: C_17  and  O_18 
REMARK    8  A    between atoms: O_18  and  C_19 
REMARK    9  A    between atoms: C_19  and  C_20 
REMARK   10  A    between atoms: C_20  and  N_21 
REMARK   11  A    between atoms: N_21  and  C_24 
REMARK   12  A    between atoms: C_24  and  C_25 
ROOT
HETATM    1 CL   UNL     2     -32.950  -3.302 -11.392  1.00  0.00     0.000 Cl
ENDROOT
TORSDOF 12
ENDMDL
MODEL 2
REMARK VINA RESULT:      -1.0      8.563      8.563
REMARK  12 active torsions:
REMARK  status: ('A' for Active; 'I' for Inactive)
REMARK    1  A    between atoms: C_2  and  C_5 
REMARK    2  A    between atoms: C_5  and  C_6 
REMARK    3  A    between atoms: C_6  and  C_9 
REMARK    4  A    between atoms: C_12  and  O_15 
REMARK    5  A    between atoms: O_15  and  C_16 
REMARK    6  A    between atoms: C_16  and  C_17 
REMARK    7  A    between atoms: C_17  and  O_18 
REMARK    8  A    between atoms: O_18  and  C_19 
REMARK    9  A    between atoms: C_19  and  C_20 
REMARK   10  A    between atoms: C_20  and  N_21 
REMARK   11  A    between atoms: N_21  and  C_24 
REMARK   12  A    between atoms: C_24  and  C_25 
ROOT
HETATM    1 CL   UNL     2     -37.016   0.580  -4.933  1.00  0.00     0.000 Cl
ENDROOT
TORSDOF 12
ENDMDL
MODEL 3
REMARK VINA RESULT:      -1.0     11.259     11.259
REMARK  12 active torsions:
REMARK  status: ('A' for Active; 'I' for Inactive)
REMARK    1  A    between atoms: C_2  and  C_5 
REMARK    2  A    between atoms: C_5  and  C_6 
REMARK    3  A    between atoms: C_6  and  C_9 
REMARK    4  A    between atoms: C_12  and  O_15 
REMARK    5  A    between atoms: O_15  and  C_16 
REMARK    6  A    between atoms: C_16  and  C_17 
REMARK    7  A    between atoms: C_17  and  O_18 
REMARK    8  A    between atoms: O_18  and  C_19 
REMARK    9  A    between atoms: C_19  and  C_20 
REMARK   10  A    between atoms: C_20  and  N_21 
REMARK   11  A    between atoms: N_21  and  C_24 
REMARK   12  A    between atoms: C_24  and  C_25 
ROOT
HETATM    1 CL   UNL     2     -29.825   7.428 -12.753  1.00  0.00     0.000 Cl
ENDROOT
TORSDOF 12
ENDMDL
MODEL 4
REMARK VINA RESULT:      -1.0      4.761      4.761
REMARK  12 active torsions:
REMARK  status: ('A' for Active; 'I' for Inactive)
REMARK    1  A    between atoms: C_2  and  C_5 
REMARK    2  A    between atoms: C_5  and  C_6 
REMARK    3  A    between atoms: C_6  and  C_9 
REMARK    4  A    between atoms: C_12  and  O_15 
REMARK    5  A    between atoms: O_15  and  C_16 
REMARK    6  A    between atoms: C_16  and  C_17 
REMARK    7  A    between atoms: C_17  and  O_18 
REMARK    8  A    between atoms: O_18  and  C_19 
REMARK    9  A    between atoms: C_19  and  C_20 
REMARK   10  A    between atoms: C_20  and  N_21 
REMARK   11  A    between atoms: N_21  and  C_24 
REMARK   12  A    between atoms: C_24  and  C_25 
ROOT
HETATM    1 CL   UNL     2     -34.923  -7.293  -9.705  1.00  0.00     0.000 Cl
ENDROOT
TORSDOF 12
ENDMDL
MODEL 5
REMARK VINA RESULT:      -1.0     14.615     14.615
REMARK  12 active torsions:
REMARK  status: ('A' for Active; 'I' for Inactive)
REMARK    1  A    between atoms: C_2  and  C_5 
REMARK    2  A    between atoms: C_5  and  C_6 
REMARK    3  A    between atoms: C_6  and  C_9 
REMARK    4  A    between atoms: C_12  and  O_15 
REMARK    5  A    between atoms: O_15  and  C_16 
REMARK    6  A    between atoms: C_16  and  C_17 
REMARK    7  A    between atoms: C_17  and  O_18 
REMARK    8  A    between atoms: O_18  and  C_19 
REMARK    9  A    between atoms: C_19  and  C_20 
REMARK   10  A    between atoms: C_20  and  N_21 
REMARK   11  A    between atoms: N_21  and  C_24 
REMARK   12  A    between atoms: C_24  and  C_25 
ROOT
HETATM    1 CL   UNL     2     -22.240  -6.154  -1.866  1.00  0.00     0.000 Cl
ENDROOT
TORSDOF 12
ENDMDL
MODEL 6
REMARK VINA RESULT:      -0.9     16.132     16.132
REMARK  12 active torsions:
REMARK  status: ('A' for Active; 'I' for Inactive)
REMARK    1  A    between atoms: C_2  and  C_5 
REMARK    2  A    between atoms: C_5  and  C_6 
REMARK    3  A    between atoms: C_6  and  C_9 
REMARK    4  A    between atoms: C_12  and  O_15 
REMARK    5  A    between atoms: O_15  and  C_16 
REMARK    6  A    between atoms: C_16  and  C_17 
REMARK    7  A    between atoms: C_17  and  O_18 
REMARK    8  A    between atoms: O_18  and  C_19 
REMARK    9  A    between atoms: C_19  and  C_20 
REMARK   10  A    between atoms: C_20  and  N_21 
REMARK   11  A    between atoms: N_21  and  C_24 
REMARK   12  A    between atoms: C_24  and  C_25 
ROOT
HETATM    1 CL   UNL     2     -23.253  -8.078   0.583  1.00  0.00     0.000 Cl
ENDROOT
TORSDOF 12
ENDMDL
MODEL 7
REMARK VINA RESULT:      -0.9     30.917     30.917
REMARK  12 active torsions:
REMARK  status: ('A' for Active; 'I' for Inactive)
REMARK    1  A    between atoms: C_2  and  C_5 
REMARK    2  A    between atoms: C_5  and  C_6 
REMARK    3  A    between atoms: C_6  and  C_9 
REMARK    4  A    between atoms: C_12  and  O_15 
REMARK    5  A    between atoms: O_15  and  C_16 
REMARK    6  A    between atoms: C_16  and  C_17 
REMARK    7  A    between atoms: C_17  and  O_18 
REMARK    8  A    between atoms: O_18  and  C_19 
REMARK    9  A    between atoms: C_19  and  C_20 
REMARK   10  A    between atoms: C_20  and  N_21 
REMARK   11  A    between atoms: N_21  and  C_24 
REMARK   12  A    between atoms: C_24  and  C_25 
ROOT
HETATM    1 CL   UNL     2      -9.180 -12.836   5.927  1.00  0.00     0.000 Cl
ENDROOT
TORSDOF 12
ENDMDL
MODEL 8
REMARK VINA RESULT:      -0.9      5.332      5.332
REMARK  12 active torsions:
REMARK  status: ('A' for Active; 'I' for Inactive)
REMARK    1  A    between atoms: C_2  and  C_5 
REMARK    2  A    between atoms: C_5  and  C_6 
REMARK    3  A    between atoms: C_6  and  C_9 
REMARK    4  A    between atoms: C_12  and  O_15 
REMARK    5  A    between atoms: O_15  and  C_16 
REMARK    6  A    between atoms: C_16  and  C_17 
REMARK    7  A    between atoms: C_17  and  O_18 
REMARK    8  A    between atoms: O_18  and  C_19 
REMARK    9  A    between atoms: C_19  and  C_20 
REMARK   10  A    between atoms: C_20  and  N_21 
REMARK   11  A    between atoms: N_21  and  C_24 
REMARK   12  A    between atoms: C_24  and  C_25 
ROOT
HETATM    1 CL   UNL     2     -34.583   1.175 -13.785  1.00  0.00     0.000 Cl
ENDROOT
TORSDOF 12
ENDMDL
MODEL 9
REMARK VINA RESULT:      -0.9     16.219     16.219
REMARK  12 active torsions:
REMARK  status: ('A' for Active; 'I' for Inactive)
REMARK    1  A    between atoms: C_2  and  C_5 
REMARK    2  A    between atoms: C_5  and  C_6 
REMARK    3  A    between atoms: C_6  and  C_9 
REMARK    4  A    between atoms: C_12  and  O_15 
REMARK    5  A    between atoms: O_15  and  C_16 
REMARK    6  A    between atoms: C_16  and  C_17 
REMARK    7  A    between atoms: C_17  and  O_18 
REMARK    8  A    between atoms: O_18  and  C_19 
REMARK    9  A    between atoms: C_19  and  C_20 
REMARK   10  A    between atoms: C_20  and  N_21 
REMARK   11  A    between atoms: N_21  and  C_24 
REMARK   12  A    between atoms: C_24  and  C_25 
ROOT
HETATM    1 CL   UNL     2     -23.925   5.853  -1.504  1.00  0.00     0.000 Cl
ENDROOT
TORSDOF 12
ENDMDL
