MODEL 1
REMARK VINA RESULT:      -8.3      0.000      0.000
REMARK  10 active torsions:
REMARK  status: ('A' for Active; 'I' for Inactive)
REMARK    1  A    between atoms: C_2  and  C_3 
REMARK    2  A    between atoms: C_3  and  C_4 
REMARK    3  A    between atoms: C_4  and  C_5 
REMARK    4  A    between atoms: C_5  and  C_6 
REMARK    5  A    between atoms: C_6  and  C_7 
REMARK    6  A    between atoms: C_7  and  C_8 
REMARK    7  A    between atoms: C_8  and  C_10 
REMARK    8  A    between atoms: C_12  and  C_17 
REMARK    9  A    between atoms: C_13  and  O_16 
REMARK   10  A    between atoms: C_17  and  O_19 
ROOT
HETATM    1  C   UNL     1     -21.794  -4.226  -8.803  1.00  0.00     0.011 A 
HETATM    2  C   UNL     1     -22.966  -3.877  -9.482  1.00  0.00     0.036 A 
HETATM    3  C   UNL     1     -22.952  -3.683 -10.871  1.00  0.00     0.071 A 
HETATM    4  C   UNL     1     -21.748  -3.843 -11.564  1.00  0.00     0.082 A 
HETATM    5  C   UNL     1     -20.573  -4.191 -10.896  1.00  0.00     0.038 A 
HETATM    6  C   UNL     1     -20.595  -4.375  -9.512  1.00  0.00     0.018 A 
ENDROOT
BRANCH   1   7
HETATM    7  C   UNL     1     -21.785  -4.444  -7.330  1.00  0.00     0.159 C 
HETATM    8  O   UNL     1     -22.860  -4.472  -6.733  1.00  0.00    -0.292 OA
BRANCH   7   9
HETATM    9  C   UNL     1     -20.443  -4.592  -6.632  1.00  0.00     0.084 C 
BRANCH   9  10
HETATM   10  C   UNL     1     -20.593  -5.229  -5.254  1.00  0.00     0.008 C 
BRANCH  10  11
HETATM   11  C   UNL     1     -20.807  -6.739  -5.349  1.00  0.00     0.000 C 
BRANCH  11  12
HETATM   12  C   UNL     1     -21.640  -7.249  -4.172  1.00  0.00     0.000 C 
BRANCH  12  13
HETATM   13  C   UNL     1     -21.106  -6.719  -2.841  1.00  0.00    -0.000 C 
BRANCH  13  14
HETATM   14  C   UNL     1     -22.239  -6.217  -1.947  1.00  0.00    -0.005 C 
HETATM   15  C   UNL     1     -22.399  -7.095  -0.715  1.00  0.00     0.005 C 
ENDBRANCH  13  14
ENDBRANCH  12  13
ENDBRANCH  11  12
ENDBRANCH  10  11
ENDBRANCH   9  10
ENDBRANCH   7   9
ENDBRANCH   1   7
BRANCH   3  16
HETATM   16  C   UNL     1     -24.224  -3.236 -11.504  1.00  0.00     0.179 C 
HETATM   17  O   UNL     1     -24.283  -2.915 -12.670  1.00  0.00    -0.646 OA
BRANCH  16  18
HETATM   18  O   UNL     1     -25.295  -3.204 -10.682  1.00  0.00    -0.773 OA
HETATM   19  H   UNL     1     -26.114  -2.874 -11.107  1.00  0.00     0.167 HD
ENDBRANCH  16  18
ENDBRANCH   3  16
BRANCH   4  20
HETATM   20  O   UNL     1     -21.678  -3.664 -12.917  1.00  0.00    -0.360 OA
HETATM   21  H   UNL     1     -21.975  -2.749 -13.094  1.00  0.00     0.217 HD
ENDBRANCH   4  20
TORSDOF 10
ENDMDL
MODEL 2
REMARK VINA RESULT:      -8.1      1.455      2.589
REMARK  10 active torsions:
REMARK  status: ('A' for Active; 'I' for Inactive)
REMARK    1  A    between atoms: C_2  and  C_3 
REMARK    2  A    between atoms: C_3  and  C_4 
REMARK    3  A    between atoms: C_4  and  C_5 
REMARK    4  A    between atoms: C_5  and  C_6 
REMARK    5  A    between atoms: C_6  and  C_7 
REMARK    6  A    between atoms: C_7  and  C_8 
REMARK    7  A    between atoms: C_8  and  C_10 
REMARK    8  A    between atoms: C_12  and  C_17 
REMARK    9  A    between atoms: C_13  and  O_16 
REMARK   10  A    between atoms: C_17  and  O_19 
ROOT
HETATM    1  C   UNL     1     -21.824  -4.163  -9.667  1.00  0.00     0.011 A 
HETATM    2  C   UNL     1     -22.370  -3.869 -10.921  1.00  0.00     0.036 A 
HETATM    3  C   UNL     1     -23.730  -3.554 -11.047  1.00  0.00     0.071 A 
HETATM    4  C   UNL     1     -24.531  -3.540  -9.900  1.00  0.00     0.082 A 
HETATM    5  C   UNL     1     -23.995  -3.831  -8.644  1.00  0.00     0.038 A 
HETATM    6  C   UNL     1     -22.641  -4.151  -8.530  1.00  0.00     0.018 A 
ENDROOT
BRANCH   1   7
HETATM    7  C   UNL     1     -20.380  -4.493  -9.508  1.00  0.00     0.159 C 
HETATM    8  O   UNL     1     -19.779  -4.983 -10.462  1.00  0.00    -0.292 OA
BRANCH   7   9
HETATM    9  C   UNL     1     -19.727  -4.234  -8.160  1.00  0.00     0.084 C 
BRANCH   9  10
HETATM   10  C   UNL     1     -19.772  -5.469  -7.265  1.00  0.00     0.008 C 
BRANCH  10  11
HETATM   11  C   UNL     1     -20.152  -5.113  -5.829  1.00  0.00     0.000 C 
BRANCH  11  12
HETATM   12  C   UNL     1     -21.469  -5.780  -5.430  1.00  0.00     0.000 C 
BRANCH  12  13
HETATM   13  C   UNL     1     -21.284  -6.703  -4.225  1.00  0.00    -0.000 C 
BRANCH  13  14
HETATM   14  C   UNL     1     -21.237  -5.910  -2.919  1.00  0.00    -0.005 C 
HETATM   15  C   UNL     1     -22.297  -6.395  -1.942  1.00  0.00     0.005 C 
ENDBRANCH  13  14
ENDBRANCH  12  13
ENDBRANCH  11  12
ENDBRANCH  10  11
ENDBRANCH   9  10
ENDBRANCH   7   9
ENDBRANCH   1   7
BRANCH   3  16
HETATM   16  C   UNL     1     -24.248  -3.332 -12.426  1.00  0.00     0.179 C 
HETATM   17  O   UNL     1     -25.340  -2.852 -12.633  1.00  0.00    -0.646 OA
BRANCH  16  18
HETATM   18  O   UNL     1     -23.419  -3.716 -13.419  1.00  0.00    -0.773 OA
HETATM   19  H   UNL     1     -22.708  -3.071 -13.618  1.00  0.00     0.167 HD
ENDBRANCH  16  18
ENDBRANCH   3  16
BRANCH   4  20
HETATM   20  O   UNL     1     -25.863  -3.241  -9.967  1.00  0.00    -0.360 OA
HETATM   21  H   UNL     1     -26.296  -3.732  -9.240  1.00  0.00     0.217 HD
ENDBRANCH   4  20
TORSDOF 10
ENDMDL
MODEL 3
REMARK VINA RESULT:      -8.0      1.703      3.171
REMARK  10 active torsions:
REMARK  status: ('A' for Active; 'I' for Inactive)
REMARK    1  A    between atoms: C_2  and  C_3 
REMARK    2  A    between atoms: C_3  and  C_4 
REMARK    3  A    between atoms: C_4  and  C_5 
REMARK    4  A    between atoms: C_5  and  C_6 
REMARK    5  A    between atoms: C_6  and  C_7 
REMARK    6  A    between atoms: C_7  and  C_8 
REMARK    7  A    between atoms: C_8  and  C_10 
REMARK    8  A    between atoms: C_12  and  C_17 
REMARK    9  A    between atoms: C_13  and  O_16 
REMARK   10  A    between atoms: C_17  and  O_19 
ROOT
HETATM    1  C   UNL     1     -22.138  -3.771 -10.901  1.00  0.00     0.011 A 
HETATM    2  C   UNL     1     -22.096  -3.327 -12.227  1.00  0.00     0.036 A 
HETATM    3  C   UNL     1     -23.277  -2.974 -12.895  1.00  0.00     0.071 A 
HETATM    4  C   UNL     1     -24.495  -3.074 -12.216  1.00  0.00     0.082 A 
HETATM    5  C   UNL     1     -24.547  -3.516 -10.892  1.00  0.00     0.038 A 
HETATM    6  C   UNL     1     -23.367  -3.872 -10.237  1.00  0.00     0.018 A 
ENDROOT
BRANCH   1   7
HETATM    7  C   UNL     1     -20.896  -4.144 -10.168  1.00  0.00     0.159 C 
HETATM    8  O   UNL     1     -19.944  -4.585 -10.808  1.00  0.00    -0.292 OA
BRANCH   7   9
HETATM    9  C   UNL     1     -20.879  -3.989  -8.656  1.00  0.00     0.084 C 
BRANCH   9  10
HETATM   10  C   UNL     1     -19.555  -4.454  -8.057  1.00  0.00     0.008 C 
BRANCH  10  11
HETATM   11  C   UNL     1     -19.712  -5.763  -7.285  1.00  0.00     0.000 C 
BRANCH  11  12
HETATM   12  C   UNL     1     -21.042  -5.798  -6.531  1.00  0.00     0.000 C 
BRANCH  12  13
HETATM   13  C   UNL     1     -20.829  -5.709  -5.020  1.00  0.00    -0.000 C 
BRANCH  13  14
HETATM   14  C   UNL     1     -21.894  -6.498  -4.259  1.00  0.00    -0.005 C 
HETATM   15  C   UNL     1     -21.789  -6.263  -2.760  1.00  0.00     0.005 C 
ENDBRANCH  13  14
ENDBRANCH  12  13
ENDBRANCH  11  12
ENDBRANCH  10  11
ENDBRANCH   9  10
ENDBRANCH   7   9
ENDBRANCH   1   7
BRANCH   3  16
HETATM   16  C   UNL     1     -23.152  -2.588 -14.329  1.00  0.00     0.179 C 
HETATM   17  O   UNL     1     -23.848  -1.730 -14.826  1.00  0.00    -0.646 OA
BRANCH  16  18
HETATM   18  O   UNL     1     -22.223  -3.271 -15.029  1.00  0.00    -0.773 OA
HETATM   19  H   UNL     1     -22.222  -3.074 -15.990  1.00  0.00     0.167 HD
ENDBRANCH  16  18
ENDBRANCH   3  16
BRANCH   4  20
HETATM   20  O   UNL     1     -25.675  -2.744 -12.821  1.00  0.00    -0.360 OA
HETATM   21  H   UNL     1     -26.323  -2.591 -12.104  1.00  0.00     0.217 HD
ENDBRANCH   4  20
TORSDOF 10
ENDMDL
MODEL 4
REMARK VINA RESULT:      -7.6     12.021     14.612
REMARK  10 active torsions:
REMARK  status: ('A' for Active; 'I' for Inactive)
REMARK    1  A    between atoms: C_2  and  C_3 
REMARK    2  A    between atoms: C_3  and  C_4 
REMARK    3  A    between atoms: C_4  and  C_5 
REMARK    4  A    between atoms: C_5  and  C_6 
REMARK    5  A    between atoms: C_6  and  C_7 
REMARK    6  A    between atoms: C_7  and  C_8 
REMARK    7  A    between atoms: C_8  and  C_10 
REMARK    8  A    between atoms: C_12  and  C_17 
REMARK    9  A    between atoms: C_13  and  O_16 
REMARK   10  A    between atoms: C_17  and  O_19 
ROOT
HETATM    1  C   UNL     1     -34.946  -2.974 -11.024  1.00  0.00     0.011 A 
HETATM    2  C   UNL     1     -35.309  -4.279 -10.678  1.00  0.00     0.036 A 
HETATM    3  C   UNL     1     -34.408  -5.338 -10.857  1.00  0.00     0.071 A 
HETATM    4  C   UNL     1     -33.143  -5.069 -11.387  1.00  0.00     0.082 A 
HETATM    5  C   UNL     1     -32.771  -3.769 -11.735  1.00  0.00     0.038 A 
HETATM    6  C   UNL     1     -33.676  -2.722 -11.560  1.00  0.00     0.018 A 
ENDROOT
BRANCH   1   7
HETATM    7  C   UNL     1     -35.882  -1.831 -10.836  1.00  0.00     0.159 C 
HETATM    8  O   UNL     1     -36.693  -1.581 -11.726  1.00  0.00    -0.292 OA
BRANCH   7   9
HETATM    9  C   UNL     1     -35.770  -1.010  -9.562  1.00  0.00     0.084 C 
BRANCH   9  10
HETATM   10  C   UNL     1     -37.119  -0.434  -9.142  1.00  0.00     0.008 C 
BRANCH  10  11
HETATM   11  C   UNL     1     -37.107   1.094  -9.145  1.00  0.00     0.000 C 
BRANCH  11  12
HETATM   12  C   UNL     1     -37.608   1.648  -7.810  1.00  0.00     0.000 C 
BRANCH  12  13
HETATM   13  C   UNL     1     -37.882   0.525  -6.809  1.00  0.00    -0.000 C 
BRANCH  13  14
HETATM   14  C   UNL     1     -37.148   0.764  -5.490  1.00  0.00    -0.005 C 
HETATM   15  C   UNL     1     -37.588  -0.230  -4.426  1.00  0.00     0.005 C 
ENDBRANCH  13  14
ENDBRANCH  12  13
ENDBRANCH  11  12
ENDBRANCH  10  11
ENDBRANCH   9  10
ENDBRANCH   7   9
ENDBRANCH   1   7
BRANCH   3  16
HETATM   16  C   UNL     1     -34.903  -6.708 -10.538  1.00  0.00     0.179 C 
HETATM   17  O   UNL     1     -35.119  -7.064  -9.401  1.00  0.00    -0.646 OA
BRANCH  16  18
HETATM   18  O   UNL     1     -35.077  -7.518 -11.603  1.00  0.00    -0.773 OA
HETATM   19  H   UNL     1     -35.993  -7.525 -11.954  1.00  0.00     0.167 HD
ENDBRANCH  16  18
ENDBRANCH   3  16
BRANCH   4  20
HETATM   20  O   UNL     1     -32.228  -6.065 -11.584  1.00  0.00    -0.360 OA
HETATM   21  H   UNL     1     -32.730  -6.904 -11.608  1.00  0.00     0.217 HD
ENDBRANCH   4  20
TORSDOF 10
ENDMDL
MODEL 5
REMARK VINA RESULT:      -7.5     12.613     14.254
REMARK  10 active torsions:
REMARK  status: ('A' for Active; 'I' for Inactive)
REMARK    1  A    between atoms: C_2  and  C_3 
REMARK    2  A    between atoms: C_3  and  C_4 
REMARK    3  A    between atoms: C_4  and  C_5 
REMARK    4  A    between atoms: C_5  and  C_6 
REMARK    5  A    between atoms: C_6  and  C_7 
REMARK    6  A    between atoms: C_7  and  C_8 
REMARK    7  A    between atoms: C_8  and  C_10 
REMARK    8  A    between atoms: C_12  and  C_17 
REMARK    9  A    between atoms: C_13  and  O_16 
REMARK   10  A    between atoms: C_17  and  O_19 
ROOT
HETATM    1  C   UNL     1     -35.174  -1.058 -12.670  1.00  0.00     0.011 A 
HETATM    2  C   UNL     1     -35.380  -1.479 -13.988  1.00  0.00     0.036 A 
HETATM    3  C   UNL     1     -35.464  -0.541 -15.027  1.00  0.00     0.071 A 
HETATM    4  C   UNL     1     -35.341   0.818 -14.725  1.00  0.00     0.082 A 
HETATM    5  C   UNL     1     -35.135   1.248 -13.413  1.00  0.00     0.038 A 
HETATM    6  C   UNL     1     -35.059   0.308 -12.383  1.00  0.00     0.018 A 
ENDROOT
BRANCH   1   7
HETATM    7  C   UNL     1     -35.074  -2.034 -11.550  1.00  0.00     0.159 C 
HETATM    8  O   UNL     1     -36.082  -2.652 -11.214  1.00  0.00    -0.292 OA
BRANCH   7   9
HETATM    9  C   UNL     1     -33.731  -2.198 -10.856  1.00  0.00     0.084 C 
BRANCH   9  10
HETATM   10  C   UNL     1     -32.887  -3.287 -11.511  1.00  0.00     0.008 C 
BRANCH  10  11
HETATM   11  C   UNL     1     -33.718  -4.527 -11.837  1.00  0.00     0.000 C 
BRANCH  11  12
HETATM   12  C   UNL     1     -34.011  -5.338 -10.574  1.00  0.00     0.000 C 
BRANCH  12  13
HETATM   13  C   UNL     1     -34.634  -6.692 -10.914  1.00  0.00    -0.000 C 
BRANCH  13  14
HETATM   14  C   UNL     1     -34.769  -7.570  -9.670  1.00  0.00    -0.005 C 
HETATM   15  C   UNL     1     -33.963  -8.853  -9.811  1.00  0.00     0.005 C 
ENDBRANCH  13  14
ENDBRANCH  12  13
ENDBRANCH  11  12
ENDBRANCH  10  11
ENDBRANCH   9  10
ENDBRANCH   7   9
ENDBRANCH   1   7
BRANCH   3  16
HETATM   16  C   UNL     1     -35.763  -1.067 -16.389  1.00  0.00     0.179 C 
HETATM   17  O   UNL     1     -36.759  -0.745 -16.997  1.00  0.00    -0.646 OA
BRANCH  16  18
HETATM   18  O   UNL     1     -34.854  -1.934 -16.883  1.00  0.00    -0.773 OA
HETATM   19  H   UNL     1     -34.528  -2.587 -16.227  1.00  0.00     0.167 HD
ENDBRANCH  16  18
ENDBRANCH   3  16
BRANCH   4  20
HETATM   20  O   UNL     1     -35.417   1.773 -15.700  1.00  0.00    -0.360 OA
HETATM   21  H   UNL     1     -34.628   1.657 -16.267  1.00  0.00     0.217 HD
ENDBRANCH   4  20
TORSDOF 10
ENDMDL
MODEL 6
REMARK VINA RESULT:      -7.3      1.139      2.288
REMARK  10 active torsions:
REMARK  status: ('A' for Active; 'I' for Inactive)
REMARK    1  A    between atoms: C_2  and  C_3 
REMARK    2  A    between atoms: C_3  and  C_4 
REMARK    3  A    between atoms: C_4  and  C_5 
REMARK    4  A    between atoms: C_5  and  C_6 
REMARK    5  A    between atoms: C_6  and  C_7 
REMARK    6  A    between atoms: C_7  and  C_8 
REMARK    7  A    between atoms: C_8  and  C_10 
REMARK    8  A    between atoms: C_12  and  C_17 
REMARK    9  A    between atoms: C_13  and  O_16 
REMARK   10  A    between atoms: C_17  and  O_19 
ROOT
HETATM    1  C   UNL     1     -22.055  -4.310  -8.425  1.00  0.00     0.011 A 
HETATM    2  C   UNL     1     -21.659  -4.002  -9.732  1.00  0.00     0.036 A 
HETATM    3  C   UNL     1     -22.606  -3.606 -10.686  1.00  0.00     0.071 A 
HETATM    4  C   UNL     1     -23.952  -3.525 -10.312  1.00  0.00     0.082 A 
HETATM    5  C   UNL     1     -24.357  -3.829  -9.011  1.00  0.00     0.038 A 
HETATM    6  C   UNL     1     -23.407  -4.230  -8.069  1.00  0.00     0.018 A 
ENDROOT
BRANCH   1   7
HETATM    7  C   UNL     1     -21.067  -4.725  -7.392  1.00  0.00     0.159 C 
HETATM    8  O   UNL     1     -20.244  -3.901  -6.998  1.00  0.00    -0.292 OA
BRANCH   7   9
HETATM    9  C   UNL     1     -21.105  -6.161  -6.895  1.00  0.00     0.084 C 
BRANCH   9  10
HETATM   10  C   UNL     1     -20.655  -6.267  -5.441  1.00  0.00     0.008 C 
BRANCH  10  11
HETATM   11  C   UNL     1     -21.633  -7.090  -4.605  1.00  0.00     0.000 C 
BRANCH  11  12
HETATM   12  C   UNL     1     -21.182  -7.160  -3.145  1.00  0.00     0.000 C 
BRANCH  12  13
HETATM   13  C   UNL     1     -21.996  -6.211  -2.265  1.00  0.00    -0.000 C 
BRANCH  13  14
HETATM   14  C   UNL     1     -22.362  -6.864  -0.933  1.00  0.00    -0.005 C 
HETATM   15  C   UNL     1     -21.408  -8.000  -0.595  1.00  0.00     0.005 C 
ENDBRANCH  13  14
ENDBRANCH  12  13
ENDBRANCH  11  12
ENDBRANCH  10  11
ENDBRANCH   9  10
ENDBRANCH   7   9
ENDBRANCH   1   7
BRANCH   3  16
HETATM   16  C   UNL     1     -22.112  -3.374 -12.073  1.00  0.00     0.179 C 
HETATM   17  O   UNL     1     -22.841  -2.983 -12.957  1.00  0.00    -0.646 OA
BRANCH  16  18
HETATM   18  O   UNL     1     -20.805  -3.645 -12.269  1.00  0.00    -0.773 OA
HETATM   19  H   UNL     1     -20.345  -3.988 -11.474  1.00  0.00     0.167 HD
ENDBRANCH  16  18
ENDBRANCH   3  16
BRANCH   4  20
HETATM   20  O   UNL     1     -24.915  -3.146 -11.204  1.00  0.00    -0.360 OA
HETATM   21  H   UNL     1     -25.299  -3.970 -11.568  1.00  0.00     0.217 HD
ENDBRANCH   4  20
TORSDOF 10
ENDMDL
MODEL 7
REMARK VINA RESULT:      -6.8      1.933      3.243
REMARK  10 active torsions:
REMARK  status: ('A' for Active; 'I' for Inactive)
REMARK    1  A    between atoms: C_2  and  C_3 
REMARK    2  A    between atoms: C_3  and  C_4 
REMARK    3  A    between atoms: C_4  and  C_5 
REMARK    4  A    between atoms: C_5  and  C_6 
REMARK    5  A    between atoms: C_6  and  C_7 
REMARK    6  A    between atoms: C_7  and  C_8 
REMARK    7  A    between atoms: C_8  and  C_10 
REMARK    8  A    between atoms: C_12  and  C_17 
REMARK    9  A    between atoms: C_13  and  O_16 
REMARK   10  A    between atoms: C_17  and  O_19 
ROOT
HETATM    1  C   UNL     1     -21.684  -5.599  -6.152  1.00  0.00     0.011 A 
HETATM    2  C   UNL     1     -22.521  -4.988  -7.092  1.00  0.00     0.036 A 
HETATM    3  C   UNL     1     -21.983  -4.396  -8.244  1.00  0.00     0.071 A 
HETATM    4  C   UNL     1     -20.598  -4.426  -8.437  1.00  0.00     0.082 A 
HETATM    5  C   UNL     1     -19.755  -5.033  -7.505  1.00  0.00     0.038 A 
HETATM    6  C   UNL     1     -20.299  -5.613  -6.357  1.00  0.00     0.018 A 
ENDROOT
BRANCH   1   7
HETATM    7  C   UNL     1     -22.232  -6.240  -4.925  1.00  0.00     0.159 C 
HETATM    8  O   UNL     1     -23.451  -6.364  -4.820  1.00  0.00    -0.292 OA
BRANCH   7   9
HETATM    9  C   UNL     1     -21.257  -6.684  -3.848  1.00  0.00     0.084 C 
BRANCH   9  10
HETATM   10  C   UNL     1     -21.439  -5.888  -2.559  1.00  0.00     0.008 C 
BRANCH  10  11
HETATM   11  C   UNL     1     -22.187  -6.694  -1.498  1.00  0.00     0.000 C 
BRANCH  11  12
HETATM   12  C   UNL     1     -21.662  -8.129  -1.430  1.00  0.00     0.000 C 
BRANCH  12  13
HETATM   13  C   UNL     1     -21.343  -8.537   0.009  1.00  0.00    -0.000 C 
BRANCH  13  14
HETATM   14  C   UNL     1     -21.910  -9.918   0.335  1.00  0.00    -0.005 C 
HETATM   15  C   UNL     1     -23.275 -10.119  -0.305  1.00  0.00     0.005 C 
ENDBRANCH  13  14
ENDBRANCH  12  13
ENDBRANCH  11  12
ENDBRANCH  10  11
ENDBRANCH   9  10
ENDBRANCH   7   9
ENDBRANCH   1   7
BRANCH   3  16
HETATM   16  C   UNL     1     -22.935  -3.698  -9.153  1.00  0.00     0.179 C 
HETATM   17  O   UNL     1     -22.609  -3.315 -10.254  1.00  0.00    -0.646 OA
BRANCH  16  18
HETATM   18  O   UNL     1     -24.176  -3.515  -8.654  1.00  0.00    -0.773 OA
HETATM   19  H   UNL     1     -24.410  -4.133  -7.929  1.00  0.00     0.167 HD
ENDBRANCH  16  18
ENDBRANCH   3  16
BRANCH   4  20
HETATM   20  O   UNL     1     -20.022  -3.863  -9.540  1.00  0.00    -0.360 OA
HETATM   21  H   UNL     1     -19.221  -4.388  -9.736  1.00  0.00     0.217 HD
ENDBRANCH   4  20
TORSDOF 10
ENDMDL
MODEL 8
REMARK VINA RESULT:      -6.7      3.581      8.971
REMARK  10 active torsions:
REMARK  status: ('A' for Active; 'I' for Inactive)
REMARK    1  A    between atoms: C_2  and  C_3 
REMARK    2  A    between atoms: C_3  and  C_4 
REMARK    3  A    between atoms: C_4  and  C_5 
REMARK    4  A    between atoms: C_5  and  C_6 
REMARK    5  A    between atoms: C_6  and  C_7 
REMARK    6  A    between atoms: C_7  and  C_8 
REMARK    7  A    between atoms: C_8  and  C_10 
REMARK    8  A    between atoms: C_12  and  C_17 
REMARK    9  A    between atoms: C_13  and  O_16 
REMARK   10  A    between atoms: C_17  and  O_19 
ROOT
HETATM    1  C   UNL     1     -21.640  -6.867  -3.446  1.00  0.00     0.011 A 
HETATM    2  C   UNL     1     -20.906  -8.035  -3.213  1.00  0.00     0.036 A 
HETATM    3  C   UNL     1     -20.780  -8.548  -1.914  1.00  0.00     0.071 A 
HETATM    4  C   UNL     1     -21.398  -7.873  -0.857  1.00  0.00     0.082 A 
HETATM    5  C   UNL     1     -22.133  -6.707  -1.079  1.00  0.00     0.038 A 
HETATM    6  C   UNL     1     -22.248  -6.200  -2.375  1.00  0.00     0.018 A 
ENDROOT
BRANCH   1   7
HETATM    7  C   UNL     1     -21.795  -6.308  -4.817  1.00  0.00     0.159 C 
HETATM    8  O   UNL     1     -22.917  -5.976  -5.196  1.00  0.00    -0.292 OA
BRANCH   7   9
HETATM    9  C   UNL     1     -20.558  -6.201  -5.695  1.00  0.00     0.084 C 
BRANCH   9  10
HETATM   10  C   UNL     1     -20.089  -4.756  -5.835  1.00  0.00     0.008 C 
BRANCH  10  11
HETATM   11  C   UNL     1     -20.784  -4.046  -6.996  1.00  0.00     0.000 C 
BRANCH  11  12
HETATM   12  C   UNL     1     -19.853  -3.932  -8.203  1.00  0.00     0.000 C 
BRANCH  12  13
HETATM   13  C   UNL     1     -20.414  -4.681  -9.412  1.00  0.00    -0.000 C 
BRANCH  13  14
HETATM   14  C   UNL     1     -20.381  -3.813 -10.670  1.00  0.00    -0.005 C 
HETATM   15  C   UNL     1     -21.785  -3.432 -11.115  1.00  0.00     0.005 C 
ENDBRANCH  13  14
ENDBRANCH  12  13
ENDBRANCH  11  12
ENDBRANCH  10  11
ENDBRANCH   9  10
ENDBRANCH   7   9
ENDBRANCH   1   7
BRANCH   3  16
HETATM   16  C   UNL     1     -19.915  -9.749  -1.743  1.00  0.00     0.179 C 
HETATM   17  O   UNL     1     -18.860  -9.869  -2.323  1.00  0.00    -0.646 OA
BRANCH  16  18
HETATM   18  O   UNL     1     -20.402 -10.692  -0.908  1.00  0.00    -0.773 OA
HETATM   19  H   UNL     1     -20.161 -10.555   0.033  1.00  0.00     0.167 HD
ENDBRANCH  16  18
ENDBRANCH   3  16
BRANCH   4  20
HETATM   20  O   UNL     1     -21.305  -8.328   0.428  1.00  0.00    -0.360 OA
HETATM   21  H   UNL     1     -22.057  -8.939   0.563  1.00  0.00     0.217 HD
ENDBRANCH   4  20
TORSDOF 10
ENDMDL
MODEL 9
REMARK VINA RESULT:      -6.6      3.604      9.023
REMARK  10 active torsions:
REMARK  status: ('A' for Active; 'I' for Inactive)
REMARK    1  A    between atoms: C_2  and  C_3 
REMARK    2  A    between atoms: C_3  and  C_4 
REMARK    3  A    between atoms: C_4  and  C_5 
REMARK    4  A    between atoms: C_5  and  C_6 
REMARK    5  A    between atoms: C_6  and  C_7 
REMARK    6  A    between atoms: C_7  and  C_8 
REMARK    7  A    between atoms: C_8  and  C_10 
REMARK    8  A    between atoms: C_12  and  C_17 
REMARK    9  A    between atoms: C_13  and  O_16 
REMARK   10  A    between atoms: C_17  and  O_19 
ROOT
HETATM    1  C   UNL     1     -21.362  -7.200  -3.303  1.00  0.00     0.011 A 
HETATM    2  C   UNL     1     -21.915  -7.069  -2.024  1.00  0.00     0.036 A 
HETATM    3  C   UNL     1     -21.616  -8.003  -1.022  1.00  0.00     0.071 A 
HETATM    4  C   UNL     1     -20.759  -9.067  -1.322  1.00  0.00     0.082 A 
HETATM    5  C   UNL     1     -20.203  -9.207  -2.594  1.00  0.00     0.038 A 
HETATM    6  C   UNL     1     -20.512  -8.276  -3.588  1.00  0.00     0.018 A 
ENDROOT
BRANCH   1   7
HETATM    7  C   UNL     1     -21.659  -6.217  -4.381  1.00  0.00     0.159 C 
HETATM    8  O   UNL     1     -22.795  -6.181  -4.850  1.00  0.00    -0.292 OA
BRANCH   7   9
HETATM    9  C   UNL     1     -20.530  -5.324  -4.871  1.00  0.00     0.084 C 
BRANCH   9  10
HETATM   10  C   UNL     1     -20.171  -5.616  -6.324  1.00  0.00     0.008 C 
BRANCH  10  11
HETATM   11  C   UNL     1     -20.220  -4.354  -7.184  1.00  0.00     0.000 C 
BRANCH  11  12
HETATM   12  C   UNL     1     -20.547  -4.695  -8.638  1.00  0.00     0.000 C 
BRANCH  12  13
HETATM   13  C   UNL     1     -21.878  -4.078  -9.069  1.00  0.00    -0.000 C 
BRANCH  13  14
HETATM   14  C   UNL     1     -22.111  -4.248 -10.570  1.00  0.00    -0.005 C 
HETATM   15  C   UNL     1     -21.146  -3.395 -11.378  1.00  0.00     0.005 C 
ENDBRANCH  13  14
ENDBRANCH  12  13
ENDBRANCH  11  12
ENDBRANCH  10  11
ENDBRANCH   9  10
ENDBRANCH   7   9
ENDBRANCH   1   7
BRANCH   3  16
HETATM   16  C   UNL     1     -22.308  -7.835   0.287  1.00  0.00     0.179 C 
HETATM   17  O   UNL     1     -21.726  -7.957   1.341  1.00  0.00    -0.646 OA
BRANCH  16  18
HETATM   18  O   UNL     1     -23.625  -7.551   0.208  1.00  0.00    -0.773 OA
HETATM   19  H   UNL     1     -23.932  -6.894   0.869  1.00  0.00     0.167 HD
ENDBRANCH  16  18
ENDBRANCH   3  16
BRANCH   4  20
HETATM   20  O   UNL     1     -20.437 -10.006  -0.382  1.00  0.00    -0.360 OA
HETATM   21  H   UNL     1     -19.460 -10.054  -0.360  1.00  0.00     0.217 HD
ENDBRANCH   4  20
TORSDOF 10
ENDMDL
