MODEL 1
REMARK VINA RESULT:      -5.9      0.000      0.000
REMARK  2 active torsions:
REMARK  status: ('A' for Active; 'I' for Inactive)
REMARK    1  A    between atoms: C_3  and  C_8 
REMARK    2  A    between atoms: C_8  and  O_10 
ROOT
HETATM    1  C   UNL     1     -22.240  -3.638 -11.062  1.00  0.00     0.018 A 
HETATM    2  C   UNL     1     -22.068  -3.276 -12.398  1.00  0.00     0.021 A 
HETATM    3  C   UNL     1     -23.189  -2.948 -13.164  1.00  0.00     0.053 A 
HETATM    4  C   UNL     1     -24.439  -3.026 -12.563  1.00  0.00     0.105 A 
HETATM    5  N   UNL     1     -24.629  -3.370 -11.265  1.00  0.00    -0.374 N 
ATOM      6  HN  UNL     1     -25.561  -3.400 -10.852  1.00  0.00     0.164 HD
HETATM    7  C   UNL     1     -23.526  -3.669 -10.544  1.00  0.00     0.087 A 
ENDROOT
BRANCH   3   8
HETATM    8  C   UNL     1     -23.124  -2.571 -14.590  1.00  0.00     0.177 C 
HETATM    9  O   UNL     1     -23.873  -1.751 -15.090  1.00  0.00    -0.646 OA
BRANCH   8  10
HETATM   10  O   UNL     1     -22.142  -3.187 -15.281  1.00  0.00    -0.773 OA
HETATM   11  H   UNL     1     -21.948  -4.105 -15.014  1.00  0.00     0.167 HD
ENDBRANCH   8  10
ENDBRANCH   3   8
TORSDOF 2
ENDMDL
MODEL 2
REMARK VINA RESULT:      -5.7      3.334      4.154
REMARK  2 active torsions:
REMARK  status: ('A' for Active; 'I' for Inactive)
REMARK    1  A    between atoms: C_3  and  C_8 
REMARK    2  A    between atoms: C_8  and  O_10 
ROOT
HETATM    1  C   UNL     1     -20.587  -4.322 -10.009  1.00  0.00     0.018 A 
HETATM    2  C   UNL     1     -21.863  -4.250  -9.450  1.00  0.00     0.021 A 
HETATM    3  C   UNL     1     -22.897  -3.667 -10.185  1.00  0.00     0.053 A 
HETATM    4  C   UNL     1     -22.599  -3.155 -11.442  1.00  0.00     0.105 A 
HETATM    5  N   UNL     1     -21.369  -3.219 -12.008  1.00  0.00    -0.374 N 
ATOM      6  HN  UNL     1     -21.191  -2.847 -12.941  1.00  0.00     0.164 HD
HETATM    7  C   UNL     1     -20.391  -3.799 -11.279  1.00  0.00     0.087 A 
ENDROOT
BRANCH   3   8
HETATM    8  C   UNL     1     -24.277  -3.522  -9.683  1.00  0.00     0.177 C 
HETATM    9  O   UNL     1     -25.210  -3.205 -10.399  1.00  0.00    -0.646 OA
BRANCH   8  10
HETATM   10  O   UNL     1     -24.422  -3.803  -8.370  1.00  0.00    -0.773 OA
HETATM   11  H   UNL     1     -24.474  -3.031  -7.776  1.00  0.00     0.167 HD
ENDBRANCH   8  10
ENDBRANCH   3   8
TORSDOF 2
ENDMDL
MODEL 3
REMARK VINA RESULT:      -5.6      1.624      2.056
REMARK  2 active torsions:
REMARK  status: ('A' for Active; 'I' for Inactive)
REMARK    1  A    between atoms: C_3  and  C_8 
REMARK    2  A    between atoms: C_8  and  O_10 
ROOT
HETATM    1  C   UNL     1     -22.223  -4.299  -9.260  1.00  0.00     0.018 A 
HETATM    2  C   UNL     1     -22.209  -4.016 -10.626  1.00  0.00     0.021 A 
HETATM    3  C   UNL     1     -23.354  -3.483 -11.223  1.00  0.00     0.053 A 
HETATM    4  C   UNL     1     -24.475  -3.285 -10.427  1.00  0.00     0.105 A 
HETATM    5  N   UNL     1     -24.509  -3.547  -9.097  1.00  0.00    -0.374 N 
ATOM      6  HN  UNL     1     -25.346  -3.372  -8.540  1.00  0.00     0.164 HD
HETATM    7  C   UNL     1     -23.384  -4.049  -8.544  1.00  0.00     0.087 A 
ENDROOT
BRANCH   3   8
HETATM    8  C   UNL     1     -23.454  -3.165 -12.661  1.00  0.00     0.177 C 
HETATM    9  O   UNL     1     -24.484  -2.771 -13.178  1.00  0.00    -0.646 OA
BRANCH   8  10
HETATM   10  O   UNL     1     -22.300  -3.318 -13.344  1.00  0.00    -0.773 OA
HETATM   11  H   UNL     1     -21.858  -2.493 -13.617  1.00  0.00     0.167 HD
ENDBRANCH   8  10
ENDBRANCH   3   8
TORSDOF 2
ENDMDL
MODEL 4
REMARK VINA RESULT:      -5.4      1.161      1.999
REMARK  2 active torsions:
REMARK  status: ('A' for Active; 'I' for Inactive)
REMARK    1  A    between atoms: C_3  and  C_8 
REMARK    2  A    between atoms: C_8  and  O_10 
ROOT
HETATM    1  C   UNL     1     -24.210  -3.627 -10.661  1.00  0.00     0.018 A 
HETATM    2  C   UNL     1     -24.412  -3.108 -11.940  1.00  0.00     0.021 A 
HETATM    3  C   UNL     1     -23.313  -2.925 -12.782  1.00  0.00     0.053 A 
HETATM    4  C   UNL     1     -22.052  -3.243 -12.292  1.00  0.00     0.105 A 
HETATM    5  N   UNL     1     -21.833  -3.755 -11.056  1.00  0.00    -0.374 N 
ATOM      6  HN  UNL     1     -20.894  -3.993 -10.736  1.00  0.00     0.164 HD
HETATM    7  C   UNL     1     -22.915  -3.934 -10.268  1.00  0.00     0.087 A 
ENDROOT
BRANCH   3   8
HETATM    8  C   UNL     1     -23.410  -2.365 -14.144  1.00  0.00     0.177 C 
HETATM    9  O   UNL     1     -22.726  -2.762 -15.071  1.00  0.00    -0.646 OA
BRANCH   8  10
HETATM   10  O   UNL     1     -24.345  -1.401 -14.282  1.00  0.00    -0.773 OA
HETATM   11  H   UNL     1     -25.272  -1.703 -14.249  1.00  0.00     0.167 HD
ENDBRANCH   8  10
ENDBRANCH   3   8
TORSDOF 2
ENDMDL
MODEL 5
REMARK VINA RESULT:      -5.4      2.653      3.404
REMARK  2 active torsions:
REMARK  status: ('A' for Active; 'I' for Inactive)
REMARK    1  A    between atoms: C_3  and  C_8 
REMARK    2  A    between atoms: C_8  and  O_10 
ROOT
HETATM    1  C   UNL     1     -20.503  -3.997 -11.022  1.00  0.00     0.018 A 
HETATM    2  C   UNL     1     -21.728  -3.570 -11.534  1.00  0.00     0.021 A 
HETATM    3  C   UNL     1     -22.845  -3.546 -10.697  1.00  0.00     0.053 A 
HETATM    4  C   UNL     1     -22.691  -3.981  -9.387  1.00  0.00     0.105 A 
HETATM    5  N   UNL     1     -21.510  -4.395  -8.866  1.00  0.00    -0.374 N 
ATOM      6  HN  UNL     1     -21.431  -4.692  -7.893  1.00  0.00     0.164 HD
HETATM    7  C   UNL     1     -20.443  -4.395  -9.694  1.00  0.00     0.087 A 
ENDROOT
BRANCH   3   8
HETATM    8  C   UNL     1     -24.191  -3.132 -11.141  1.00  0.00     0.177 C 
HETATM    9  O   UNL     1     -25.192  -3.315 -10.471  1.00  0.00    -0.646 OA
BRANCH   8  10
HETATM   10  O   UNL     1     -24.211  -2.503 -12.335  1.00  0.00    -0.773 OA
HETATM   11  H   UNL     1     -25.033  -2.021 -12.545  1.00  0.00     0.167 HD
ENDBRANCH   8  10
ENDBRANCH   3   8
TORSDOF 2
ENDMDL
MODEL 6
REMARK VINA RESULT:      -5.3      3.603      4.475
REMARK  2 active torsions:
REMARK  status: ('A' for Active; 'I' for Inactive)
REMARK    1  A    between atoms: C_3  and  C_8 
REMARK    2  A    between atoms: C_8  and  O_10 
ROOT
HETATM    1  C   UNL     1     -22.371  -2.996 -12.231  1.00  0.00     0.018 A 
HETATM    2  C   UNL     1     -22.023  -3.345 -10.927  1.00  0.00     0.021 A 
HETATM    3  C   UNL     1     -23.031  -3.653 -10.011  1.00  0.00     0.053 A 
HETATM    4  C   UNL     1     -24.351  -3.568 -10.438  1.00  0.00     0.105 A 
HETATM    5  N   UNL     1     -24.713  -3.237 -11.702  1.00  0.00    -0.374 N 
ATOM      6  HN  UNL     1     -25.692  -3.202 -11.984  1.00  0.00     0.164 HD
HETATM    7  C   UNL     1     -23.716  -2.957 -12.569  1.00  0.00     0.087 A 
ENDROOT
BRANCH   3   8
HETATM    8  C   UNL     1     -22.776  -4.015  -8.603  1.00  0.00     0.177 C 
HETATM    9  O   UNL     1     -21.654  -4.185  -8.160  1.00  0.00    -0.646 OA
BRANCH   8  10
HETATM   10  O   UNL     1     -23.888  -4.108  -7.844  1.00  0.00    -0.773 OA
HETATM   11  H   UNL     1     -24.312  -3.261  -7.610  1.00  0.00     0.167 HD
ENDBRANCH   8  10
ENDBRANCH   3   8
TORSDOF 2
ENDMDL
MODEL 7
REMARK VINA RESULT:      -5.3      3.202      4.205
REMARK  2 active torsions:
REMARK  status: ('A' for Active; 'I' for Inactive)
REMARK    1  A    between atoms: C_3  and  C_8 
REMARK    2  A    between atoms: C_8  and  O_10 
ROOT
HETATM    1  C   UNL     1     -23.908  -2.836 -13.479  1.00  0.00     0.018 A 
HETATM    2  C   UNL     1     -24.570  -2.964 -12.258  1.00  0.00     0.021 A 
HETATM    3  C   UNL     1     -23.852  -3.382 -11.135  1.00  0.00     0.053 A 
HETATM    4  C   UNL     1     -22.505  -3.681 -11.293  1.00  0.00     0.105 A 
HETATM    5  N   UNL     1     -21.840  -3.558 -12.467  1.00  0.00    -0.374 N 
ATOM      6  HN  UNL     1     -20.845  -3.771 -12.542  1.00  0.00     0.164 HD
HETATM    7  C   UNL     1     -22.555  -3.140 -13.534  1.00  0.00     0.087 A 
ENDROOT
BRANCH   3   8
HETATM    8  C   UNL     1     -24.457  -3.569  -9.801  1.00  0.00     0.177 C 
HETATM    9  O   UNL     1     -23.818  -3.945  -8.835  1.00  0.00    -0.646 OA
BRANCH   8  10
HETATM   10  O   UNL     1     -25.769  -3.257  -9.739  1.00  0.00    -0.773 OA
HETATM   11  H   UNL     1     -25.978  -2.387  -9.350  1.00  0.00     0.167 HD
ENDBRANCH   8  10
ENDBRANCH   3   8
TORSDOF 2
ENDMDL
MODEL 8
REMARK VINA RESULT:      -5.1     16.157     16.721
REMARK  2 active torsions:
REMARK  status: ('A' for Active; 'I' for Inactive)
REMARK    1  A    between atoms: C_3  and  C_8 
REMARK    2  A    between atoms: C_8  and  O_10 
ROOT
HETATM    1  C   UNL     1     -31.553 -15.485 -22.736  1.00  0.00     0.018 A 
HETATM    2  C   UNL     1     -31.354 -14.652 -21.635  1.00  0.00     0.021 A 
HETATM    3  C   UNL     1     -30.539 -15.090 -20.588  1.00  0.00     0.053 A 
HETATM    4  C   UNL     1     -29.982 -16.359 -20.679  1.00  0.00     0.105 A 
HETATM    5  N   UNL     1     -30.156 -17.182 -21.742  1.00  0.00    -0.374 N 
ATOM      6  HN  UNL     1     -29.716 -18.102 -21.782  1.00  0.00     0.164 HD
HETATM    7  C   UNL     1     -30.938 -16.728 -22.745  1.00  0.00     0.087 A 
ENDROOT
BRANCH   3   8
HETATM    8  C   UNL     1     -30.278 -14.299 -19.370  1.00  0.00     0.177 C 
HETATM    9  O   UNL     1     -29.513 -13.351 -19.350  1.00  0.00    -0.646 OA
BRANCH   8  10
HETATM   10  O   UNL     1     -30.983 -14.696 -18.289  1.00  0.00    -0.773 OA
HETATM   11  H   UNL     1     -31.775 -15.234 -18.476  1.00  0.00     0.167 HD
ENDBRANCH   8  10
ENDBRANCH   3   8
TORSDOF 2
ENDMDL
MODEL 9
REMARK VINA RESULT:      -5.1     10.738     11.582
REMARK  2 active torsions:
REMARK  status: ('A' for Active; 'I' for Inactive)
REMARK    1  A    between atoms: C_3  and  C_8 
REMARK    2  A    between atoms: C_8  and  O_10 
ROOT
HETATM    1  C   UNL     1     -33.109  -3.351 -11.085  1.00  0.00     0.018 A 
HETATM    2  C   UNL     1     -33.975  -2.261 -11.167  1.00  0.00     0.021 A 
HETATM    3  C   UNL     1     -34.722  -2.071 -12.332  1.00  0.00     0.053 A 
HETATM    4  C   UNL     1     -34.545  -2.968 -13.377  1.00  0.00     0.105 A 
HETATM    5  N   UNL     1     -33.714  -4.038 -13.318  1.00  0.00    -0.374 N 
ATOM      6  HN  UNL     1     -33.622  -4.687 -14.100  1.00  0.00     0.164 HD
HETATM    7  C   UNL     1     -33.014  -4.205 -12.175  1.00  0.00     0.087 A 
ENDROOT
BRANCH   3   8
HETATM    8  C   UNL     1     -35.651  -0.942 -12.532  1.00  0.00     0.177 C 
HETATM    9  O   UNL     1     -36.679  -1.040 -13.179  1.00  0.00    -0.646 OA
BRANCH   8  10
HETATM   10  O   UNL     1     -35.282   0.197 -11.910  1.00  0.00    -0.773 OA
HETATM   11  H   UNL     1     -35.191   0.982 -12.483  1.00  0.00     0.167 HD
ENDBRANCH   8  10
ENDBRANCH   3   8
TORSDOF 2
ENDMDL
