MODEL 1
REMARK VINA RESULT:      -5.0      0.000      0.000
REMARK  5 active torsions:
REMARK  status: ('A' for Active; 'I' for Inactive)
REMARK    1  A    between atoms: CB_2  and  CA_3 
REMARK    2  A    between atoms: CB_2  and  OG1_8 
REMARK    3  A    between atoms: CA_3  and  C_4 
REMARK    4  A    between atoms: CA_3  and  N_7 
REMARK    5  A    between atoms: C_4  and  OXT_6 
ROOT
ATOM      1  CA  THR A   1     -29.435 -14.714 -20.726  1.00  0.00     0.342 C 
ENDROOT
BRANCH   1   2
ATOM      2  CB  THR A   1     -29.486 -14.020 -19.349  1.00  0.00     0.157 C 
ATOM      3  CG2 THR A   1     -28.898 -14.881 -18.234  1.00  0.00     0.042 C 
BRANCH   2   4
ATOM      4  OG1 THR A   1     -30.864 -13.694 -19.050  1.00  0.00    -0.393 OA
ATOM      5  HG1 THR A   1     -31.351 -14.536 -18.949  1.00  0.00     0.210 HD
ENDBRANCH   2   4
ENDBRANCH   1   2
BRANCH   1   6
ATOM      6  C   THR A   1     -30.856 -14.983 -21.238  1.00  0.00     0.176 C 
ATOM      7  O   THR A   1     -31.538 -14.161 -21.839  1.00  0.00    -0.648 OA
BRANCH   6   8
ATOM      8  OXT THR A   1     -31.324 -16.217 -20.917  1.00  0.00    -0.775 OA
ATOM      9  HXT THR A   1     -30.605 -16.883 -21.032  1.00  0.00     0.167 HD
ENDBRANCH   6   8
ENDBRANCH   1   6
BRANCH   1  10
ATOM     10  N   THR A   1     -28.706 -13.882 -21.715  1.00  0.00     0.095 N 
ATOM     11  H1  THR A   1     -28.870 -12.894 -21.523  1.00  0.00     0.314 HD
ATOM     12  H2  THR A   1     -29.089 -14.064 -22.645  1.00  0.00     0.314 HD
ENDBRANCH   1  10
TORSDOF 5
ENDMDL
MODEL 2
REMARK VINA RESULT:      -4.8     15.003     15.269
REMARK  5 active torsions:
REMARK  status: ('A' for Active; 'I' for Inactive)
REMARK    1  A    between atoms: CB_2  and  CA_3 
REMARK    2  A    between atoms: CB_2  and  OG1_8 
REMARK    3  A    between atoms: CA_3  and  C_4 
REMARK    4  A    between atoms: CA_3  and  N_7 
REMARK    5  A    between atoms: C_4  and  OXT_6 
ROOT
ATOM      1  CA  THR A   1     -23.171  -3.477 -13.252  1.00  0.00     0.342 C 
ENDROOT
BRANCH   1   2
ATOM      2  CB  THR A   1     -24.088  -2.855 -12.179  1.00  0.00     0.157 C 
ATOM      3  CG2 THR A   1     -23.983  -3.566 -10.832  1.00  0.00     0.042 C 
BRANCH   2   4
ATOM      4  OG1 THR A   1     -25.452  -2.900 -12.659  1.00  0.00    -0.393 OA
ATOM      5  HG1 THR A   1     -26.029  -2.577 -11.939  1.00  0.00     0.210 HD
ENDBRANCH   2   4
ENDBRANCH   1   2
BRANCH   1   6
ATOM      6  C   THR A   1     -23.151  -2.596 -14.508  1.00  0.00     0.176 C 
ATOM      7  O   THR A   1     -23.931  -1.674 -14.715  1.00  0.00    -0.648 OA
BRANCH   6   8
ATOM      8  OXT THR A   1     -22.209  -2.965 -15.415  1.00  0.00    -0.775 OA
ATOM      9  HXT THR A   1     -21.827  -2.161 -15.841  1.00  0.00     0.167 HD
ENDBRANCH   6   8
ENDBRANCH   1   6
BRANCH   1  10
ATOM     10  N   THR A   1     -21.786  -3.636 -12.742  1.00  0.00     0.095 N 
ATOM     11  H1  THR A   1     -21.568  -4.627 -12.638  1.00  0.00     0.314 HD
ATOM     12  H2  THR A   1     -21.729  -3.226 -11.808  1.00  0.00     0.314 HD
ENDBRANCH   1  10
TORSDOF 5
ENDMDL
MODEL 3
REMARK VINA RESULT:      -4.6     15.373     15.971
REMARK  5 active torsions:
REMARK  status: ('A' for Active; 'I' for Inactive)
REMARK    1  A    between atoms: CB_2  and  CA_3 
REMARK    2  A    between atoms: CB_2  and  OG1_8 
REMARK    3  A    between atoms: CA_3  and  C_4 
REMARK    4  A    between atoms: CA_3  and  N_7 
REMARK    5  A    between atoms: C_4  and  OXT_6 
ROOT
ATOM      1  CA  THR A   1     -22.843  -3.657 -12.283  1.00  0.00     0.342 C 
ENDROOT
BRANCH   1   2
ATOM      2  CB  THR A   1     -21.948  -3.195 -11.115  1.00  0.00     0.157 C 
ATOM      3  CG2 THR A   1     -20.556  -3.820 -11.156  1.00  0.00     0.042 C 
BRANCH   2   4
ATOM      4  OG1 THR A   1     -22.607  -3.532  -9.871  1.00  0.00    -0.393 OA
ATOM      5  HG1 THR A   1     -23.045  -4.397  -9.995  1.00  0.00     0.210 HD
ENDBRANCH   2   4
ENDBRANCH   1   2
BRANCH   1   6
ATOM      6  C   THR A   1     -24.228  -3.006 -12.181  1.00  0.00     0.176 C 
ATOM      7  O   THR A   1     -24.995  -3.163 -11.238  1.00  0.00    -0.648 OA
BRANCH   6   8
ATOM      8  OXT THR A   1     -24.562  -2.267 -13.271  1.00  0.00    -0.775 OA
ATOM      9  HXT THR A   1     -24.978  -2.849 -13.950  1.00  0.00     0.167 HD
ENDBRANCH   6   8
ENDBRANCH   1   6
BRANCH   1  10
ATOM     10  N   THR A   1     -22.233  -3.310 -13.591  1.00  0.00     0.095 N 
ATOM     11  H1  THR A   1     -21.338  -2.844 -13.442  1.00  0.00     0.314 HD
ATOM     12  H2  THR A   1     -22.835  -2.637 -14.068  1.00  0.00     0.314 HD
ENDBRANCH   1  10
TORSDOF 5
ENDMDL
MODEL 4
REMARK VINA RESULT:      -4.4     15.257     15.774
REMARK  5 active torsions:
REMARK  status: ('A' for Active; 'I' for Inactive)
REMARK    1  A    between atoms: CB_2  and  CA_3 
REMARK    2  A    between atoms: CB_2  and  OG1_8 
REMARK    3  A    between atoms: CA_3  and  C_4 
REMARK    4  A    between atoms: CA_3  and  N_7 
REMARK    5  A    between atoms: C_4  and  OXT_6 
ROOT
ATOM      1  CA  THR A   1     -24.007  -3.358 -10.641  1.00  0.00     0.342 C 
ENDROOT
BRANCH   1   2
ATOM      2  CB  THR A   1     -23.078  -4.589 -10.631  1.00  0.00     0.157 C 
ATOM      3  CG2 THR A   1     -21.797  -4.354  -9.836  1.00  0.00     0.042 C 
BRANCH   2   4
ATOM      4  OG1 THR A   1     -22.756  -4.932 -12.000  1.00  0.00    -0.393 OA
ATOM      5  HG1 THR A   1     -23.420  -5.582 -12.305  1.00  0.00     0.210 HD
ENDBRANCH   2   4
ENDBRANCH   1   2
BRANCH   1   6
ATOM      6  C   THR A   1     -24.278  -2.909 -12.083  1.00  0.00     0.176 C 
ATOM      7  O   THR A   1     -25.255  -3.251 -12.738  1.00  0.00    -0.648 OA
BRANCH   6   8
ATOM      8  OXT THR A   1     -23.298  -2.124 -12.600  1.00  0.00    -0.775 OA
ATOM      9  HXT THR A   1     -22.505  -2.155 -12.013  1.00  0.00     0.167 HD
ENDBRANCH   6   8
ENDBRANCH   1   6
BRANCH   1  10
ATOM     10  N   THR A   1     -25.296  -3.658  -9.970  1.00  0.00     0.095 N 
ATOM     11  H1  THR A   1     -25.216  -3.474  -8.970  1.00  0.00     0.314 HD
ATOM     12  H2  THR A   1     -25.494  -4.656 -10.066  1.00  0.00     0.314 HD
ENDBRANCH   1  10
TORSDOF 5
ENDMDL
MODEL 5
REMARK VINA RESULT:      -4.4     15.924     16.347
REMARK  5 active torsions:
REMARK  status: ('A' for Active; 'I' for Inactive)
REMARK    1  A    between atoms: CB_2  and  CA_3 
REMARK    2  A    between atoms: CB_2  and  OG1_8 
REMARK    3  A    between atoms: CA_3  and  C_4 
REMARK    4  A    between atoms: CA_3  and  N_7 
REMARK    5  A    between atoms: C_4  and  OXT_6 
ROOT
ATOM      1  CA  THR A   1     -22.986  -3.418  -9.887  1.00  0.00     0.342 C 
ENDROOT
BRANCH   1   2
ATOM      2  CB  THR A   1     -22.001  -4.299 -10.682  1.00  0.00     0.157 C 
ATOM      3  CG2 THR A   1     -20.736  -3.548 -11.089  1.00  0.00     0.042 C 
BRANCH   2   4
ATOM      4  OG1 THR A   1     -22.681  -4.800 -11.858  1.00  0.00    -0.393 OA
ATOM      5  HG1 THR A   1     -23.236  -5.554 -11.579  1.00  0.00     0.210 HD
ENDBRANCH   2   4
ENDBRANCH   1   2
BRANCH   1   6
ATOM      6  C   THR A   1     -24.428  -3.696 -10.334  1.00  0.00     0.176 C 
ATOM      7  O   THR A   1     -24.999  -3.089 -11.233  1.00  0.00    -0.648 OA
BRANCH   6   8
ATOM      8  OXT THR A   1     -25.048  -4.655  -9.600  1.00  0.00    -0.775 OA
ATOM      9  HXT THR A   1     -25.872  -4.943 -10.061  1.00  0.00     0.167 HD
ENDBRANCH   6   8
ENDBRANCH   1   6
BRANCH   1  10
ATOM     10  N   THR A   1     -22.868  -3.668  -8.429  1.00  0.00     0.095 N 
ATOM     11  H1  THR A   1     -22.562  -2.818  -7.957  1.00  0.00     0.314 HD
ATOM     12  H2  THR A   1     -22.138  -4.366  -8.273  1.00  0.00     0.314 HD
ENDBRANCH   1  10
TORSDOF 5
ENDMDL
MODEL 6
REMARK VINA RESULT:      -4.4     15.779     16.475
REMARK  5 active torsions:
REMARK  status: ('A' for Active; 'I' for Inactive)
REMARK    1  A    between atoms: CB_2  and  CA_3 
REMARK    2  A    between atoms: CB_2  and  OG1_8 
REMARK    3  A    between atoms: CA_3  and  C_4 
REMARK    4  A    between atoms: CA_3  and  N_7 
REMARK    5  A    between atoms: C_4  and  OXT_6 
ROOT
ATOM      1  CA  THR A   1     -23.484  -4.401 -10.084  1.00  0.00     0.342 C 
ENDROOT
BRANCH   1   2
ATOM      2  CB  THR A   1     -22.895  -3.854  -8.767  1.00  0.00     0.157 C 
ATOM      3  CG2 THR A   1     -21.517  -4.431  -8.455  1.00  0.00     0.042 C 
BRANCH   2   4
ATOM      4  OG1 THR A   1     -23.816  -4.158  -7.692  1.00  0.00    -0.393 OA
ATOM      5  HG1 THR A   1     -23.353  -3.981  -6.849  1.00  0.00     0.210 HD
ENDBRANCH   2   4
ENDBRANCH   1   2
BRANCH   1   6
ATOM      6  C   THR A   1     -24.580  -3.463 -10.605  1.00  0.00     0.176 C 
ATOM      7  O   THR A   1     -24.543  -2.899 -11.693  1.00  0.00    -0.648 OA
BRANCH   6   8
ATOM      8  OXT THR A   1     -25.591  -3.264  -9.721  1.00  0.00    -0.775 OA
ATOM      9  HXT THR A   1     -25.646  -4.032  -9.103  1.00  0.00     0.167 HD
ENDBRANCH   6   8
ENDBRANCH   1   6
BRANCH   1  10
ATOM     10  N   THR A   1     -22.430  -4.548 -11.119  1.00  0.00     0.095 N 
ATOM     11  H1  THR A   1     -22.792  -5.086 -11.905  1.00  0.00     0.314 HD
ATOM     12  H2  THR A   1     -21.657  -5.089 -10.727  1.00  0.00     0.314 HD
ENDBRANCH   1  10
TORSDOF 5
ENDMDL
MODEL 7
REMARK VINA RESULT:      -4.0     15.833     16.488
REMARK  5 active torsions:
REMARK  status: ('A' for Active; 'I' for Inactive)
REMARK    1  A    between atoms: CB_2  and  CA_3 
REMARK    2  A    between atoms: CB_2  and  OG1_8 
REMARK    3  A    between atoms: CA_3  and  C_4 
REMARK    4  A    between atoms: CA_3  and  N_7 
REMARK    5  A    between atoms: C_4  and  OXT_6 
ROOT
ATOM      1  CA  THR A   1     -24.333  -4.091 -10.283  1.00  0.00     0.342 C 
ENDROOT
BRANCH   1   2
ATOM      2  CB  THR A   1     -23.729  -3.059 -11.257  1.00  0.00     0.157 C 
ATOM      3  CG2 THR A   1     -24.514  -2.953 -12.562  1.00  0.00     0.042 C 
BRANCH   2   4
ATOM      4  OG1 THR A   1     -22.358  -3.434 -11.532  1.00  0.00    -0.393 OA
ATOM      5  HG1 THR A   1     -21.954  -3.712 -10.686  1.00  0.00     0.210 HD
ENDBRANCH   2   4
ENDBRANCH   1   2
BRANCH   1   6
ATOM      6  C   THR A   1     -23.377  -4.335  -9.108  1.00  0.00     0.176 C 
ATOM      7  O   THR A   1     -22.278  -4.867  -9.215  1.00  0.00    -0.648 OA
BRANCH   6   8
ATOM      8  OXT THR A   1     -23.882  -3.952  -7.908  1.00  0.00    -0.775 OA
ATOM      9  HXT THR A   1     -23.176  -3.512  -7.377  1.00  0.00     0.167 HD
ENDBRANCH   6   8
ENDBRANCH   1   6
BRANCH   1  10
ATOM     10  N   THR A   1     -25.643  -3.629  -9.761  1.00  0.00     0.095 N 
ATOM     11  H1  THR A   1     -25.856  -4.109  -8.887  1.00  0.00     0.314 HD
ATOM     12  H2  THR A   1     -26.374  -3.894 -10.424  1.00  0.00     0.314 HD
ENDBRANCH   1  10
TORSDOF 5
ENDMDL
MODEL 8
REMARK VINA RESULT:      -4.0     28.606     29.317
REMARK  5 active torsions:
REMARK  status: ('A' for Active; 'I' for Inactive)
REMARK    1  A    between atoms: CB_2  and  CA_3 
REMARK    2  A    between atoms: CB_2  and  OG1_8 
REMARK    3  A    between atoms: CA_3  and  C_4 
REMARK    4  A    between atoms: CA_3  and  N_7 
REMARK    5  A    between atoms: C_4  and  OXT_6 
ROOT
ATOM      1  CA  THR A   1      -9.848   6.427 -20.311  1.00  0.00     0.342 C 
ENDROOT
BRANCH   1   2
ATOM      2  CB  THR A   1     -10.202   7.928 -20.289  1.00  0.00     0.157 C 
ATOM      3  CG2 THR A   1      -9.155   8.790 -20.989  1.00  0.00     0.042 C 
BRANCH   2   4
ATOM      4  OG1 THR A   1     -10.348   8.345 -18.911  1.00  0.00    -0.393 OA
ATOM      5  HG1 THR A   1     -11.258   8.124 -18.631  1.00  0.00     0.210 HD
ENDBRANCH   2   4
ENDBRANCH   1   2
BRANCH   1   6
ATOM      6  C   THR A   1     -10.387   5.735 -19.052  1.00  0.00     0.176 C 
ATOM      7  O   THR A   1     -11.528   5.301 -18.941  1.00  0.00    -0.648 OA
BRANCH   6   8
ATOM      8  OXT THR A   1      -9.492   5.690 -18.032  1.00  0.00    -0.775 OA
ATOM      9  HXT THR A   1      -8.667   5.241 -18.335  1.00  0.00     0.167 HD
ENDBRANCH   6   8
ENDBRANCH   1   6
BRANCH   1  10
ATOM     10  N   THR A   1     -10.411   5.764 -21.514  1.00  0.00     0.095 N 
ATOM     11  H1  THR A   1     -10.777   6.467 -22.156  1.00  0.00     0.314 HD
ATOM     12  H2  THR A   1     -11.205   5.187 -21.231  1.00  0.00     0.314 HD
ENDBRANCH   1  10
TORSDOF 5
ENDMDL
MODEL 9
REMARK VINA RESULT:      -4.0     15.700     16.215
REMARK  5 active torsions:
REMARK  status: ('A' for Active; 'I' for Inactive)
REMARK    1  A    between atoms: CB_2  and  CA_3 
REMARK    2  A    between atoms: CB_2  and  OG1_8 
REMARK    3  A    between atoms: CA_3  and  C_4 
REMARK    4  A    between atoms: CA_3  and  N_7 
REMARK    5  A    between atoms: C_4  and  OXT_6 
ROOT
ATOM      1  CA  THR A   1     -24.025  -3.900 -11.112  1.00  0.00     0.342 C 
ENDROOT
BRANCH   1   2
ATOM      2  CB  THR A   1     -22.546  -3.467 -11.183  1.00  0.00     0.157 C 
ATOM      3  CG2 THR A   1     -22.067  -3.242 -12.615  1.00  0.00     0.042 C 
BRANCH   2   4
ATOM      4  OG1 THR A   1     -21.739  -4.484 -10.543  1.00  0.00    -0.393 OA
ATOM      5  HG1 THR A   1     -21.858  -5.314 -11.046  1.00  0.00     0.210 HD
ENDBRANCH   2   4
ENDBRANCH   1   2
BRANCH   1   6
ATOM      6  C   THR A   1     -24.590  -3.634  -9.710  1.00  0.00     0.176 C 
ATOM      7  O   THR A   1     -23.966  -3.816  -8.671  1.00  0.00    -0.648 OA
BRANCH   6   8
ATOM      8  OXT THR A   1     -25.883  -3.221  -9.716  1.00  0.00    -0.775 OA
ATOM      9  HXT THR A   1     -25.944  -2.332 -10.143  1.00  0.00     0.167 HD
ENDBRANCH   6   8
ENDBRANCH   1   6
BRANCH   1  10
ATOM     10  N   THR A   1     -24.842  -3.174 -12.116  1.00  0.00     0.095 N 
ATOM     11  H1  THR A   1     -24.494  -3.374 -13.054  1.00  0.00     0.314 HD
ATOM     12  H2  THR A   1     -24.725  -2.169 -11.972  1.00  0.00     0.314 HD
ENDBRANCH   1  10
TORSDOF 5
ENDMDL
