MODEL 1
REMARK VINA RESULT:      -1.3      0.000      0.000
REMARK  12 active torsions:
REMARK  status: ('A' for Active; 'I' for Inactive)
REMARK    1  A    between atoms: C_2  and  N_3 
REMARK    2  A    between atoms: N_3  and  C_4 
REMARK    3  A    between atoms: N_3  and  C_15 
REMARK    4  A    between atoms: C_4  and  C_5 
REMARK    5  A    between atoms: C_7  and  S_11 
REMARK    6  A    between atoms: C_18  and  C_21 
REMARK    7  A    between atoms: C_21  and  C_42 
REMARK    8  A    between atoms: N_26  and  C_27 
REMARK    9  A    between atoms: N_26  and  C_29 
REMARK   10  A    between atoms: C_29  and  C_30 
REMARK   11  A    between atoms: C_32  and  S_36 
REMARK   12  A    between atoms: C_47  and  S_48 
ROOT
HETATM    1  H   UNL     1     -23.873   0.566 -15.230  1.00  0.00     0.271 HD
HETATM    2  H   UNL     1     -25.391   0.061 -14.736  1.00  0.00     0.271 HD
HETATM    3  H   UNL     1     -24.048  -0.843 -14.325  1.00  0.00     0.271 HD
HETATM    4  H   UNL     1     -24.552  -0.807 -15.913  1.00  0.00     0.271 HD
HETATM    5  N   UNL     2     -24.467  -0.252 -15.052  1.00  0.00    -0.084 N 
ENDROOT
TORSDOF 12
ENDMDL
MODEL 2
REMARK VINA RESULT:      -1.2     13.500     13.500
REMARK  12 active torsions:
REMARK  status: ('A' for Active; 'I' for Inactive)
REMARK    1  A    between atoms: C_2  and  N_3 
REMARK    2  A    between atoms: N_3  and  C_4 
REMARK    3  A    between atoms: N_3  and  C_15 
REMARK    4  A    between atoms: C_4  and  C_5 
REMARK    5  A    between atoms: C_7  and  S_11 
REMARK    6  A    between atoms: C_18  and  C_21 
REMARK    7  A    between atoms: C_21  and  C_42 
REMARK    8  A    between atoms: N_26  and  C_27 
REMARK    9  A    between atoms: N_26  and  C_29 
REMARK   10  A    between atoms: C_29  and  C_30 
REMARK   11  A    between atoms: C_32  and  S_36 
REMARK   12  A    between atoms: C_47  and  S_48 
ROOT
HETATM    1  H   UNL     1     -32.519  -9.197 -10.592  1.00  0.00     0.271 HD
HETATM    2  H   UNL     1     -33.415  -8.575  -9.321  1.00  0.00     0.271 HD
HETATM    3  H   UNL     1     -33.905  -9.990 -10.059  1.00  0.00     0.271 HD
HETATM    4  H   UNL     1     -34.038  -8.551 -10.887  1.00  0.00     0.271 HD
HETATM    5  N   UNL     2     -33.466  -9.076 -10.214  1.00  0.00    -0.084 N 
ENDROOT
TORSDOF 12
ENDMDL
MODEL 3
REMARK VINA RESULT:      -1.1      7.788      7.788
REMARK  12 active torsions:
REMARK  status: ('A' for Active; 'I' for Inactive)
REMARK    1  A    between atoms: C_2  and  N_3 
REMARK    2  A    between atoms: N_3  and  C_4 
REMARK    3  A    between atoms: N_3  and  C_15 
REMARK    4  A    between atoms: C_4  and  C_5 
REMARK    5  A    between atoms: C_7  and  S_11 
REMARK    6  A    between atoms: C_18  and  C_21 
REMARK    7  A    between atoms: C_21  and  C_42 
REMARK    8  A    between atoms: N_26  and  C_27 
REMARK    9  A    between atoms: N_26  and  C_29 
REMARK   10  A    between atoms: C_29  and  C_30 
REMARK   11  A    between atoms: C_32  and  S_36 
REMARK   12  A    between atoms: C_47  and  S_48 
ROOT
HETATM    1  H   UNL     1     -24.245  -6.870 -17.544  1.00  0.00     0.271 HD
HETATM    2  H   UNL     1     -25.041  -8.306 -17.216  1.00  0.00     0.271 HD
HETATM    3  H   UNL     1     -24.059  -7.623 -16.051  1.00  0.00     0.271 HD
HETATM    4  H   UNL     1     -23.366  -8.292 -17.410  1.00  0.00     0.271 HD
HETATM    5  N   UNL     2     -24.180  -7.771 -17.058  1.00  0.00    -0.084 N 
ENDROOT
TORSDOF 12
ENDMDL
MODEL 4
REMARK VINA RESULT:      -1.1      9.473      9.473
REMARK  12 active torsions:
REMARK  status: ('A' for Active; 'I' for Inactive)
REMARK    1  A    between atoms: C_2  and  N_3 
REMARK    2  A    between atoms: N_3  and  C_4 
REMARK    3  A    between atoms: N_3  and  C_15 
REMARK    4  A    between atoms: C_4  and  C_5 
REMARK    5  A    between atoms: C_7  and  S_11 
REMARK    6  A    between atoms: C_18  and  C_21 
REMARK    7  A    between atoms: C_21  and  C_42 
REMARK    8  A    between atoms: N_26  and  C_27 
REMARK    9  A    between atoms: N_26  and  C_29 
REMARK   10  A    between atoms: C_29  and  C_30 
REMARK   11  A    between atoms: C_32  and  S_36 
REMARK   12  A    between atoms: C_47  and  S_48 
ROOT
HETATM    1  H   UNL     1     -32.484  -3.733 -16.871  1.00  0.00     0.271 HD
HETATM    2  H   UNL     1     -32.787  -2.241 -17.571  1.00  0.00     0.271 HD
HETATM    3  H   UNL     1     -34.052  -3.124 -16.930  1.00  0.00     0.271 HD
HETATM    4  H   UNL     1     -33.314  -3.654 -18.326  1.00  0.00     0.271 HD
HETATM    5  N   UNL     2     -33.156  -3.188 -17.424  1.00  0.00    -0.084 N 
ENDROOT
TORSDOF 12
ENDMDL
MODEL 5
REMARK VINA RESULT:      -1.1      6.392      6.392
REMARK  12 active torsions:
REMARK  status: ('A' for Active; 'I' for Inactive)
REMARK    1  A    between atoms: C_2  and  N_3 
REMARK    2  A    between atoms: N_3  and  C_4 
REMARK    3  A    between atoms: N_3  and  C_15 
REMARK    4  A    between atoms: C_4  and  C_5 
REMARK    5  A    between atoms: C_7  and  S_11 
REMARK    6  A    between atoms: C_18  and  C_21 
REMARK    7  A    between atoms: C_21  and  C_42 
REMARK    8  A    between atoms: N_26  and  C_27 
REMARK    9  A    between atoms: N_26  and  C_29 
REMARK   10  A    between atoms: C_29  and  C_30 
REMARK   11  A    between atoms: C_32  and  S_36 
REMARK   12  A    between atoms: C_47  and  S_48 
ROOT
HETATM    1  H   UNL     1     -24.844  -4.355  -9.920  1.00  0.00     0.271 HD
HETATM    2  H   UNL     1     -25.153  -2.723 -10.135  1.00  0.00     0.271 HD
HETATM    3  H   UNL     1     -25.533  -3.450  -8.680  1.00  0.00     0.271 HD
HETATM    4  H   UNL     1     -26.429  -3.821 -10.035  1.00  0.00     0.271 HD
HETATM    5  N   UNL     2     -25.487  -3.588  -9.695  1.00  0.00    -0.084 N 
ENDROOT
TORSDOF 12
ENDMDL
MODEL 6
REMARK VINA RESULT:      -1.0     10.416     10.416
REMARK  12 active torsions:
REMARK  status: ('A' for Active; 'I' for Inactive)
REMARK    1  A    between atoms: C_2  and  N_3 
REMARK    2  A    between atoms: N_3  and  C_4 
REMARK    3  A    between atoms: N_3  and  C_15 
REMARK    4  A    between atoms: C_4  and  C_5 
REMARK    5  A    between atoms: C_7  and  S_11 
REMARK    6  A    between atoms: C_18  and  C_21 
REMARK    7  A    between atoms: C_21  and  C_42 
REMARK    8  A    between atoms: N_26  and  C_27 
REMARK    9  A    between atoms: N_26  and  C_29 
REMARK   10  A    between atoms: C_29  and  C_30 
REMARK   11  A    between atoms: C_32  and  S_36 
REMARK   12  A    between atoms: C_47  and  S_48 
ROOT
HETATM    1  H   UNL     1     -28.895  -7.755 -18.982  1.00  0.00     0.271 HD
HETATM    2  H   UNL     1     -29.694  -8.667 -17.826  1.00  0.00     0.271 HD
HETATM    3  H   UNL     1     -29.290  -9.362 -19.290  1.00  0.00     0.271 HD
HETATM    4  H   UNL     1     -30.489  -8.207 -19.240  1.00  0.00     0.271 HD
HETATM    5  N   UNL     2     -29.591  -8.495 -18.832  1.00  0.00    -0.084 N 
ENDROOT
TORSDOF 12
ENDMDL
MODEL 7
REMARK VINA RESULT:      -1.0      7.721      7.721
REMARK  12 active torsions:
REMARK  status: ('A' for Active; 'I' for Inactive)
REMARK    1  A    between atoms: C_2  and  N_3 
REMARK    2  A    between atoms: N_3  and  C_4 
REMARK    3  A    between atoms: N_3  and  C_15 
REMARK    4  A    between atoms: C_4  and  C_5 
REMARK    5  A    between atoms: C_7  and  S_11 
REMARK    6  A    between atoms: C_18  and  C_21 
REMARK    7  A    between atoms: C_21  and  C_42 
REMARK    8  A    between atoms: N_26  and  C_27 
REMARK    9  A    between atoms: N_26  and  C_29 
REMARK   10  A    between atoms: C_29  and  C_30 
REMARK   11  A    between atoms: C_32  and  S_36 
REMARK   12  A    between atoms: C_47  and  S_48 
ROOT
HETATM    1  H   UNL     1     -24.389  -3.627  -9.189  1.00  0.00     0.271 HD
HETATM    2  H   UNL     1     -24.803  -4.168  -7.659  1.00  0.00     0.271 HD
HETATM    3  H   UNL     1     -23.453  -3.204  -7.855  1.00  0.00     0.271 HD
HETATM    4  H   UNL     1     -23.427  -4.769  -8.426  1.00  0.00     0.271 HD
HETATM    5  N   UNL     2     -24.021  -3.943  -8.284  1.00  0.00    -0.084 N 
ENDROOT
TORSDOF 12
ENDMDL
MODEL 8
REMARK VINA RESULT:      -1.0      4.076      4.076
REMARK  12 active torsions:
REMARK  status: ('A' for Active; 'I' for Inactive)
REMARK    1  A    between atoms: C_2  and  N_3 
REMARK    2  A    between atoms: N_3  and  C_4 
REMARK    3  A    between atoms: N_3  and  C_15 
REMARK    4  A    between atoms: C_4  and  C_5 
REMARK    5  A    between atoms: C_7  and  S_11 
REMARK    6  A    between atoms: C_18  and  C_21 
REMARK    7  A    between atoms: C_21  and  C_42 
REMARK    8  A    between atoms: N_26  and  C_27 
REMARK    9  A    between atoms: N_26  and  C_29 
REMARK   10  A    between atoms: C_29  and  C_30 
REMARK   11  A    between atoms: C_32  and  S_36 
REMARK   12  A    between atoms: C_47  and  S_48 
ROOT
HETATM    1  H   UNL     1     -22.171  -2.632 -12.721  1.00  0.00     0.271 HD
HETATM    2  H   UNL     1     -22.726  -2.850 -14.287  1.00  0.00     0.271 HD
HETATM    3  H   UNL     1     -22.814  -4.113 -13.197  1.00  0.00     0.271 HD
HETATM    4  H   UNL     1     -21.325  -3.632 -13.769  1.00  0.00     0.271 HD
HETATM    5  N   UNL     2     -22.259  -3.303 -13.493  1.00  0.00    -0.084 N 
ENDROOT
TORSDOF 12
ENDMDL
MODEL 9
REMARK VINA RESULT:      -1.0     14.302     14.302
REMARK  12 active torsions:
REMARK  status: ('A' for Active; 'I' for Inactive)
REMARK    1  A    between atoms: C_2  and  N_3 
REMARK    2  A    between atoms: N_3  and  C_4 
REMARK    3  A    between atoms: N_3  and  C_15 
REMARK    4  A    between atoms: C_4  and  C_5 
REMARK    5  A    between atoms: C_7  and  S_11 
REMARK    6  A    between atoms: C_18  and  C_21 
REMARK    7  A    between atoms: C_21  and  C_42 
REMARK    8  A    between atoms: N_26  and  C_27 
REMARK    9  A    between atoms: N_26  and  C_29 
REMARK   10  A    between atoms: C_29  and  C_30 
REMARK   11  A    between atoms: C_32  and  S_36 
REMARK   12  A    between atoms: C_47  and  S_48 
ROOT
HETATM    1  H   UNL     1     -21.500  -5.386  -1.756  1.00  0.00     0.271 HD
HETATM    2  H   UNL     1     -22.999  -5.200  -2.479  1.00  0.00     0.271 HD
HETATM    3  H   UNL     1     -22.797  -6.352  -1.287  1.00  0.00     0.271 HD
HETATM    4  H   UNL     1     -22.083  -6.584  -2.774  1.00  0.00     0.271 HD
HETATM    5  N   UNL     2     -22.343  -5.877  -2.075  1.00  0.00    -0.084 N 
ENDROOT
TORSDOF 12
ENDMDL
