MODEL 1
REMARK VINA RESULT:      -8.8      0.000      0.000
REMARK  7 active torsions:
REMARK  status: ('A' for Active; 'I' for Inactive)
REMARK    1  A    between atoms: C_4  and  N_10 
REMARK    2  A    between atoms: C_5  and  C_7 
REMARK    3  A    between atoms: C_7  and  O_9 
REMARK       I    between atoms: N_10  and  C_11 
REMARK    4  A    between atoms: C_11  and  C_13 
REMARK    5  A    between atoms: C_13  and  C_14 
REMARK    6  A    between atoms: C_14  and  C_15 
REMARK    7  A    between atoms: C_18  and  O_21 
ROOT
HETATM    1  N   UNL     1     -21.882  -5.372  -7.944  1.00  0.00    -0.326 N 
HETATM    2  C   UNL     1     -21.455  -4.995  -6.682  1.00  0.00     0.222 C 
HETATM    3  O   UNL     1     -20.728  -4.034  -6.445  1.00  0.00    -0.273 OA
HETATM    4  H   UNL     1     -22.315  -6.290  -8.055  1.00  0.00     0.169 HD
ENDROOT
BRANCH   1   5
HETATM    5  C   UNL     1     -21.653  -4.639  -9.146  1.00  0.00     0.051 A 
HETATM    6  C   UNL     1     -20.364  -4.491  -9.675  1.00  0.00     0.030 A 
HETATM    7  C   UNL     1     -20.142  -3.809 -10.875  1.00  0.00     0.002 A 
HETATM    8  C   UNL     1     -21.208  -3.247 -11.565  1.00  0.00     0.001 A 
HETATM    9  C   UNL     1     -22.496  -3.338 -11.038  1.00  0.00     0.020 A 
HETATM   10  C   UNL     1     -22.724  -4.029  -9.833  1.00  0.00     0.064 A 
BRANCH  10  11
HETATM   11  C   UNL     1     -24.098  -4.099  -9.280  1.00  0.00     0.178 C 
HETATM   12  O   UNL     1     -25.068  -4.385  -9.964  1.00  0.00    -0.646 OA
BRANCH  11  13
HETATM   13  O   UNL     1     -24.189  -3.755  -7.978  1.00  0.00    -0.773 OA
HETATM   14  H   UNL     1     -23.975  -4.466  -7.345  1.00  0.00     0.167 HD
ENDBRANCH  11  13
ENDBRANCH  10  11
ENDBRANCH   1   5
BRANCH   2  15
HETATM   15  C   UNL     1     -21.891  -5.933  -5.571  1.00  0.00     0.108 C 
BRANCH  15  16
HETATM   16  C   UNL     1     -20.930  -5.781  -4.390  1.00  0.00     0.048 C 
BRANCH  16  17
HETATM   17  C   UNL     1     -21.284  -6.619  -3.189  1.00  0.00    -0.058 A 
HETATM   18  C   UNL     1     -20.753  -7.908  -3.046  1.00  0.00     0.010 A 
HETATM   19  C   UNL     1     -21.017  -8.663  -1.900  1.00  0.00     0.037 A 
HETATM   20  C   UNL     1     -21.820  -8.126  -0.900  1.00  0.00     0.065 A 
HETATM   21  C   UNL     1     -22.366  -6.855  -1.031  1.00  0.00     0.037 A 
HETATM   22  C   UNL     1     -22.104  -6.102  -2.176  1.00  0.00     0.010 A 
BRANCH  20  23
HETATM   23  O   UNL     1     -22.092  -8.821   0.241  1.00  0.00    -0.361 OA
HETATM   24  H   UNL     1     -22.450  -9.690  -0.005  1.00  0.00     0.217 HD
ENDBRANCH  20  23
ENDBRANCH  16  17
ENDBRANCH  15  16
ENDBRANCH   2  15
TORSDOF 7
ENDMDL
MODEL 2
REMARK VINA RESULT:      -8.6      2.239      8.475
REMARK  7 active torsions:
REMARK  status: ('A' for Active; 'I' for Inactive)
REMARK    1  A    between atoms: C_4  and  N_10 
REMARK    2  A    between atoms: C_5  and  C_7 
REMARK    3  A    between atoms: C_7  and  O_9 
REMARK       I    between atoms: N_10  and  C_11 
REMARK    4  A    between atoms: C_11  and  C_13 
REMARK    5  A    between atoms: C_13  and  C_14 
REMARK    6  A    between atoms: C_14  and  C_15 
REMARK    7  A    between atoms: C_18  and  O_21 
ROOT
HETATM    1  N   UNL     1     -20.852  -6.375  -4.464  1.00  0.00    -0.326 N 
HETATM    2  C   UNL     1     -21.758  -5.937  -5.414  1.00  0.00     0.222 C 
HETATM    3  O   UNL     1     -22.978  -6.036  -5.320  1.00  0.00    -0.273 OA
HETATM    4  H   UNL     1     -19.865  -6.427  -4.722  1.00  0.00     0.169 HD
ENDROOT
BRANCH   1   5
HETATM    5  C   UNL     1     -21.190  -6.891  -3.179  1.00  0.00     0.051 A 
HETATM    6  C   UNL     1     -21.993  -6.164  -2.289  1.00  0.00     0.030 A 
HETATM    7  C   UNL     1     -22.361  -6.685  -1.045  1.00  0.00     0.002 A 
HETATM    8  C   UNL     1     -21.918  -7.943  -0.658  1.00  0.00     0.001 A 
HETATM    9  C   UNL     1     -21.078  -8.669  -1.502  1.00  0.00     0.020 A 
HETATM   10  C   UNL     1     -20.712  -8.150  -2.758  1.00  0.00     0.064 A 
BRANCH  10  11
HETATM   11  C   UNL     1     -19.804  -8.930  -3.634  1.00  0.00     0.178 C 
HETATM   12  O   UNL     1     -18.635  -9.139  -3.349  1.00  0.00    -0.646 OA
BRANCH  11  13
HETATM   13  O   UNL     1     -20.362  -9.327  -4.797  1.00  0.00    -0.773 OA
HETATM   14  H   UNL     1     -19.914 -10.072  -5.239  1.00  0.00     0.167 HD
ENDBRANCH  11  13
ENDBRANCH  10  11
ENDBRANCH   1   5
BRANCH   2  15
HETATM   15  C   UNL     1     -21.119  -5.378  -6.673  1.00  0.00     0.108 C 
BRANCH  15  16
HETATM   16  C   UNL     1     -22.020  -4.277  -7.239  1.00  0.00     0.048 C 
BRANCH  16  17
HETATM   17  C   UNL     1     -21.894  -4.074  -8.726  1.00  0.00    -0.058 A 
HETATM   18  C   UNL     1     -20.667  -4.297  -9.368  1.00  0.00     0.010 A 
HETATM   19  C   UNL     1     -20.560  -4.183 -10.756  1.00  0.00     0.037 A 
HETATM   20  C   UNL     1     -21.682  -3.838 -11.500  1.00  0.00     0.065 A 
HETATM   21  C   UNL     1     -22.903  -3.600 -10.880  1.00  0.00     0.037 A 
HETATM   22  C   UNL     1     -23.009  -3.712  -9.493  1.00  0.00     0.010 A 
BRANCH  20  23
HETATM   23  O   UNL     1     -21.627  -3.730 -12.859  1.00  0.00    -0.361 OA
HETATM   24  H   UNL     1     -22.344  -3.143 -13.150  1.00  0.00     0.217 HD
ENDBRANCH  20  23
ENDBRANCH  16  17
ENDBRANCH  15  16
ENDBRANCH   2  15
TORSDOF 7
ENDMDL
MODEL 3
REMARK VINA RESULT:      -8.0      2.311      8.476
REMARK  7 active torsions:
REMARK  status: ('A' for Active; 'I' for Inactive)
REMARK    1  A    between atoms: C_4  and  N_10 
REMARK    2  A    between atoms: C_5  and  C_7 
REMARK    3  A    between atoms: C_7  and  O_9 
REMARK       I    between atoms: N_10  and  C_11 
REMARK    4  A    between atoms: C_11  and  C_13 
REMARK    5  A    between atoms: C_13  and  C_14 
REMARK    6  A    between atoms: C_14  and  C_15 
REMARK    7  A    between atoms: C_18  and  O_21 
ROOT
HETATM    1  N   UNL     1     -20.882  -7.609  -3.416  1.00  0.00    -0.326 N 
HETATM    2  C   UNL     1     -21.370  -6.739  -4.376  1.00  0.00     0.222 C 
HETATM    3  O   UNL     1     -22.499  -6.255  -4.374  1.00  0.00    -0.273 OA
HETATM    4  H   UNL     1     -20.011  -8.107  -3.611  1.00  0.00     0.169 HD
ENDROOT
BRANCH   1   5
HETATM    5  C   UNL     1     -21.557  -7.979  -2.216  1.00  0.00     0.051 A 
HETATM    6  C   UNL     1     -21.894  -7.025  -1.247  1.00  0.00     0.030 A 
HETATM    7  C   UNL     1     -22.594  -7.377  -0.089  1.00  0.00     0.002 A 
HETATM    8  C   UNL     1     -22.958  -8.699   0.131  1.00  0.00     0.001 A 
HETATM    9  C   UNL     1     -22.593  -9.677  -0.794  1.00  0.00     0.020 A 
HETATM   10  C   UNL     1     -21.895  -9.325  -1.964  1.00  0.00     0.064 A 
BRANCH  10  11
HETATM   11  C   UNL     1     -21.501 -10.383  -2.926  1.00  0.00     0.178 C 
HETATM   12  O   UNL     1     -20.336 -10.611  -3.210  1.00  0.00    -0.646 OA
BRANCH  11  13
HETATM   13  O   UNL     1     -22.541 -11.018  -3.506  1.00  0.00    -0.773 OA
HETATM   14  H   UNL     1     -22.869 -10.611  -4.329  1.00  0.00     0.167 HD
ENDBRANCH  11  13
ENDBRANCH  10  11
ENDBRANCH   1   5
BRANCH   2  15
HETATM   15  C   UNL     1     -20.413  -6.476  -5.524  1.00  0.00     0.108 C 
BRANCH  15  16
HETATM   16  C   UNL     1     -20.418  -4.978  -5.840  1.00  0.00     0.048 C 
BRANCH  16  17
HETATM   17  C   UNL     1     -20.890  -4.638  -7.229  1.00  0.00    -0.058 A 
HETATM   18  C   UNL     1     -22.221  -4.255  -7.449  1.00  0.00     0.010 A 
HETATM   19  C   UNL     1     -22.648  -3.867  -8.721  1.00  0.00     0.037 A 
HETATM   20  C   UNL     1     -21.741  -3.869  -9.775  1.00  0.00     0.065 A 
HETATM   21  C   UNL     1     -20.422  -4.258  -9.578  1.00  0.00     0.037 A 
HETATM   22  C   UNL     1     -19.996  -4.648  -8.308  1.00  0.00     0.010 A 
BRANCH  20  23
HETATM   23  O   UNL     1     -22.110  -3.484 -11.030  1.00  0.00    -0.361 OA
HETATM   24  H   UNL     1     -22.782  -2.787 -10.953  1.00  0.00     0.217 HD
ENDBRANCH  20  23
ENDBRANCH  16  17
ENDBRANCH  15  16
ENDBRANCH   2  15
TORSDOF 7
ENDMDL
MODEL 4
REMARK VINA RESULT:      -7.6      1.934      7.918
REMARK  7 active torsions:
REMARK  status: ('A' for Active; 'I' for Inactive)
REMARK    1  A    between atoms: C_4  and  N_10 
REMARK    2  A    between atoms: C_5  and  C_7 
REMARK    3  A    between atoms: C_7  and  O_9 
REMARK       I    between atoms: N_10  and  C_11 
REMARK    4  A    between atoms: C_11  and  C_13 
REMARK    5  A    between atoms: C_13  and  C_14 
REMARK    6  A    between atoms: C_14  and  C_15 
REMARK    7  A    between atoms: C_18  and  O_21 
ROOT
HETATM    1  N   UNL     1     -20.308  -6.316  -4.859  1.00  0.00    -0.326 N 
HETATM    2  C   UNL     1     -20.751  -6.161  -6.161  1.00  0.00     0.222 C 
HETATM    3  O   UNL     1     -21.088  -7.081  -6.902  1.00  0.00    -0.273 OA
HETATM    4  H   UNL     1     -19.867  -5.518  -4.398  1.00  0.00     0.169 HD
ENDROOT
BRANCH   1   5
HETATM    5  C   UNL     1     -20.291  -7.543  -4.133  1.00  0.00     0.051 A 
HETATM    6  C   UNL     1     -19.487  -8.617  -4.535  1.00  0.00     0.030 A 
HETATM    7  C   UNL     1     -19.436  -9.806  -3.801  1.00  0.00     0.002 A 
HETATM    8  C   UNL     1     -20.205  -9.951  -2.654  1.00  0.00     0.001 A 
HETATM    9  C   UNL     1     -21.052  -8.916  -2.257  1.00  0.00     0.020 A 
HETATM   10  C   UNL     1     -21.100  -7.715  -2.990  1.00  0.00     0.064 A 
BRANCH  10  11
HETATM   11  C   UNL     1     -22.020  -6.634  -2.560  1.00  0.00     0.178 C 
HETATM   12  O   UNL     1     -22.101  -6.263  -1.400  1.00  0.00    -0.646 OA
BRANCH  11  13
HETATM   13  O   UNL     1     -22.801  -6.147  -3.547  1.00  0.00    -0.773 OA
HETATM   14  H   UNL     1     -23.398  -6.797  -3.961  1.00  0.00     0.167 HD
ENDBRANCH  11  13
ENDBRANCH  10  11
ENDBRANCH   1   5
BRANCH   2  15
HETATM   15  C   UNL     1     -20.714  -4.730  -6.666  1.00  0.00     0.108 C 
BRANCH  15  16
HETATM   16  C   UNL     1     -20.468  -4.745  -8.177  1.00  0.00     0.048 C 
BRANCH  16  17
HETATM   17  C   UNL     1     -21.631  -4.256  -9.000  1.00  0.00    -0.058 A 
HETATM   18  C   UNL     1     -21.453  -3.934 -10.353  1.00  0.00     0.010 A 
HETATM   19  C   UNL     1     -22.541  -3.551 -11.141  1.00  0.00     0.037 A 
HETATM   20  C   UNL     1     -23.807  -3.486 -10.571  1.00  0.00     0.065 A 
HETATM   21  C   UNL     1     -24.000  -3.788  -9.229  1.00  0.00     0.037 A 
HETATM   22  C   UNL     1     -22.913  -4.169  -8.441  1.00  0.00     0.010 A 
BRANCH  20  23
HETATM   23  O   UNL     1     -24.899  -3.131 -11.307  1.00  0.00    -0.361 OA
HETATM   24  H   UNL     1     -25.662  -3.643 -10.993  1.00  0.00     0.217 HD
ENDBRANCH  20  23
ENDBRANCH  16  17
ENDBRANCH  15  16
ENDBRANCH   2  15
TORSDOF 7
ENDMDL
MODEL 5
REMARK VINA RESULT:      -7.4      2.383      8.706
REMARK  7 active torsions:
REMARK  status: ('A' for Active; 'I' for Inactive)
REMARK    1  A    between atoms: C_4  and  N_10 
REMARK    2  A    between atoms: C_5  and  C_7 
REMARK    3  A    between atoms: C_7  and  O_9 
REMARK       I    between atoms: N_10  and  C_11 
REMARK    4  A    between atoms: C_11  and  C_13 
REMARK    5  A    between atoms: C_13  and  C_14 
REMARK    6  A    between atoms: C_14  and  C_15 
REMARK    7  A    between atoms: C_18  and  O_21 
ROOT
HETATM    1  N   UNL     1     -21.765  -8.423  -3.019  1.00  0.00    -0.326 N 
HETATM    2  C   UNL     1     -20.897  -8.032  -4.024  1.00  0.00     0.222 C 
HETATM    3  O   UNL     1     -19.677  -8.164  -3.988  1.00  0.00    -0.273 OA
HETATM    4  H   UNL     1     -22.731  -8.092  -3.057  1.00  0.00     0.169 HD
ENDROOT
BRANCH   1   5
HETATM    5  C   UNL     1     -21.400  -9.151  -1.850  1.00  0.00     0.051 A 
HETATM    6  C   UNL     1     -20.654 -10.334  -1.932  1.00  0.00     0.030 A 
HETATM    7  C   UNL     1     -20.257 -11.028  -0.784  1.00  0.00     0.002 A 
HETATM    8  C   UNL     1     -20.614 -10.558   0.473  1.00  0.00     0.001 A 
HETATM    9  C   UNL     1     -21.397  -9.410   0.583  1.00  0.00     0.020 A 
HETATM   10  C   UNL     1     -21.792  -8.705  -0.570  1.00  0.00     0.064 A 
BRANCH  10  11
HETATM   11  C   UNL     1     -22.639  -7.495  -0.432  1.00  0.00     0.178 C 
HETATM   12  O   UNL     1     -22.397  -6.453  -1.020  1.00  0.00    -0.646 OA
BRANCH  11  13
HETATM   13  O   UNL     1     -23.655  -7.629   0.447  1.00  0.00    -0.773 OA
HETATM   14  H   UNL     1     -23.452  -7.352   1.359  1.00  0.00     0.167 HD
ENDBRANCH  11  13
ENDBRANCH  10  11
ENDBRANCH   1   5
BRANCH   2  15
HETATM   15  C   UNL     1     -21.568  -7.321  -5.186  1.00  0.00     0.108 C 
BRANCH  15  16
HETATM   16  C   UNL     1     -20.927  -5.942  -5.359  1.00  0.00     0.048 C 
BRANCH  16  17
HETATM   17  C   UNL     1     -21.085  -5.352  -6.736  1.00  0.00    -0.058 A 
HETATM   18  C   UNL     1     -22.265  -4.680  -7.086  1.00  0.00     0.010 A 
HETATM   19  C   UNL     1     -22.390  -4.067  -8.334  1.00  0.00     0.037 A 
HETATM   20  C   UNL     1     -21.335  -4.133  -9.236  1.00  0.00     0.065 A 
HETATM   21  C   UNL     1     -20.163  -4.807  -8.912  1.00  0.00     0.037 A 
HETATM   22  C   UNL     1     -20.038  -5.422  -7.666  1.00  0.00     0.010 A 
BRANCH  20  23
HETATM   23  O   UNL     1     -21.408  -3.537 -10.460  1.00  0.00    -0.361 OA
HETATM   24  H   UNL     1     -21.753  -4.183 -11.097  1.00  0.00     0.217 HD
ENDBRANCH  20  23
ENDBRANCH  16  17
ENDBRANCH  15  16
ENDBRANCH   2  15
TORSDOF 7
ENDMDL
MODEL 6
REMARK VINA RESULT:      -7.4     13.124     15.049
REMARK  7 active torsions:
REMARK  status: ('A' for Active; 'I' for Inactive)
REMARK    1  A    between atoms: C_4  and  N_10 
REMARK    2  A    between atoms: C_5  and  C_7 
REMARK    3  A    between atoms: C_7  and  O_9 
REMARK       I    between atoms: N_10  and  C_11 
REMARK    4  A    between atoms: C_11  and  C_13 
REMARK    5  A    between atoms: C_13  and  C_14 
REMARK    6  A    between atoms: C_14  and  C_15 
REMARK    7  A    between atoms: C_18  and  O_21 
ROOT
HETATM    1  N   UNL     1     -34.697  -1.627 -12.810  1.00  0.00    -0.326 N 
HETATM    2  C   UNL     1     -34.287  -2.949 -12.816  1.00  0.00     0.222 C 
HETATM    3  O   UNL     1     -34.717  -3.814 -13.574  1.00  0.00    -0.273 OA
HETATM    4  H   UNL     1     -34.428  -1.039 -12.019  1.00  0.00     0.169 HD
ENDROOT
BRANCH   1   5
HETATM    5  C   UNL     1     -35.581  -1.033 -13.758  1.00  0.00     0.051 A 
HETATM    6  C   UNL     1     -35.299  -1.053 -15.130  1.00  0.00     0.030 A 
HETATM    7  C   UNL     1     -36.185  -0.509 -16.065  1.00  0.00     0.002 A 
HETATM    8  C   UNL     1     -37.368   0.082 -15.643  1.00  0.00     0.001 A 
HETATM    9  C   UNL     1     -37.653   0.159 -14.280  1.00  0.00     0.020 A 
HETATM   10  C   UNL     1     -36.766  -0.394 -13.336  1.00  0.00     0.064 A 
BRANCH  10  11
HETATM   11  C   UNL     1     -37.079  -0.286 -11.890  1.00  0.00     0.178 C 
HETATM   12  O   UNL     1     -38.072  -0.793 -11.393  1.00  0.00    -0.646 OA
BRANCH  11  13
HETATM   13  O   UNL     1     -36.210   0.474 -11.192  1.00  0.00    -0.773 OA
HETATM   14  H   UNL     1     -36.084   1.379 -11.532  1.00  0.00     0.167 HD
ENDBRANCH  11  13
ENDBRANCH  10  11
ENDBRANCH   1   5
BRANCH   2  15
HETATM   15  C   UNL     1     -33.291  -3.297 -11.724  1.00  0.00     0.108 C 
BRANCH  15  16
HETATM   16  C   UNL     1     -34.057  -3.809 -10.501  1.00  0.00     0.048 C 
BRANCH  16  17
HETATM   17  C   UNL     1     -34.123  -5.310 -10.393  1.00  0.00    -0.058 A 
HETATM   18  C   UNL     1     -33.081  -6.101 -10.897  1.00  0.00     0.010 A 
HETATM   19  C   UNL     1     -33.099  -7.488 -10.735  1.00  0.00     0.037 A 
HETATM   20  C   UNL     1     -34.166  -8.083 -10.072  1.00  0.00     0.065 A 
HETATM   21  C   UNL     1     -35.214  -7.316  -9.578  1.00  0.00     0.037 A 
HETATM   22  C   UNL     1     -35.197  -5.931  -9.742  1.00  0.00     0.010 A 
BRANCH  20  23
HETATM   23  O   UNL     1     -34.218  -9.432  -9.879  1.00  0.00    -0.361 OA
HETATM   24  H   UNL     1     -35.149  -9.698  -9.808  1.00  0.00     0.217 HD
ENDBRANCH  20  23
ENDBRANCH  16  17
ENDBRANCH  15  16
ENDBRANCH   2  15
TORSDOF 7
ENDMDL
MODEL 7
REMARK VINA RESULT:      -7.2     12.248     14.685
REMARK  7 active torsions:
REMARK  status: ('A' for Active; 'I' for Inactive)
REMARK    1  A    between atoms: C_4  and  N_10 
REMARK    2  A    between atoms: C_5  and  C_7 
REMARK    3  A    between atoms: C_7  and  O_9 
REMARK       I    between atoms: N_10  and  C_11 
REMARK    4  A    between atoms: C_11  and  C_13 
REMARK    5  A    between atoms: C_13  and  C_14 
REMARK    6  A    between atoms: C_14  and  C_15 
REMARK    7  A    between atoms: C_18  and  O_21 
ROOT
HETATM    1  N   UNL     1     -33.709  -4.259 -14.162  1.00  0.00    -0.326 N 
HETATM    2  C   UNL     1     -34.011  -3.900 -15.464  1.00  0.00     0.222 C 
HETATM    3  O   UNL     1     -34.708  -2.941 -15.785  1.00  0.00    -0.273 OA
HETATM    4  H   UNL     1     -33.293  -5.176 -13.996  1.00  0.00     0.169 HD
ENDROOT
BRANCH   1   5
HETATM    5  C   UNL     1     -34.049  -3.507 -12.999  1.00  0.00     0.051 A 
HETATM    6  C   UNL     1     -34.724  -2.283 -13.094  1.00  0.00     0.030 A 
HETATM    7  C   UNL     1     -35.097  -1.564 -11.954  1.00  0.00     0.002 A 
HETATM    8  C   UNL     1     -34.785  -2.050 -10.691  1.00  0.00     0.001 A 
HETATM    9  C   UNL     1     -34.071  -3.242 -10.567  1.00  0.00     0.020 A 
HETATM   10  C   UNL     1     -33.701  -3.972 -11.713  1.00  0.00     0.064 A 
BRANCH  10  11
HETATM   11  C   UNL     1     -32.927  -5.228 -11.561  1.00  0.00     0.178 C 
HETATM   12  O   UNL     1     -33.335  -6.176 -10.909  1.00  0.00    -0.646 OA
BRANCH  11  13
HETATM   13  O   UNL     1     -31.711  -5.203 -12.146  1.00  0.00    -0.773 OA
HETATM   14  H   UNL     1     -31.207  -6.036 -12.090  1.00  0.00     0.167 HD
ENDBRANCH  11  13
ENDBRANCH  10  11
ENDBRANCH   1   5
BRANCH   2  15
HETATM   15  C   UNL     1     -33.474  -4.856 -16.514  1.00  0.00     0.108 C 
BRANCH  15  16
HETATM   16  C   UNL     1     -32.134  -4.323 -17.029  1.00  0.00     0.048 C 
BRANCH  16  17
HETATM   17  C   UNL     1     -30.959  -5.222 -16.748  1.00  0.00    -0.058 A 
HETATM   18  C   UNL     1     -30.413  -6.011 -17.770  1.00  0.00     0.010 A 
HETATM   19  C   UNL     1     -29.278  -6.791 -17.537  1.00  0.00     0.037 A 
HETATM   20  C   UNL     1     -28.694  -6.785 -16.275  1.00  0.00     0.065 A 
HETATM   21  C   UNL     1     -29.230  -6.020 -15.247  1.00  0.00     0.037 A 
HETATM   22  C   UNL     1     -30.365  -5.243 -15.479  1.00  0.00     0.010 A 
BRANCH  20  23
HETATM   23  O   UNL     1     -27.577  -7.520 -16.006  1.00  0.00    -0.361 OA
HETATM   24  H   UNL     1     -27.710  -7.986 -15.165  1.00  0.00     0.217 HD
ENDBRANCH  20  23
ENDBRANCH  16  17
ENDBRANCH  15  16
ENDBRANCH   2  15
TORSDOF 7
ENDMDL
MODEL 8
REMARK VINA RESULT:      -7.2     13.891     15.795
REMARK  7 active torsions:
REMARK  status: ('A' for Active; 'I' for Inactive)
REMARK    1  A    between atoms: C_4  and  N_10 
REMARK    2  A    between atoms: C_5  and  C_7 
REMARK    3  A    between atoms: C_7  and  O_9 
REMARK       I    between atoms: N_10  and  C_11 
REMARK    4  A    between atoms: C_11  and  C_13 
REMARK    5  A    between atoms: C_13  and  C_14 
REMARK    6  A    between atoms: C_14  and  C_15 
REMARK    7  A    between atoms: C_18  and  O_21 
ROOT
HETATM    1  N   UNL     1     -35.015  -0.729 -10.866  1.00  0.00    -0.326 N 
HETATM    2  C   UNL     1     -36.324  -0.419 -10.539  1.00  0.00     0.222 C 
HETATM    3  O   UNL     1     -37.295  -1.131 -10.781  1.00  0.00    -0.273 OA
HETATM    4  H   UNL     1     -34.312   0.009 -10.802  1.00  0.00     0.169 HD
ENDROOT
BRANCH   1   5
HETATM    5  C   UNL     1     -34.573  -1.967 -11.415  1.00  0.00     0.051 A 
HETATM    6  C   UNL     1     -33.938  -2.931 -10.621  1.00  0.00     0.030 A 
HETATM    7  C   UNL     1     -33.541  -4.164 -11.147  1.00  0.00     0.002 A 
HETATM    8  C   UNL     1     -33.757  -4.452 -12.488  1.00  0.00     0.001 A 
HETATM    9  C   UNL     1     -34.344  -3.493 -13.314  1.00  0.00     0.020 A 
HETATM   10  C   UNL     1     -34.751  -2.253 -12.785  1.00  0.00     0.064 A 
BRANCH  10  11
HETATM   11  C   UNL     1     -35.356  -1.240 -13.683  1.00  0.00     0.178 C 
HETATM   12  O   UNL     1     -34.698  -0.593 -14.482  1.00  0.00    -0.646 OA
BRANCH  11  13
HETATM   13  O   UNL     1     -36.679  -1.051 -13.492  1.00  0.00    -0.773 OA
HETATM   14  H   UNL     1     -37.149  -1.799 -13.079  1.00  0.00     0.167 HD
ENDBRANCH  11  13
ENDBRANCH  10  11
ENDBRANCH   1   5
BRANCH   2  15
HETATM   15  C   UNL     1     -36.502   0.952  -9.911  1.00  0.00     0.108 C 
BRANCH  15  16
HETATM   16  C   UNL     1     -37.862   1.002  -9.210  1.00  0.00     0.048 C 
BRANCH  16  17
HETATM   17  C   UNL     1     -37.825   0.611  -7.755  1.00  0.00    -0.058 A 
HETATM   18  C   UNL     1     -38.075  -0.715  -7.373  1.00  0.00     0.010 A 
HETATM   19  C   UNL     1     -37.970  -1.100  -6.035  1.00  0.00     0.037 A 
HETATM   20  C   UNL     1     -37.622  -0.155  -5.078  1.00  0.00     0.065 A 
HETATM   21  C   UNL     1     -37.385   1.167  -5.436  1.00  0.00     0.037 A 
HETATM   22  C   UNL     1     -37.491   1.553  -6.773  1.00  0.00     0.010 A 
BRANCH  20  23
HETATM   23  O   UNL     1     -37.495  -0.490  -3.762  1.00  0.00    -0.361 OA
HETATM   24  H   UNL     1     -36.550  -0.580  -3.557  1.00  0.00     0.217 HD
ENDBRANCH  20  23
ENDBRANCH  16  17
ENDBRANCH  15  16
ENDBRANCH   2  15
TORSDOF 7
ENDMDL
MODEL 9
REMARK VINA RESULT:      -7.2      6.215      9.234
REMARK  7 active torsions:
REMARK  status: ('A' for Active; 'I' for Inactive)
REMARK    1  A    between atoms: C_4  and  N_10 
REMARK    2  A    between atoms: C_5  and  C_7 
REMARK    3  A    between atoms: C_7  and  O_9 
REMARK       I    between atoms: N_10  and  C_11 
REMARK    4  A    between atoms: C_11  and  C_13 
REMARK    5  A    between atoms: C_13  and  C_14 
REMARK    6  A    between atoms: C_14  and  C_15 
REMARK    7  A    between atoms: C_18  and  O_21 
ROOT
HETATM    1  N   UNL     1     -21.485 -10.102  -0.876  1.00  0.00    -0.326 N 
HETATM    2  C   UNL     1     -22.551 -10.957  -0.659  1.00  0.00     0.222 C 
HETATM    3  O   UNL     1     -23.723 -10.699  -0.923  1.00  0.00    -0.273 OA
HETATM    4  H   UNL     1     -20.587 -10.327  -0.444  1.00  0.00     0.169 HD
ENDROOT
BRANCH   1   5
HETATM    5  C   UNL     1     -21.555  -8.849  -1.552  1.00  0.00     0.051 A 
HETATM    6  C   UNL     1     -21.084  -8.701  -2.863  1.00  0.00     0.030 A 
HETATM    7  C   UNL     1     -21.191  -7.484  -3.544  1.00  0.00     0.002 A 
HETATM    8  C   UNL     1     -21.759  -6.383  -2.918  1.00  0.00     0.001 A 
HETATM    9  C   UNL     1     -22.193  -6.487  -1.597  1.00  0.00     0.020 A 
HETATM   10  C   UNL     1     -22.093  -7.713  -0.911  1.00  0.00     0.064 A 
BRANCH  10  11
HETATM   11  C   UNL     1     -22.544  -7.799   0.499  1.00  0.00     0.178 C 
HETATM   12  O   UNL     1     -21.763  -7.878   1.435  1.00  0.00    -0.646 OA
BRANCH  11  13
HETATM   13  O   UNL     1     -23.884  -7.851   0.650  1.00  0.00    -0.773 OA
HETATM   14  H   UNL     1     -24.225  -7.444   1.468  1.00  0.00     0.167 HD
ENDBRANCH  11  13
ENDBRANCH  10  11
ENDBRANCH   1   5
BRANCH   2  15
HETATM   15  C   UNL     1     -22.179 -12.255   0.034  1.00  0.00     0.108 C 
BRANCH  15  16
HETATM   16  C   UNL     1     -23.387 -12.756   0.829  1.00  0.00     0.048 C 
BRANCH  16  17
HETATM   17  C   UNL     1     -23.068 -13.839   1.827  1.00  0.00    -0.058 A 
HETATM   18  C   UNL     1     -21.796 -14.428   1.847  1.00  0.00     0.010 A 
HETATM   19  C   UNL     1     -21.469 -15.380   2.816  1.00  0.00     0.037 A 
HETATM   20  C   UNL     1     -22.421 -15.747   3.760  1.00  0.00     0.065 A 
HETATM   21  C   UNL     1     -23.691 -15.184   3.746  1.00  0.00     0.037 A 
HETATM   22  C   UNL     1     -24.019 -14.234   2.778  1.00  0.00     0.010 A 
BRANCH  20  23
HETATM   23  O   UNL     1     -22.141 -16.661   4.732  1.00  0.00    -0.361 OA
HETATM   24  H   UNL     1     -22.404 -16.289   5.590  1.00  0.00     0.217 HD
ENDBRANCH  20  23
ENDBRANCH  16  17
ENDBRANCH  15  16
ENDBRANCH   2  15
TORSDOF 7
ENDMDL
