MODEL 1
REMARK VINA RESULT:      -4.0      0.000      0.000
REMARK  3 active torsions:
REMARK  status: ('A' for Active; 'I' for Inactive)
REMARK    1  A    between atoms: C_1  and  C_2 
REMARK    2  A    between atoms: C_1  and  O_5 
REMARK    3  A    between atoms: C_2  and  O_4 
ROOT
HETATM    1  C   UNL     1     -23.418  -2.349 -14.519  1.00  0.00     0.164 C 
HETATM    2  O   UNL     1     -24.064  -2.823 -13.599  1.00  0.00    -0.648 OA
ENDROOT
BRANCH   1   3
HETATM    3  C   UNL     1     -23.655  -0.981 -15.138  1.00  0.00     0.273 C 
BRANCH   3   4
HETATM    4  O   UNL     1     -24.929  -0.489 -14.710  1.00  0.00    -0.391 OA
HETATM    5  H   UNL     1     -24.748   0.237 -14.082  1.00  0.00     0.210 HD
ENDBRANCH   3   4
ENDBRANCH   1   3
BRANCH   1   6
HETATM    6  O   UNL     1     -22.398  -2.999 -15.134  1.00  0.00    -0.775 OA
HETATM    7  H   UNL     1     -21.906  -2.349 -15.688  1.00  0.00     0.167 HD
ENDBRANCH   1   6
TORSDOF 3
ENDMDL
MODEL 2
REMARK VINA RESULT:      -3.9      1.202      2.376
REMARK  3 active torsions:
REMARK  status: ('A' for Active; 'I' for Inactive)
REMARK    1  A    between atoms: C_1  and  C_2 
REMARK    2  A    between atoms: C_1  and  O_5 
REMARK    3  A    between atoms: C_2  and  O_4 
ROOT
HETATM    1  C   UNL     1     -23.650  -1.257 -15.062  1.00  0.00     0.164 C 
HETATM    2  O   UNL     1     -24.674  -0.596 -14.999  1.00  0.00    -0.648 OA
ENDROOT
BRANCH   1   3
HETATM    3  C   UNL     1     -23.309  -2.428 -14.156  1.00  0.00     0.273 C 
BRANCH   3   4
HETATM    4  O   UNL     1     -23.677  -3.646 -14.811  1.00  0.00    -0.391 OA
HETATM    5  H   UNL     1     -23.523  -4.364 -14.166  1.00  0.00     0.210 HD
ENDBRANCH   3   4
ENDBRANCH   1   3
BRANCH   1   6
HETATM    6  O   UNL     1     -22.656  -1.017 -15.955  1.00  0.00    -0.775 OA
HETATM    7  H   UNL     1     -21.814  -0.896 -15.456  1.00  0.00     0.167 HD
ENDBRANCH   1   6
TORSDOF 3
ENDMDL
MODEL 3
REMARK VINA RESULT:      -3.8      5.098      5.977
REMARK  3 active torsions:
REMARK  status: ('A' for Active; 'I' for Inactive)
REMARK    1  A    between atoms: C_1  and  C_2 
REMARK    2  A    between atoms: C_1  and  O_5 
REMARK    3  A    between atoms: C_2  and  O_4 
ROOT
HETATM    1  C   UNL     1     -25.432  -6.800 -15.783  1.00  0.00     0.164 C 
HETATM    2  O   UNL     1     -26.430  -7.342 -15.338  1.00  0.00    -0.648 OA
ENDROOT
BRANCH   1   3
HETATM    3  C   UNL     1     -24.551  -7.362 -16.887  1.00  0.00     0.273 C 
BRANCH   3   4
HETATM    4  O   UNL     1     -23.688  -8.360 -16.333  1.00  0.00    -0.391 OA
HETATM    5  H   UNL     1     -24.116  -9.221 -16.505  1.00  0.00     0.210 HD
ENDBRANCH   3   4
ENDBRANCH   1   3
BRANCH   1   6
HETATM    6  O   UNL     1     -24.958  -5.611 -15.330  1.00  0.00    -0.775 OA
HETATM    7  H   UNL     1     -25.593  -5.259 -14.663  1.00  0.00     0.167 HD
ENDBRANCH   1   6
TORSDOF 3
ENDMDL
MODEL 4
REMARK VINA RESULT:      -3.7      1.413      2.950
REMARK  3 active torsions:
REMARK  status: ('A' for Active; 'I' for Inactive)
REMARK    1  A    between atoms: C_1  and  C_2 
REMARK    2  A    between atoms: C_1  and  O_5 
REMARK    3  A    between atoms: C_2  and  O_4 
ROOT
HETATM    1  C   UNL     1     -23.248  -2.354 -14.374  1.00  0.00     0.164 C 
HETATM    2  O   UNL     1     -22.650  -2.683 -15.386  1.00  0.00    -0.648 OA
ENDROOT
BRANCH   1   3
HETATM    3  C   UNL     1     -22.987  -2.910 -12.985  1.00  0.00     0.273 C 
BRANCH   3   4
HETATM    4  O   UNL     1     -21.772  -3.666 -13.006  1.00  0.00    -0.391 OA
HETATM    5  H   UNL     1     -21.080  -3.087 -12.630  1.00  0.00     0.210 HD
ENDBRANCH   3   4
ENDBRANCH   1   3
BRANCH   1   6
HETATM    6  O   UNL     1     -24.255  -1.443 -14.361  1.00  0.00    -0.775 OA
HETATM    7  H   UNL     1     -23.863  -0.551 -14.208  1.00  0.00     0.167 HD
ENDBRANCH   1   6
TORSDOF 3
ENDMDL
MODEL 5
REMARK VINA RESULT:      -3.7     15.538     15.933
REMARK  3 active torsions:
REMARK  status: ('A' for Active; 'I' for Inactive)
REMARK    1  A    between atoms: C_1  and  C_2 
REMARK    2  A    between atoms: C_1  and  O_5 
REMARK    3  A    between atoms: C_2  and  O_4 
ROOT
HETATM    1  C   UNL     1     -30.935 -15.017 -20.945  1.00  0.00     0.164 C 
HETATM    2  O   UNL     1     -31.353 -14.171 -21.719  1.00  0.00    -0.648 OA
ENDROOT
BRANCH   1   3
HETATM    3  C   UNL     1     -30.026 -14.742 -19.758  1.00  0.00     0.273 C 
BRANCH   3   4
HETATM    4  O   UNL     1     -30.486 -13.569 -19.080  1.00  0.00    -0.391 OA
HETATM    5  H   UNL     1     -31.348 -13.339 -19.479  1.00  0.00     0.210 HD
ENDBRANCH   3   4
ENDBRANCH   1   3
BRANCH   1   6
HETATM    6  O   UNL     1     -31.220 -16.340 -21.053  1.00  0.00    -0.775 OA
HETATM    7  H   UNL     1     -31.994 -16.442 -21.656  1.00  0.00     0.167 HD
ENDBRANCH   1   6
TORSDOF 3
ENDMDL
MODEL 6
REMARK VINA RESULT:      -3.6      4.582      5.757
REMARK  3 active torsions:
REMARK  status: ('A' for Active; 'I' for Inactive)
REMARK    1  A    between atoms: C_1  and  C_2 
REMARK    2  A    between atoms: C_1  and  O_5 
REMARK    3  A    between atoms: C_2  and  O_4 
ROOT
HETATM    1  C   UNL     1     -24.643  -3.287 -10.281  1.00  0.00     0.164 C 
HETATM    2  O   UNL     1     -24.494  -3.001 -11.457  1.00  0.00    -0.648 OA
ENDROOT
BRANCH   1   3
HETATM    3  C   UNL     1     -23.531  -3.718  -9.339  1.00  0.00     0.273 C 
BRANCH   3   4
HETATM    4  O   UNL     1     -24.095  -4.017  -8.058  1.00  0.00    -0.391 OA
HETATM    5  H   UNL     1     -23.906  -4.960  -7.886  1.00  0.00     0.210 HD
ENDBRANCH   3   4
ENDBRANCH   1   3
BRANCH   1   6
HETATM    6  O   UNL     1     -25.846  -3.276  -9.652  1.00  0.00    -0.775 OA
HETATM    7  H   UNL     1     -25.870  -2.501  -9.043  1.00  0.00     0.167 HD
ENDBRANCH   1   6
TORSDOF 3
ENDMDL
MODEL 7
REMARK VINA RESULT:      -3.6      2.241      3.146
REMARK  3 active torsions:
REMARK  status: ('A' for Active; 'I' for Inactive)
REMARK    1  A    between atoms: C_1  and  C_2 
REMARK    2  A    between atoms: C_1  and  O_5 
REMARK    3  A    between atoms: C_2  and  O_4 
ROOT
HETATM    1  C   UNL     1     -24.147  -2.882 -12.308  1.00  0.00     0.164 C 
HETATM    2  O   UNL     1     -24.917  -3.164 -11.404  1.00  0.00    -0.648 OA
ENDROOT
BRANCH   1   3
HETATM    3  C   UNL     1     -22.669  -3.233 -12.337  1.00  0.00     0.273 C 
BRANCH   3   4
HETATM    4  O   UNL     1     -22.230  -3.294 -13.698  1.00  0.00    -0.391 OA
HETATM    5  H   UNL     1     -21.353  -3.724 -13.687  1.00  0.00     0.210 HD
ENDBRANCH   3   4
ENDBRANCH   1   3
BRANCH   1   6
HETATM    6  O   UNL     1     -24.512  -2.191 -13.418  1.00  0.00    -0.775 OA
HETATM    7  H   UNL     1     -24.043  -2.580 -14.193  1.00  0.00     0.167 HD
ENDBRANCH   1   6
TORSDOF 3
ENDMDL
MODEL 8
REMARK VINA RESULT:      -3.5      5.660      6.078
REMARK  3 active torsions:
REMARK  status: ('A' for Active; 'I' for Inactive)
REMARK    1  A    between atoms: C_1  and  C_2 
REMARK    2  A    between atoms: C_1  and  O_5 
REMARK    3  A    between atoms: C_2  and  O_4 
ROOT
HETATM    1  C   UNL     1     -26.610  -6.628 -16.048  1.00  0.00     0.164 C 
HETATM    2  O   UNL     1     -26.312  -5.757 -16.849  1.00  0.00    -0.648 OA
ENDROOT
BRANCH   1   3
HETATM    3  C   UNL     1     -28.030  -7.018 -15.670  1.00  0.00     0.273 C 
BRANCH   3   4
HETATM    4  O   UNL     1     -28.773  -5.834 -15.362  1.00  0.00    -0.391 OA
HETATM    5  H   UNL     1     -28.122  -5.171 -15.058  1.00  0.00     0.210 HD
ENDBRANCH   3   4
ENDBRANCH   1   3
BRANCH   1   6
HETATM    6  O   UNL     1     -25.697  -7.363 -15.363  1.00  0.00    -0.775 OA
HETATM    7  H   UNL     1     -25.684  -8.273 -15.744  1.00  0.00     0.167 HD
ENDBRANCH   1   6
TORSDOF 3
ENDMDL
MODEL 9
REMARK VINA RESULT:      -3.5      4.169      5.036
REMARK  3 active torsions:
REMARK  status: ('A' for Active; 'I' for Inactive)
REMARK    1  A    between atoms: C_1  and  C_2 
REMARK    2  A    between atoms: C_1  and  O_5 
REMARK    3  A    between atoms: C_2  and  O_4 
ROOT
HETATM    1  C   UNL     1     -24.727  -3.381  -9.734  1.00  0.00     0.164 C 
HETATM    2  O   UNL     1     -25.923  -3.178  -9.873  1.00  0.00    -0.648 OA
ENDROOT
BRANCH   1   3
HETATM    3  C   UNL     1     -23.707  -3.389 -10.860  1.00  0.00     0.273 C 
BRANCH   3   4
HETATM    4  O   UNL     1     -24.179  -2.557 -11.924  1.00  0.00    -0.391 OA
HETATM    5  H   UNL     1     -24.762  -1.889 -11.514  1.00  0.00     0.210 HD
ENDBRANCH   3   4
ENDBRANCH   1   3
BRANCH   1   6
HETATM    6  O   UNL     1     -24.145  -3.648  -8.537  1.00  0.00    -0.775 OA
HETATM    7  H   UNL     1     -23.435  -4.316  -8.681  1.00  0.00     0.167 HD
ENDBRANCH   1   6
TORSDOF 3
ENDMDL
