MODEL 1
REMARK VINA RESULT:      -5.4      0.000      0.000
REMARK  5 active torsions:
REMARK  status: ('A' for Active; 'I' for Inactive)
REMARK    1  A    between atoms: CG1_2  and  CB_3 
REMARK    2  A    between atoms: CB_3  and  CA_5 
REMARK    3  A    between atoms: CA_5  and  C_6 
REMARK    4  A    between atoms: CA_5  and  N_9 
REMARK    5  A    between atoms: C_6  and  OXT_8 
ROOT
ATOM      1  CA  ILE A   1     -22.882  -3.787 -12.169  1.00  0.00     0.318 C 
ENDROOT
BRANCH   1   2
ATOM      2  CB  ILE A   1     -22.070  -3.527 -10.870  1.00  0.00     0.024 C 
ATOM      3  CG2 ILE A   1     -20.563  -3.468 -11.179  1.00  0.00     0.012 C 
BRANCH   2   4
ATOM      4  CG1 ILE A   1     -22.357  -4.600  -9.793  1.00  0.00     0.002 C 
ATOM      5  CD1 ILE A   1     -22.963  -4.052  -8.504  1.00  0.00     0.005 C 
ENDBRANCH   2   4
ENDBRANCH   1   2
BRANCH   1   6
ATOM      6  C   ILE A   1     -24.245  -3.053 -12.175  1.00  0.00     0.174 C 
ATOM      7  O   ILE A   1     -25.076  -3.152 -11.282  1.00  0.00    -0.648 OA
BRANCH   6   8
ATOM      8  OXT ILE A   1     -24.433  -2.254 -13.250  1.00  0.00    -0.775 OA
ATOM      9  HXT ILE A   1     -23.764  -1.552 -13.355  1.00  0.00     0.167 HD
ENDBRANCH   6   8
ENDBRANCH   1   6
BRANCH   1  10
ATOM     10  N   ILE A   1     -22.118  -3.336 -13.357  1.00  0.00     0.093 N 
ATOM     11  H1  ILE A   1     -21.172  -3.724 -13.282  1.00  0.00     0.314 HD
ATOM     12  H2  ILE A   1     -21.967  -2.325 -13.290  1.00  0.00     0.314 HD
ENDBRANCH   1  10
TORSDOF 5
ENDMDL
MODEL 2
REMARK VINA RESULT:      -5.2      2.169      2.745
REMARK  5 active torsions:
REMARK  status: ('A' for Active; 'I' for Inactive)
REMARK    1  A    between atoms: CG1_2  and  CB_3 
REMARK    2  A    between atoms: CB_3  and  CA_5 
REMARK    3  A    between atoms: CA_5  and  C_6 
REMARK    4  A    between atoms: CA_5  and  N_9 
REMARK    5  A    between atoms: C_6  and  OXT_8 
ROOT
ATOM      1  CA  ILE A   1     -23.573  -2.632 -12.670  1.00  0.00     0.318 C 
ENDROOT
BRANCH   1   2
ATOM      2  CB  ILE A   1     -22.562  -3.734 -12.248  1.00  0.00     0.024 C 
ATOM      3  CG2 ILE A   1     -23.276  -4.843 -11.452  1.00  0.00     0.012 C 
BRANCH   2   4
ATOM      4  CG1 ILE A   1     -21.390  -3.150 -11.425  1.00  0.00     0.002 C 
ATOM      5  CD1 ILE A   1     -20.394  -4.190 -10.922  1.00  0.00     0.005 C 
ENDBRANCH   2   4
ENDBRANCH   1   2
BRANCH   1   6
ATOM      6  C   ILE A   1     -23.465  -2.269 -14.171  1.00  0.00     0.174 C 
ATOM      7  O   ILE A   1     -22.752  -2.867 -14.967  1.00  0.00    -0.648 OA
BRANCH   6   8
ATOM      8  OXT ILE A   1     -24.259  -1.241 -14.546  1.00  0.00    -0.775 OA
ATOM      9  HXT ILE A   1     -24.690  -1.357 -15.412  1.00  0.00     0.167 HD
ENDBRANCH   6   8
ENDBRANCH   1   6
BRANCH   1  10
ATOM     10  N   ILE A   1     -24.964  -3.075 -12.410  1.00  0.00     0.093 N 
ATOM     11  H1  ILE A   1     -25.589  -2.456 -12.935  1.00  0.00     0.314 HD
ATOM     12  H2  ILE A   1     -25.197  -2.876 -11.433  1.00  0.00     0.314 HD
ENDBRANCH   1  10
TORSDOF 5
ENDMDL
MODEL 3
REMARK VINA RESULT:      -5.2      1.657      2.146
REMARK  5 active torsions:
REMARK  status: ('A' for Active; 'I' for Inactive)
REMARK    1  A    between atoms: CG1_2  and  CB_3 
REMARK    2  A    between atoms: CB_3  and  CA_5 
REMARK    3  A    between atoms: CA_5  and  C_6 
REMARK    4  A    between atoms: CA_5  and  N_9 
REMARK    5  A    between atoms: C_6  and  OXT_8 
ROOT
ATOM      1  CA  ILE A   1     -23.109  -4.538 -10.460  1.00  0.00     0.318 C 
ENDROOT
BRANCH   1   2
ATOM      2  CB  ILE A   1     -21.768  -3.914  -9.984  1.00  0.00     0.024 C 
ATOM      3  CG2 ILE A   1     -20.716  -3.977 -11.106  1.00  0.00     0.012 C 
BRANCH   2   4
ATOM      4  CG1 ILE A   1     -21.237  -4.609  -8.708  1.00  0.00     0.002 C 
ATOM      5  CD1 ILE A   1     -21.344  -3.765  -7.441  1.00  0.00     0.005 C 
ENDBRANCH   2   4
ENDBRANCH   1   2
BRANCH   1   6
ATOM      6  C   ILE A   1     -24.327  -3.629 -10.163  1.00  0.00     0.174 C 
ATOM      7  O   ILE A   1     -25.052  -3.157 -11.029  1.00  0.00    -0.648 OA
BRANCH   6   8
ATOM      8  OXT ILE A   1     -24.548  -3.423  -8.845  1.00  0.00    -0.775 OA
ATOM      9  HXT ILE A   1     -24.266  -2.549  -8.519  1.00  0.00     0.167 HD
ENDBRANCH   6   8
ENDBRANCH   1   6
BRANCH   1  10
ATOM     10  N   ILE A   1     -23.076  -4.786 -11.922  1.00  0.00     0.093 N 
ATOM     11  H1  ILE A   1     -23.090  -5.802 -12.063  1.00  0.00     0.314 HD
ATOM     12  H2  ILE A   1     -22.159  -4.508 -12.284  1.00  0.00     0.314 HD
ENDBRANCH   1  10
TORSDOF 5
ENDMDL
MODEL 4
REMARK VINA RESULT:      -5.2      1.790      2.645
REMARK  5 active torsions:
REMARK  status: ('A' for Active; 'I' for Inactive)
REMARK    1  A    between atoms: CG1_2  and  CB_3 
REMARK    2  A    between atoms: CB_3  and  CA_5 
REMARK    3  A    between atoms: CA_5  and  C_6 
REMARK    4  A    between atoms: CA_5  and  N_9 
REMARK    5  A    between atoms: C_6  and  OXT_8 
ROOT
ATOM      1  CA  ILE A   1     -23.111  -4.241 -10.710  1.00  0.00     0.318 C 
ENDROOT
BRANCH   1   2
ATOM      2  CB  ILE A   1     -22.216  -3.123 -11.313  1.00  0.00     0.024 C 
ATOM      3  CG2 ILE A   1     -22.561  -2.898 -12.796  1.00  0.00     0.012 C 
BRANCH   2   4
ATOM      4  CG1 ILE A   1     -20.712  -3.448 -11.153  1.00  0.00     0.002 C 
ATOM      5  CD1 ILE A   1     -20.395  -4.421 -10.021  1.00  0.00     0.005 C 
ENDBRANCH   2   4
ENDBRANCH   1   2
BRANCH   1   6
ATOM      6  C   ILE A   1     -24.316  -3.677  -9.919  1.00  0.00     0.174 C 
ATOM      7  O   ILE A   1     -25.333  -3.242 -10.445  1.00  0.00    -0.648 OA
BRANCH   6   8
ATOM      8  OXT ILE A   1     -24.167  -3.735  -8.576  1.00  0.00    -0.775 OA
ATOM      9  HXT ILE A   1     -23.285  -3.474  -8.255  1.00  0.00     0.167 HD
ENDBRANCH   6   8
ENDBRANCH   1   6
BRANCH   1  10
ATOM     10  N   ILE A   1     -23.643  -5.116 -11.783  1.00  0.00     0.093 N 
ATOM     11  H1  ILE A   1     -23.982  -4.509 -12.536  1.00  0.00     0.314 HD
ATOM     12  H2  ILE A   1     -24.494  -5.575 -11.446  1.00  0.00     0.314 HD
ENDBRANCH   1  10
TORSDOF 5
ENDMDL
MODEL 5
REMARK VINA RESULT:      -5.0      2.999      3.903
REMARK  5 active torsions:
REMARK  status: ('A' for Active; 'I' for Inactive)
REMARK    1  A    between atoms: CG1_2  and  CB_3 
REMARK    2  A    between atoms: CB_3  and  CA_5 
REMARK    3  A    between atoms: CA_5  and  C_6 
REMARK    4  A    between atoms: CA_5  and  N_9 
REMARK    5  A    between atoms: C_6  and  OXT_8 
ROOT
ATOM      1  CA  ILE A   1     -23.736  -4.304  -9.700  1.00  0.00     0.318 C 
ENDROOT
BRANCH   1   2
ATOM      2  CB  ILE A   1     -23.006  -3.514 -10.822  1.00  0.00     0.024 C 
ATOM      3  CG2 ILE A   1     -24.015  -3.015 -11.873  1.00  0.00     0.012 C 
BRANCH   2   4
ATOM      4  CG1 ILE A   1     -21.904  -4.364 -11.495  1.00  0.00     0.002 C 
ATOM      5  CD1 ILE A   1     -20.481  -3.916 -11.177  1.00  0.00     0.005 C 
ENDBRANCH   2   4
ENDBRANCH   1   2
BRANCH   1   6
ATOM      6  C   ILE A   1     -23.145  -4.027  -8.297  1.00  0.00     0.174 C 
ATOM      7  O   ILE A   1     -22.004  -3.624  -8.106  1.00  0.00    -0.648 OA
BRANCH   6   8
ATOM      8  OXT ILE A   1     -24.015  -4.238  -7.283  1.00  0.00    -0.775 OA
ATOM      9  HXT ILE A   1     -24.504  -3.445  -6.997  1.00  0.00     0.167 HD
ENDBRANCH   6   8
ENDBRANCH   1   6
BRANCH   1  10
ATOM     10  N   ILE A   1     -25.175  -3.946  -9.665  1.00  0.00     0.093 N 
ATOM     11  H1  ILE A   1     -25.253  -2.957  -9.924  1.00  0.00     0.314 HD
ATOM     12  H2  ILE A   1     -25.497  -3.964  -8.693  1.00  0.00     0.314 HD
ENDBRANCH   1  10
TORSDOF 5
ENDMDL
MODEL 6
REMARK VINA RESULT:      -4.9      1.404      2.292
REMARK  5 active torsions:
REMARK  status: ('A' for Active; 'I' for Inactive)
REMARK    1  A    between atoms: CG1_2  and  CB_3 
REMARK    2  A    between atoms: CB_3  and  CA_5 
REMARK    3  A    between atoms: CA_5  and  C_6 
REMARK    4  A    between atoms: CA_5  and  N_9 
REMARK    5  A    between atoms: C_6  and  OXT_8 
ROOT
ATOM      1  CA  ILE A   1     -23.781  -4.721 -10.751  1.00  0.00     0.318 C 
ENDROOT
BRANCH   1   2
ATOM      2  CB  ILE A   1     -22.510  -4.634  -9.861  1.00  0.00     0.024 C 
ATOM      3  CG2 ILE A   1     -22.864  -4.080  -8.469  1.00  0.00     0.012 C 
BRANCH   2   4
ATOM      4  CG1 ILE A   1     -21.409  -3.770 -10.520  1.00  0.00     0.002 C 
ATOM      5  CD1 ILE A   1     -20.084  -4.495 -10.734  1.00  0.00     0.005 C 
ENDBRANCH   2   4
ENDBRANCH   1   2
BRANCH   1   6
ATOM      6  C   ILE A   1     -24.579  -3.395 -10.780  1.00  0.00     0.174 C 
ATOM      7  O   ILE A   1     -25.480  -3.125  -9.996  1.00  0.00    -0.648 OA
BRANCH   6   8
ATOM      8  OXT ILE A   1     -24.172  -2.531 -11.737  1.00  0.00    -0.775 OA
ATOM      9  HXT ILE A   1     -24.430  -2.779 -12.644  1.00  0.00     0.167 HD
ENDBRANCH   6   8
ENDBRANCH   1   6
BRANCH   1  10
ATOM     10  N   ILE A   1     -23.415  -5.061 -12.147  1.00  0.00     0.093 N 
ATOM     11  H1  ILE A   1     -24.088  -4.597 -12.765  1.00  0.00     0.314 HD
ATOM     12  H2  ILE A   1     -23.595  -6.057 -12.304  1.00  0.00     0.314 HD
ENDBRANCH   1  10
TORSDOF 5
ENDMDL
MODEL 7
REMARK VINA RESULT:      -4.5      8.977     10.330
REMARK  5 active torsions:
REMARK  status: ('A' for Active; 'I' for Inactive)
REMARK    1  A    between atoms: CG1_2  and  CB_3 
REMARK    2  A    between atoms: CB_3  and  CA_5 
REMARK    3  A    between atoms: CA_5  and  C_6 
REMARK    4  A    between atoms: CA_5  and  N_9 
REMARK    5  A    between atoms: C_6  and  OXT_8 
ROOT
ATOM      1  CA  ILE A   1     -31.877  -5.043 -16.576  1.00  0.00     0.318 C 
ENDROOT
BRANCH   1   2
ATOM      2  CB  ILE A   1     -30.542  -5.738 -16.964  1.00  0.00     0.024 C 
ATOM      3  CG2 ILE A   1     -30.817  -7.095 -17.636  1.00  0.00     0.012 C 
BRANCH   2   4
ATOM      4  CG1 ILE A   1     -29.617  -5.921 -15.738  1.00  0.00     0.002 C 
ATOM      5  CD1 ILE A   1     -28.355  -6.731 -16.017  1.00  0.00     0.005 C 
ENDBRANCH   2   4
ENDBRANCH   1   2
BRANCH   1   6
ATOM      6  C   ILE A   1     -32.064  -3.678 -17.281  1.00  0.00     0.174 C 
ATOM      7  O   ILE A   1     -31.136  -2.980 -17.670  1.00  0.00    -0.648 OA
BRANCH   6   8
ATOM      8  OXT ILE A   1     -33.357  -3.327 -17.464  1.00  0.00    -0.775 OA
ATOM      9  HXT ILE A   1     -33.845  -3.136 -16.643  1.00  0.00     0.167 HD
ENDBRANCH   6   8
ENDBRANCH   1   6
BRANCH   1  10
ATOM     10  N   ILE A   1     -33.032  -5.901 -16.937  1.00  0.00     0.093 N 
ATOM     11  H1  ILE A   1     -33.655  -5.939 -16.123  1.00  0.00     0.314 HD
ATOM     12  H2  ILE A   1     -32.709  -6.868 -17.035  1.00  0.00     0.314 HD
ENDBRANCH   1  10
TORSDOF 5
ENDMDL
MODEL 8
REMARK VINA RESULT:      -4.5      1.488      2.080
REMARK  5 active torsions:
REMARK  status: ('A' for Active; 'I' for Inactive)
REMARK    1  A    between atoms: CG1_2  and  CB_3 
REMARK    2  A    between atoms: CB_3  and  CA_5 
REMARK    3  A    between atoms: CA_5  and  C_6 
REMARK    4  A    between atoms: CA_5  and  N_9 
REMARK    5  A    between atoms: C_6  and  OXT_8 
ROOT
ATOM      1  CA  ILE A   1     -23.550  -4.415 -11.551  1.00  0.00     0.318 C 
ENDROOT
BRANCH   1   2
ATOM      2  CB  ILE A   1     -23.648  -4.256 -10.008  1.00  0.00     0.024 C 
ATOM      3  CG2 ILE A   1     -24.799  -3.303  -9.636  1.00  0.00     0.012 C 
BRANCH   2   4
ATOM      4  CG1 ILE A   1     -22.316  -3.755  -9.400  1.00  0.00     0.002 C 
ATOM      5  CD1 ILE A   1     -22.064  -4.219  -7.969  1.00  0.00     0.005 C 
ENDBRANCH   2   4
ENDBRANCH   1   2
BRANCH   1   6
ATOM      6  C   ILE A   1     -23.943  -3.123 -12.308  1.00  0.00     0.174 C 
ATOM      7  O   ILE A   1     -23.193  -2.166 -12.456  1.00  0.00    -0.648 OA
BRANCH   6   8
ATOM      8  OXT ILE A   1     -25.189  -3.150 -12.831  1.00  0.00    -0.775 OA
ATOM      9  HXT ILE A   1     -25.706  -2.336 -12.689  1.00  0.00     0.167 HD
ENDBRANCH   6   8
ENDBRANCH   1   6
BRANCH   1  10
ATOM     10  N   ILE A   1     -22.167  -4.772 -11.949  1.00  0.00     0.093 N 
ATOM     11  H1  ILE A   1     -21.891  -4.138 -12.706  1.00  0.00     0.314 HD
ATOM     12  H2  ILE A   1     -22.179  -5.691 -12.400  1.00  0.00     0.314 HD
ENDBRANCH   1  10
TORSDOF 5
ENDMDL
MODEL 9
REMARK VINA RESULT:      -4.4      2.702      3.274
REMARK  5 active torsions:
REMARK  status: ('A' for Active; 'I' for Inactive)
REMARK    1  A    between atoms: CG1_2  and  CB_3 
REMARK    2  A    between atoms: CB_3  and  CA_5 
REMARK    3  A    between atoms: CA_5  and  C_6 
REMARK    4  A    between atoms: CA_5  and  N_9 
REMARK    5  A    between atoms: C_6  and  OXT_8 
ROOT
ATOM      1  CA  ILE A   1     -22.480  -3.766  -9.697  1.00  0.00     0.318 C 
ENDROOT
BRANCH   1   2
ATOM      2  CB  ILE A   1     -21.628  -4.609  -8.707  1.00  0.00     0.024 C 
ATOM      3  CG2 ILE A   1     -22.092  -4.369  -7.258  1.00  0.00     0.012 C 
BRANCH   2   4
ATOM      4  CG1 ILE A   1     -20.119  -4.301  -8.847  1.00  0.00     0.002 C 
ATOM      5  CD1 ILE A   1     -19.315  -4.499  -7.566  1.00  0.00     0.005 C 
ENDBRANCH   2   4
ENDBRANCH   1   2
BRANCH   1   6
ATOM      6  C   ILE A   1     -22.809  -4.533 -11.001  1.00  0.00     0.174 C 
ATOM      7  O   ILE A   1     -23.840  -5.169 -11.175  1.00  0.00    -0.648 OA
BRANCH   6   8
ATOM      8  OXT ILE A   1     -21.863  -4.414 -11.960  1.00  0.00    -0.775 OA
ATOM      9  HXT ILE A   1     -21.775  -3.519 -12.334  1.00  0.00     0.167 HD
ENDBRANCH   6   8
ENDBRANCH   1   6
BRANCH   1  10
ATOM     10  N   ILE A   1     -23.763  -3.368  -9.069  1.00  0.00     0.093 N 
ATOM     11  H1  ILE A   1     -23.675  -2.388  -8.781  1.00  0.00     0.314 HD
ATOM     12  H2  ILE A   1     -23.867  -3.869  -8.182  1.00  0.00     0.314 HD
ENDBRANCH   1  10
TORSDOF 5
ENDMDL
