MODEL 1
REMARK VINA RESULT:      -4.3      0.000      0.000
REMARK  22 active torsions:
REMARK  status: ('A' for Active; 'I' for Inactive)
REMARK    1  A    between atoms: C_2  and  N_3 
REMARK    2  A    between atoms: N_3  and  C_6 
REMARK    3  A    between atoms: C_6  and  C_7 
REMARK    4  A    between atoms: C_7  and  C_8 
REMARK    5  A    between atoms: C_8  and  N_9 
REMARK       I    between atoms: N_9  and  C_10 
REMARK    6  A    between atoms: C_10  and  C_12 
REMARK    7  A    between atoms: C_12  and  C_13 
REMARK    8  A    between atoms: C_13  and  C_14 
REMARK    9  A    between atoms: C_14  and  C_15 
REMARK   10  A    between atoms: C_15  and  C_16 
REMARK   11  A    between atoms: C_16  and  C_17 
REMARK   12  A    between atoms: C_17  and  C_18 
REMARK   13  A    between atoms: C_18  and  C_19 
REMARK   14  A    between atoms: C_19  and  C_20 
REMARK   15  A    between atoms: C_20  and  C_21 
REMARK   16  A    between atoms: C_21  and  C_22 
REMARK   17  A    between atoms: C_22  and  C_23 
REMARK   18  A    between atoms: C_23  and  C_24 
REMARK   19  A    between atoms: C_24  and  C_25 
REMARK   20  A    between atoms: C_25  and  C_26 
REMARK   21  A    between atoms: C_31  and  O_32 
REMARK   22  A    between atoms: O_32  and  S_33 
ROOT
HETATM    1  S   UNL     2     -30.414 -14.596 -20.996  1.00  0.00     0.251 S 
HETATM    2  O   UNL     2     -31.535 -14.142 -21.819  1.00  0.00    -0.572 OA
HETATM    3  O   UNL     2     -29.090 -14.186 -21.455  1.00  0.00    -0.572 OA
HETATM    4  O   UNL     2     -30.566 -16.024 -20.710  1.00  0.00    -0.572 OA
ENDROOT
BRANCH   1   5
HETATM    5  O   UNL     2     -30.619 -13.857 -19.561  1.00  0.00    -0.257 OA
BRANCH   5   6
HETATM    6  C   UNL     2     -30.362 -14.671 -18.435  1.00  0.00     0.188 C 
HETATM    7  C   UNL     2     -28.901 -14.716 -18.041  1.00  0.00     0.035 C 
ENDBRANCH   5   6
ENDBRANCH   1   5
TORSDOF 22
ENDMDL
MODEL 2
REMARK VINA RESULT:      -4.3     14.974     15.789
REMARK  22 active torsions:
REMARK  status: ('A' for Active; 'I' for Inactive)
REMARK    1  A    between atoms: C_2  and  N_3 
REMARK    2  A    between atoms: N_3  and  C_6 
REMARK    3  A    between atoms: C_6  and  C_7 
REMARK    4  A    between atoms: C_7  and  C_8 
REMARK    5  A    between atoms: C_8  and  N_9 
REMARK       I    between atoms: N_9  and  C_10 
REMARK    6  A    between atoms: C_10  and  C_12 
REMARK    7  A    between atoms: C_12  and  C_13 
REMARK    8  A    between atoms: C_13  and  C_14 
REMARK    9  A    between atoms: C_14  and  C_15 
REMARK   10  A    between atoms: C_15  and  C_16 
REMARK   11  A    between atoms: C_16  and  C_17 
REMARK   12  A    between atoms: C_17  and  C_18 
REMARK   13  A    between atoms: C_18  and  C_19 
REMARK   14  A    between atoms: C_19  and  C_20 
REMARK   15  A    between atoms: C_20  and  C_21 
REMARK   16  A    between atoms: C_21  and  C_22 
REMARK   17  A    between atoms: C_22  and  C_23 
REMARK   18  A    between atoms: C_23  and  C_24 
REMARK   19  A    between atoms: C_24  and  C_25 
REMARK   20  A    between atoms: C_25  and  C_26 
REMARK   21  A    between atoms: C_31  and  O_32 
REMARK   22  A    between atoms: O_32  and  S_33 
ROOT
HETATM    1  S   UNL     2     -35.292  -0.887 -13.207  1.00  0.00     0.251 S 
HETATM    2  O   UNL     2     -34.775  -0.261 -14.424  1.00  0.00    -0.572 OA
HETATM    3  O   UNL     2     -36.740  -1.065 -13.157  1.00  0.00    -0.572 OA
HETATM    4  O   UNL     2     -34.697  -0.240 -12.036  1.00  0.00    -0.572 OA
ENDROOT
BRANCH   1   5
HETATM    5  O   UNL     2     -34.674  -2.393 -13.213  1.00  0.00    -0.257 OA
BRANCH   5   6
HETATM    6  C   UNL     2     -34.583  -2.999 -11.940  1.00  0.00     0.188 C 
HETATM    7  C   UNL     2     -33.168  -3.361 -11.541  1.00  0.00     0.035 C 
ENDBRANCH   5   6
ENDBRANCH   1   5
TORSDOF 22
ENDMDL
MODEL 3
REMARK VINA RESULT:      -4.1     15.110     15.765
REMARK  22 active torsions:
REMARK  status: ('A' for Active; 'I' for Inactive)
REMARK    1  A    between atoms: C_2  and  N_3 
REMARK    2  A    between atoms: N_3  and  C_6 
REMARK    3  A    between atoms: C_6  and  C_7 
REMARK    4  A    between atoms: C_7  and  C_8 
REMARK    5  A    between atoms: C_8  and  N_9 
REMARK       I    between atoms: N_9  and  C_10 
REMARK    6  A    between atoms: C_10  and  C_12 
REMARK    7  A    between atoms: C_12  and  C_13 
REMARK    8  A    between atoms: C_13  and  C_14 
REMARK    9  A    between atoms: C_14  and  C_15 
REMARK   10  A    between atoms: C_15  and  C_16 
REMARK   11  A    between atoms: C_16  and  C_17 
REMARK   12  A    between atoms: C_17  and  C_18 
REMARK   13  A    between atoms: C_18  and  C_19 
REMARK   14  A    between atoms: C_19  and  C_20 
REMARK   15  A    between atoms: C_20  and  C_21 
REMARK   16  A    between atoms: C_21  and  C_22 
REMARK   17  A    between atoms: C_22  and  C_23 
REMARK   18  A    between atoms: C_23  and  C_24 
REMARK   19  A    between atoms: C_24  and  C_25 
REMARK   20  A    between atoms: C_25  and  C_26 
REMARK   21  A    between atoms: C_31  and  O_32 
REMARK   22  A    between atoms: O_32  and  S_33 
ROOT
HETATM    1  S   UNL     2     -24.137  -3.315 -12.054  1.00  0.00     0.251 S 
HETATM    2  O   UNL     2     -24.998  -3.158 -10.882  1.00  0.00    -0.572 OA
HETATM    3  O   UNL     2     -24.549  -2.572 -13.241  1.00  0.00    -0.572 OA
HETATM    4  O   UNL     2     -23.857  -4.737 -12.267  1.00  0.00    -0.572 OA
ENDROOT
BRANCH   1   5
HETATM    5  O   UNL     2     -22.708  -2.669 -11.617  1.00  0.00    -0.257 OA
BRANCH   5   6
HETATM    6  C   UNL     2     -21.975  -3.434 -10.683  1.00  0.00     0.188 C 
HETATM    7  C   UNL     2     -20.584  -3.798 -11.157  1.00  0.00     0.035 C 
ENDBRANCH   5   6
ENDBRANCH   1   5
TORSDOF 22
ENDMDL
MODEL 4
REMARK VINA RESULT:      -4.1     14.603     15.342
REMARK  22 active torsions:
REMARK  status: ('A' for Active; 'I' for Inactive)
REMARK    1  A    between atoms: C_2  and  N_3 
REMARK    2  A    between atoms: N_3  and  C_6 
REMARK    3  A    between atoms: C_6  and  C_7 
REMARK    4  A    between atoms: C_7  and  C_8 
REMARK    5  A    between atoms: C_8  and  N_9 
REMARK       I    between atoms: N_9  and  C_10 
REMARK    6  A    between atoms: C_10  and  C_12 
REMARK    7  A    between atoms: C_12  and  C_13 
REMARK    8  A    between atoms: C_13  and  C_14 
REMARK    9  A    between atoms: C_14  and  C_15 
REMARK   10  A    between atoms: C_15  and  C_16 
REMARK   11  A    between atoms: C_16  and  C_17 
REMARK   12  A    between atoms: C_17  and  C_18 
REMARK   13  A    between atoms: C_18  and  C_19 
REMARK   14  A    between atoms: C_19  and  C_20 
REMARK   15  A    between atoms: C_20  and  C_21 
REMARK   16  A    between atoms: C_21  and  C_22 
REMARK   17  A    between atoms: C_22  and  C_23 
REMARK   18  A    between atoms: C_23  and  C_24 
REMARK   19  A    between atoms: C_24  and  C_25 
REMARK   20  A    between atoms: C_25  and  C_26 
REMARK   21  A    between atoms: C_31  and  O_32 
REMARK   22  A    between atoms: O_32  and  S_33 
ROOT
HETATM    1  S   UNL     2     -23.426  -2.627 -14.343  1.00  0.00     0.251 S 
HETATM    2  O   UNL     2     -22.361  -2.797 -15.331  1.00  0.00    -0.572 OA
HETATM    3  O   UNL     2     -24.228  -3.817 -14.072  1.00  0.00    -0.572 OA
HETATM    4  O   UNL     2     -24.185  -1.413 -14.647  1.00  0.00    -0.572 OA
ENDROOT
BRANCH   1   5
HETATM    5  O   UNL     2     -22.657  -2.301 -12.946  1.00  0.00    -0.257 OA
BRANCH   5   6
HETATM    6  C   UNL     2     -22.768  -3.308 -11.961  1.00  0.00     0.188 C 
HETATM    7  C   UNL     2     -21.464  -4.018 -11.671  1.00  0.00     0.035 C 
ENDBRANCH   5   6
ENDBRANCH   1   5
TORSDOF 22
ENDMDL
MODEL 5
REMARK VINA RESULT:      -4.1     15.008     15.745
REMARK  22 active torsions:
REMARK  status: ('A' for Active; 'I' for Inactive)
REMARK    1  A    between atoms: C_2  and  N_3 
REMARK    2  A    between atoms: N_3  and  C_6 
REMARK    3  A    between atoms: C_6  and  C_7 
REMARK    4  A    between atoms: C_7  and  C_8 
REMARK    5  A    between atoms: C_8  and  N_9 
REMARK       I    between atoms: N_9  and  C_10 
REMARK    6  A    between atoms: C_10  and  C_12 
REMARK    7  A    between atoms: C_12  and  C_13 
REMARK    8  A    between atoms: C_13  and  C_14 
REMARK    9  A    between atoms: C_14  and  C_15 
REMARK   10  A    between atoms: C_15  and  C_16 
REMARK   11  A    between atoms: C_16  and  C_17 
REMARK   12  A    between atoms: C_17  and  C_18 
REMARK   13  A    between atoms: C_18  and  C_19 
REMARK   14  A    between atoms: C_19  and  C_20 
REMARK   15  A    between atoms: C_20  and  C_21 
REMARK   16  A    between atoms: C_21  and  C_22 
REMARK   17  A    between atoms: C_22  and  C_23 
REMARK   18  A    between atoms: C_23  and  C_24 
REMARK   19  A    between atoms: C_24  and  C_25 
REMARK   20  A    between atoms: C_25  and  C_26 
REMARK   21  A    between atoms: C_31  and  O_32 
REMARK   22  A    between atoms: O_32  and  S_33 
ROOT
HETATM    1  S   UNL     2     -24.160  -3.225 -11.980  1.00  0.00     0.251 S 
HETATM    2  O   UNL     2     -23.735  -4.620 -12.103  1.00  0.00    -0.572 OA
HETATM    3  O   UNL     2     -25.361  -2.866 -12.728  1.00  0.00    -0.572 OA
HETATM    4  O   UNL     2     -23.008  -2.344 -12.178  1.00  0.00    -0.572 OA
ENDROOT
BRANCH   1   5
HETATM    5  O   UNL     2     -24.560  -3.044 -10.413  1.00  0.00    -0.257 OA
BRANCH   5   6
HETATM    6  C   UNL     2     -24.177  -4.117  -9.577  1.00  0.00     0.188 C 
HETATM    7  C   UNL     2     -22.899  -3.859  -8.808  1.00  0.00     0.035 C 
ENDBRANCH   5   6
ENDBRANCH   1   5
TORSDOF 22
ENDMDL
MODEL 6
REMARK VINA RESULT:      -4.1     14.329     15.053
REMARK  22 active torsions:
REMARK  status: ('A' for Active; 'I' for Inactive)
REMARK    1  A    between atoms: C_2  and  N_3 
REMARK    2  A    between atoms: N_3  and  C_6 
REMARK    3  A    between atoms: C_6  and  C_7 
REMARK    4  A    between atoms: C_7  and  C_8 
REMARK    5  A    between atoms: C_8  and  N_9 
REMARK       I    between atoms: N_9  and  C_10 
REMARK    6  A    between atoms: C_10  and  C_12 
REMARK    7  A    between atoms: C_12  and  C_13 
REMARK    8  A    between atoms: C_13  and  C_14 
REMARK    9  A    between atoms: C_14  and  C_15 
REMARK   10  A    between atoms: C_15  and  C_16 
REMARK   11  A    between atoms: C_16  and  C_17 
REMARK   12  A    between atoms: C_17  and  C_18 
REMARK   13  A    between atoms: C_18  and  C_19 
REMARK   14  A    between atoms: C_19  and  C_20 
REMARK   15  A    between atoms: C_20  and  C_21 
REMARK   16  A    between atoms: C_21  and  C_22 
REMARK   17  A    between atoms: C_22  and  C_23 
REMARK   18  A    between atoms: C_23  and  C_24 
REMARK   19  A    between atoms: C_24  and  C_25 
REMARK   20  A    between atoms: C_25  and  C_26 
REMARK   21  A    between atoms: C_31  and  O_32 
REMARK   22  A    between atoms: O_32  and  S_33 
ROOT
HETATM    1  S   UNL     2     -34.713  -2.131 -12.075  1.00  0.00     0.251 S 
HETATM    2  O   UNL     2     -34.605  -0.692 -11.834  1.00  0.00    -0.572 OA
HETATM    3  O   UNL     2     -34.627  -2.542 -13.473  1.00  0.00    -0.572 OA
HETATM    4  O   UNL     2     -35.854  -2.666 -11.330  1.00  0.00    -0.572 OA
ENDROOT
BRANCH   1   5
HETATM    5  O   UNL     2     -33.404  -2.777 -11.355  1.00  0.00    -0.257 OA
BRANCH   5   6
HETATM    6  C   UNL     2     -32.949  -3.984 -11.931  1.00  0.00     0.188 C 
HETATM    7  C   UNL     2     -33.457  -5.222 -11.225  1.00  0.00     0.035 C 
ENDBRANCH   5   6
ENDBRANCH   1   5
TORSDOF 22
ENDMDL
MODEL 7
REMARK VINA RESULT:      -4.0     15.365     16.182
REMARK  22 active torsions:
REMARK  status: ('A' for Active; 'I' for Inactive)
REMARK    1  A    between atoms: C_2  and  N_3 
REMARK    2  A    between atoms: N_3  and  C_6 
REMARK    3  A    between atoms: C_6  and  C_7 
REMARK    4  A    between atoms: C_7  and  C_8 
REMARK    5  A    between atoms: C_8  and  N_9 
REMARK       I    between atoms: N_9  and  C_10 
REMARK    6  A    between atoms: C_10  and  C_12 
REMARK    7  A    between atoms: C_12  and  C_13 
REMARK    8  A    between atoms: C_13  and  C_14 
REMARK    9  A    between atoms: C_14  and  C_15 
REMARK   10  A    between atoms: C_15  and  C_16 
REMARK   11  A    between atoms: C_16  and  C_17 
REMARK   12  A    between atoms: C_17  and  C_18 
REMARK   13  A    between atoms: C_18  and  C_19 
REMARK   14  A    between atoms: C_19  and  C_20 
REMARK   15  A    between atoms: C_20  and  C_21 
REMARK   16  A    between atoms: C_21  and  C_22 
REMARK   17  A    between atoms: C_22  and  C_23 
REMARK   18  A    between atoms: C_23  and  C_24 
REMARK   19  A    between atoms: C_24  and  C_25 
REMARK   20  A    between atoms: C_25  and  C_26 
REMARK   21  A    between atoms: C_31  and  O_32 
REMARK   22  A    between atoms: O_32  and  S_33 
ROOT
HETATM    1  S   UNL     2     -35.276  -1.082 -13.186  1.00  0.00     0.251 S 
HETATM    2  O   UNL     2     -36.736  -1.002 -13.141  1.00  0.00    -0.572 OA
HETATM    3  O   UNL     2     -34.726  -2.413 -13.424  1.00  0.00    -0.572 OA
HETATM    4  O   UNL     2     -34.712  -0.363 -12.042  1.00  0.00    -0.572 OA
ENDROOT
BRANCH   1   5
HETATM    5  O   UNL     2     -34.847  -0.201 -14.486  1.00  0.00    -0.257 OA
BRANCH   5   6
HETATM    6  C   UNL     2     -35.858  -0.058 -15.462  1.00  0.00     0.188 C 
HETATM    7  C   UNL     2     -35.758  -1.062 -16.590  1.00  0.00     0.035 C 
ENDBRANCH   5   6
ENDBRANCH   1   5
TORSDOF 22
ENDMDL
MODEL 8
REMARK VINA RESULT:      -4.0     15.359     16.225
REMARK  22 active torsions:
REMARK  status: ('A' for Active; 'I' for Inactive)
REMARK    1  A    between atoms: C_2  and  N_3 
REMARK    2  A    between atoms: N_3  and  C_6 
REMARK    3  A    between atoms: C_6  and  C_7 
REMARK    4  A    between atoms: C_7  and  C_8 
REMARK    5  A    between atoms: C_8  and  N_9 
REMARK       I    between atoms: N_9  and  C_10 
REMARK    6  A    between atoms: C_10  and  C_12 
REMARK    7  A    between atoms: C_12  and  C_13 
REMARK    8  A    between atoms: C_13  and  C_14 
REMARK    9  A    between atoms: C_14  and  C_15 
REMARK   10  A    between atoms: C_15  and  C_16 
REMARK   11  A    between atoms: C_16  and  C_17 
REMARK   12  A    between atoms: C_17  and  C_18 
REMARK   13  A    between atoms: C_18  and  C_19 
REMARK   14  A    between atoms: C_19  and  C_20 
REMARK   15  A    between atoms: C_20  and  C_21 
REMARK   16  A    between atoms: C_21  and  C_22 
REMARK   17  A    between atoms: C_22  and  C_23 
REMARK   18  A    between atoms: C_23  and  C_24 
REMARK   19  A    between atoms: C_24  and  C_25 
REMARK   20  A    between atoms: C_25  and  C_26 
REMARK   21  A    between atoms: C_31  and  O_32 
REMARK   22  A    between atoms: O_32  and  S_33 
ROOT
HETATM    1  S   UNL     2     -24.048  -3.863 -10.107  1.00  0.00     0.251 S 
HETATM    2  O   UNL     2     -23.396  -3.730  -8.804  1.00  0.00    -0.572 OA
HETATM    3  O   UNL     2     -25.338  -3.192 -10.236  1.00  0.00    -0.572 OA
HETATM    4  O   UNL     2     -24.023  -5.266 -10.524  1.00  0.00    -0.572 OA
ENDROOT
BRANCH   1   5
HETATM    5  O   UNL     2     -23.060  -3.099 -11.151  1.00  0.00    -0.257 OA
BRANCH   5   6
HETATM    6  C   UNL     2     -22.125  -3.935 -11.800  1.00  0.00     0.188 C 
HETATM    7  C   UNL     2     -20.748  -3.906 -11.172  1.00  0.00     0.035 C 
ENDBRANCH   5   6
ENDBRANCH   1   5
TORSDOF 22
ENDMDL
MODEL 9
REMARK VINA RESULT:      -3.9     15.633     16.332
REMARK  22 active torsions:
REMARK  status: ('A' for Active; 'I' for Inactive)
REMARK    1  A    between atoms: C_2  and  N_3 
REMARK    2  A    between atoms: N_3  and  C_6 
REMARK    3  A    between atoms: C_6  and  C_7 
REMARK    4  A    between atoms: C_7  and  C_8 
REMARK    5  A    between atoms: C_8  and  N_9 
REMARK       I    between atoms: N_9  and  C_10 
REMARK    6  A    between atoms: C_10  and  C_12 
REMARK    7  A    between atoms: C_12  and  C_13 
REMARK    8  A    between atoms: C_13  and  C_14 
REMARK    9  A    between atoms: C_14  and  C_15 
REMARK   10  A    between atoms: C_15  and  C_16 
REMARK   11  A    between atoms: C_16  and  C_17 
REMARK   12  A    between atoms: C_17  and  C_18 
REMARK   13  A    between atoms: C_18  and  C_19 
REMARK   14  A    between atoms: C_19  and  C_20 
REMARK   15  A    between atoms: C_20  and  C_21 
REMARK   16  A    between atoms: C_21  and  C_22 
REMARK   17  A    between atoms: C_22  and  C_23 
REMARK   18  A    between atoms: C_23  and  C_24 
REMARK   19  A    between atoms: C_24  and  C_25 
REMARK   20  A    between atoms: C_25  and  C_26 
REMARK   21  A    between atoms: C_31  and  O_32 
REMARK   22  A    between atoms: O_32  and  S_33 
ROOT
HETATM    1  S   UNL     2     -34.737  -2.120 -12.114  1.00  0.00     0.251 S 
HETATM    2  O   UNL     2     -33.533  -2.662 -11.484  1.00  0.00    -0.572 OA
HETATM    3  O   UNL     2     -35.992  -2.421 -11.434  1.00  0.00    -0.572 OA
HETATM    4  O   UNL     2     -34.711  -2.413 -13.549  1.00  0.00    -0.572 OA
ENDROOT
BRANCH   1   5
HETATM    5  O   UNL     2     -34.571  -0.503 -12.015  1.00  0.00    -0.257 OA
BRANCH   5   6
HETATM    6  C   UNL     2     -35.418   0.231 -12.874  1.00  0.00     0.188 C 
HETATM    7  C   UNL     2     -34.673   1.118 -13.848  1.00  0.00     0.035 C 
ENDBRANCH   5   6
ENDBRANCH   1   5
TORSDOF 22
ENDMDL
