MODEL 1
REMARK VINA RESULT:      -1.3      0.000      0.000
REMARK  12 active torsions:
REMARK  status: ('A' for Active; 'I' for Inactive)
REMARK    1  A    between atoms: C_2  and  C_3 
REMARK    2  A    between atoms: C_3  and  C_4 
REMARK    3  A    between atoms: C_4  and  C_5 
REMARK    4  A    between atoms: C_5  and  C_6 
REMARK    5  A    between atoms: C_6  and  C_7 
REMARK    6  A    between atoms: C_7  and  C_8 
REMARK    7  A    between atoms: C_8  and  C_9 
REMARK    8  A    between atoms: C_9  and  C_10 
REMARK    9  A    between atoms: C_10  and  C_11 
REMARK   10  A    between atoms: C_11  and  C_12 
REMARK   11  A    between atoms: C_12  and  O_13 
REMARK   12  A    between atoms: O_13  and  S_14 
ROOT
HETATM    1  H   UNL     1     -24.435   0.671 -15.505  1.00  0.00     0.271 HD
HETATM    2  H   UNL     1     -25.394  -0.667 -15.204  1.00  0.00     0.271 HD
HETATM    3  H   UNL     1     -24.296  -0.139 -14.047  1.00  0.00     0.271 HD
HETATM    4  H   UNL     1     -23.747  -0.857 -15.464  1.00  0.00     0.271 HD
HETATM    5  N   UNL     2     -24.467  -0.252 -15.052  1.00  0.00    -0.084 N 
ENDROOT
TORSDOF 12
ENDMDL
MODEL 2
REMARK VINA RESULT:      -1.2     13.500     13.500
REMARK  12 active torsions:
REMARK  status: ('A' for Active; 'I' for Inactive)
REMARK    1  A    between atoms: C_2  and  C_3 
REMARK    2  A    between atoms: C_3  and  C_4 
REMARK    3  A    between atoms: C_4  and  C_5 
REMARK    4  A    between atoms: C_5  and  C_6 
REMARK    5  A    between atoms: C_6  and  C_7 
REMARK    6  A    between atoms: C_7  and  C_8 
REMARK    7  A    between atoms: C_8  and  C_9 
REMARK    8  A    between atoms: C_9  and  C_10 
REMARK    9  A    between atoms: C_10  and  C_11 
REMARK   10  A    between atoms: C_11  and  C_12 
REMARK   11  A    between atoms: C_12  and  O_13 
REMARK   12  A    between atoms: O_13  and  S_14 
ROOT
HETATM    1  H   UNL     1     -33.612 -10.094 -10.159  1.00  0.00     0.271 HD
HETATM    2  H   UNL     1     -32.571  -8.842  -9.768  1.00  0.00     0.271 HD
HETATM    3  H   UNL     1     -34.233  -8.600  -9.729  1.00  0.00     0.271 HD
HETATM    4  H   UNL     1     -33.444  -8.791 -11.200  1.00  0.00     0.271 HD
HETATM    5  N   UNL     2     -33.466  -9.076 -10.214  1.00  0.00    -0.084 N 
ENDROOT
TORSDOF 12
ENDMDL
MODEL 3
REMARK VINA RESULT:      -1.1      7.779      7.779
REMARK  12 active torsions:
REMARK  status: ('A' for Active; 'I' for Inactive)
REMARK    1  A    between atoms: C_2  and  C_3 
REMARK    2  A    between atoms: C_3  and  C_4 
REMARK    3  A    between atoms: C_4  and  C_5 
REMARK    4  A    between atoms: C_5  and  C_6 
REMARK    5  A    between atoms: C_6  and  C_7 
REMARK    6  A    between atoms: C_7  and  C_8 
REMARK    7  A    between atoms: C_8  and  C_9 
REMARK    8  A    between atoms: C_9  and  C_10 
REMARK    9  A    between atoms: C_10  and  C_11 
REMARK   10  A    between atoms: C_11  and  C_12 
REMARK   11  A    between atoms: C_12  and  O_13 
REMARK   12  A    between atoms: O_13  and  S_14 
ROOT
HETATM    1  H   UNL     1     -23.654  -8.642 -17.119  1.00  0.00     0.271 HD
HETATM    2  H   UNL     1     -24.978  -7.879 -16.435  1.00  0.00     0.271 HD
HETATM    3  H   UNL     1     -24.517  -7.518 -18.009  1.00  0.00     0.271 HD
HETATM    4  H   UNL     1     -23.567  -7.017 -16.717  1.00  0.00     0.271 HD
HETATM    5  N   UNL     2     -24.181  -7.759 -17.071  1.00  0.00    -0.084 N 
ENDROOT
TORSDOF 12
ENDMDL
MODEL 4
REMARK VINA RESULT:      -1.1     12.700     12.700
REMARK  12 active torsions:
REMARK  status: ('A' for Active; 'I' for Inactive)
REMARK    1  A    between atoms: C_2  and  C_3 
REMARK    2  A    between atoms: C_3  and  C_4 
REMARK    3  A    between atoms: C_4  and  C_5 
REMARK    4  A    between atoms: C_5  and  C_6 
REMARK    5  A    between atoms: C_6  and  C_7 
REMARK    6  A    between atoms: C_7  and  C_8 
REMARK    7  A    between atoms: C_8  and  C_9 
REMARK    8  A    between atoms: C_9  and  C_10 
REMARK    9  A    between atoms: C_10  and  C_11 
REMARK   10  A    between atoms: C_11  and  C_12 
REMARK   11  A    between atoms: C_12  and  O_13 
REMARK   12  A    between atoms: O_13  and  S_14 
ROOT
HETATM    1  H   UNL     1     -36.718   2.103 -16.598  1.00  0.00     0.271 HD
HETATM    2  H   UNL     1     -35.989   3.327 -17.477  1.00  0.00     0.271 HD
HETATM    3  H   UNL     1     -36.182   3.481 -15.815  1.00  0.00     0.271 HD
HETATM    4  H   UNL     1     -37.520   3.557 -16.829  1.00  0.00     0.271 HD
HETATM    5  N   UNL     2     -36.602   3.122 -16.678  1.00  0.00    -0.084 N 
ENDROOT
TORSDOF 12
ENDMDL
MODEL 5
REMARK VINA RESULT:      -1.1      9.472      9.472
REMARK  12 active torsions:
REMARK  status: ('A' for Active; 'I' for Inactive)
REMARK    1  A    between atoms: C_2  and  C_3 
REMARK    2  A    between atoms: C_3  and  C_4 
REMARK    3  A    between atoms: C_4  and  C_5 
REMARK    4  A    between atoms: C_5  and  C_6 
REMARK    5  A    between atoms: C_6  and  C_7 
REMARK    6  A    between atoms: C_7  and  C_8 
REMARK    7  A    between atoms: C_8  and  C_9 
REMARK    8  A    between atoms: C_9  and  C_10 
REMARK    9  A    between atoms: C_10  and  C_11 
REMARK   10  A    between atoms: C_11  and  C_12 
REMARK   11  A    between atoms: C_12  and  O_13 
REMARK   12  A    between atoms: O_13  and  S_14 
ROOT
HETATM    1  H   UNL     1     -32.690  -2.861 -16.566  1.00  0.00     0.271 HD
HETATM    2  H   UNL     1     -32.486  -3.738 -17.976  1.00  0.00     0.271 HD
HETATM    3  H   UNL     1     -33.470  -2.377 -17.966  1.00  0.00     0.271 HD
HETATM    4  H   UNL     1     -33.958  -3.775 -17.172  1.00  0.00     0.271 HD
HETATM    5  N   UNL     2     -33.154  -3.188 -17.424  1.00  0.00    -0.084 N 
ENDROOT
TORSDOF 12
ENDMDL
MODEL 6
REMARK VINA RESULT:      -1.1      6.391      6.391
REMARK  12 active torsions:
REMARK  status: ('A' for Active; 'I' for Inactive)
REMARK    1  A    between atoms: C_2  and  C_3 
REMARK    2  A    between atoms: C_3  and  C_4 
REMARK    3  A    between atoms: C_4  and  C_5 
REMARK    4  A    between atoms: C_5  and  C_6 
REMARK    5  A    between atoms: C_6  and  C_7 
REMARK    6  A    between atoms: C_7  and  C_8 
REMARK    7  A    between atoms: C_8  and  C_9 
REMARK    8  A    between atoms: C_9  and  C_10 
REMARK    9  A    between atoms: C_10  and  C_11 
REMARK   10  A    between atoms: C_11  and  C_12 
REMARK   11  A    between atoms: C_12  and  O_13 
REMARK   12  A    between atoms: O_13  and  S_14 
ROOT
HETATM    1  H   UNL     1     -24.967  -3.250 -10.511  1.00  0.00     0.271 HD
HETATM    2  H   UNL     1     -25.237  -3.002  -8.877  1.00  0.00     0.271 HD
HETATM    3  H   UNL     1     -25.274  -4.558  -9.511  1.00  0.00     0.271 HD
HETATM    4  H   UNL     1     -26.503  -3.470  -9.875  1.00  0.00     0.271 HD
HETATM    5  N   UNL     2     -25.498  -3.573  -9.690  1.00  0.00    -0.084 N 
ENDROOT
TORSDOF 12
ENDMDL
MODEL 7
REMARK VINA RESULT:      -1.0     13.694     13.694
REMARK  12 active torsions:
REMARK  status: ('A' for Active; 'I' for Inactive)
REMARK    1  A    between atoms: C_2  and  C_3 
REMARK    2  A    between atoms: C_3  and  C_4 
REMARK    3  A    between atoms: C_4  and  C_5 
REMARK    4  A    between atoms: C_5  and  C_6 
REMARK    5  A    between atoms: C_6  and  C_7 
REMARK    6  A    between atoms: C_7  and  C_8 
REMARK    7  A    between atoms: C_8  and  C_9 
REMARK    8  A    between atoms: C_9  and  C_10 
REMARK    9  A    between atoms: C_10  and  C_11 
REMARK   10  A    between atoms: C_11  and  C_12 
REMARK   11  A    between atoms: C_12  and  O_13 
REMARK   12  A    between atoms: O_13  and  S_14 
ROOT
HETATM    1  H   UNL     1     -36.438  -7.056 -14.674  1.00  0.00     0.271 HD
HETATM    2  H   UNL     1     -35.867  -8.575 -15.084  1.00  0.00     0.271 HD
HETATM    3  H   UNL     1     -36.206  -8.206 -13.480  1.00  0.00     0.271 HD
HETATM    4  H   UNL     1     -34.882  -7.507 -14.243  1.00  0.00     0.271 HD
HETATM    5  N   UNL     2     -35.846  -7.839 -14.367  1.00  0.00    -0.084 N 
ENDROOT
TORSDOF 12
ENDMDL
MODEL 8
REMARK VINA RESULT:      -1.0     16.613     16.613
REMARK  12 active torsions:
REMARK  status: ('A' for Active; 'I' for Inactive)
REMARK    1  A    between atoms: C_2  and  C_3 
REMARK    2  A    between atoms: C_3  and  C_4 
REMARK    3  A    between atoms: C_4  and  C_5 
REMARK    4  A    between atoms: C_5  and  C_6 
REMARK    5  A    between atoms: C_6  and  C_7 
REMARK    6  A    between atoms: C_7  and  C_8 
REMARK    7  A    between atoms: C_8  and  C_9 
REMARK    8  A    between atoms: C_9  and  C_10 
REMARK    9  A    between atoms: C_10  and  C_11 
REMARK   10  A    between atoms: C_11  and  C_12 
REMARK   11  A    between atoms: C_12  and  O_13 
REMARK   12  A    between atoms: O_13  and  S_14 
ROOT
HETATM    1  H   UNL     1      -8.854   5.544 -17.743  1.00  0.00     0.271 HD
HETATM    2  H   UNL     1      -8.988   4.575 -19.101  1.00  0.00     0.271 HD
HETATM    3  H   UNL     1      -9.000   6.248 -19.255  1.00  0.00     0.271 HD
HETATM    4  H   UNL     1     -10.312   5.456 -18.566  1.00  0.00     0.271 HD
HETATM    5  N   UNL     2      -9.291   5.457 -18.671  1.00  0.00    -0.084 N 
ENDROOT
TORSDOF 12
ENDMDL
MODEL 9
REMARK VINA RESULT:      -1.0      4.071      4.071
REMARK  12 active torsions:
REMARK  status: ('A' for Active; 'I' for Inactive)
REMARK    1  A    between atoms: C_2  and  C_3 
REMARK    2  A    between atoms: C_3  and  C_4 
REMARK    3  A    between atoms: C_4  and  C_5 
REMARK    4  A    between atoms: C_5  and  C_6 
REMARK    5  A    between atoms: C_6  and  C_7 
REMARK    6  A    between atoms: C_7  and  C_8 
REMARK    7  A    between atoms: C_8  and  C_9 
REMARK    8  A    between atoms: C_9  and  C_10 
REMARK    9  A    between atoms: C_10  and  C_11 
REMARK   10  A    between atoms: C_11  and  C_12 
REMARK   11  A    between atoms: C_12  and  O_13 
REMARK   12  A    between atoms: O_13  and  S_14 
ROOT
HETATM    1  H   UNL     1     -22.451  -4.307 -13.580  1.00  0.00     0.271 HD
HETATM    2  H   UNL     1     -22.734  -2.804 -14.260  1.00  0.00     0.271 HD
HETATM    3  H   UNL     1     -21.250  -3.142 -13.550  1.00  0.00     0.271 HD
HETATM    4  H   UNL     1     -22.620  -2.963 -12.593  1.00  0.00     0.271 HD
HETATM    5  N   UNL     2     -22.261  -3.299 -13.495  1.00  0.00    -0.084 N 
ENDROOT
TORSDOF 12
ENDMDL
