MODEL 1
REMARK VINA RESULT:      -6.6      0.000      0.000
REMARK  16 active torsions:
REMARK  status: ('A' for Active; 'I' for Inactive)
REMARK    1  A    between atoms: C_2  and  C_3 
REMARK    2  A    between atoms: C_3  and  C_4 
REMARK    3  A    between atoms: C_4  and  C_5 
REMARK    4  A    between atoms: C_5  and  C_6 
REMARK    5  A    between atoms: C_6  and  C_7 
REMARK    6  A    between atoms: C_7  and  C_8 
REMARK    7  A    between atoms: C_8  and  C_9 
REMARK    8  A    between atoms: C_9  and  C_10 
REMARK    9  A    between atoms: C_10  and  C_11 
REMARK   10  A    between atoms: C_11  and  C_12 
REMARK   11  A    between atoms: C_12  and  C_13 
REMARK   12  A    between atoms: C_13  and  C_14 
REMARK   13  A    between atoms: C_14  and  C_15 
REMARK   14  A    between atoms: C_15  and  C_16 
REMARK   15  A    between atoms: C_16  and  O_17 
REMARK   16  A    between atoms: O_17  and  C_18 
ROOT
HETATM    1  C   UNL     1     -20.461  -6.616  -5.952  1.00  0.00     0.000 C 
ENDROOT
BRANCH   1   2
HETATM    2  C   UNL     1     -21.653  -6.876  -5.052  1.00  0.00     0.000 C 
BRANCH   2   3
HETATM    3  C   UNL     1     -21.177  -7.226  -3.656  1.00  0.00     0.000 C 
BRANCH   3   4
HETATM    4  C   UNL     1     -21.620  -6.155  -2.677  1.00  0.00     0.000 C 
BRANCH   4   5
HETATM    5  C   UNL     1     -22.209  -6.801  -1.438  1.00  0.00     0.000 C 
BRANCH   5   6
HETATM    6  C   UNL     1     -21.174  -7.697  -0.784  1.00  0.00     0.000 C 
BRANCH   6   7
HETATM    7  C   UNL     1     -21.771  -8.363   0.441  1.00  0.00     0.000 C 
BRANCH   7   8
HETATM    8  C   UNL     1     -23.158  -8.887   0.120  1.00  0.00    -0.000 C 
BRANCH   8   9
HETATM    9  C   UNL     1     -23.060 -10.198  -0.643  1.00  0.00    -0.005 C 
HETATM   10  C   UNL     1     -24.102 -11.171  -0.137  1.00  0.00     0.005 C 
ENDBRANCH   8   9
ENDBRANCH   7   8
ENDBRANCH   6   7
ENDBRANCH   5   6
ENDBRANCH   4   5
ENDBRANCH   3   4
ENDBRANCH   2   3
ENDBRANCH   1   2
BRANCH   1  11
HETATM   11  C   UNL     1     -20.176  -5.128  -6.005  1.00  0.00     0.000 C 
BRANCH  11  12
HETATM   12  C   UNL     1     -20.305  -4.634  -7.428  1.00  0.00     0.000 C 
BRANCH  12  13
HETATM   13  C   UNL     1     -21.417  -3.600  -7.533  1.00  0.00     0.000 C 
BRANCH  13  14
HETATM   14  C   UNL     1     -22.768  -4.281  -7.694  1.00  0.00     0.002 C 
BRANCH  14  15
HETATM   15  C   UNL     1     -23.083  -4.516  -9.168  1.00  0.00     0.027 C 
BRANCH  15  16
HETATM   16  C   UNL     1     -23.151  -3.211  -9.936  1.00  0.00     0.178 C 
BRANCH  16  17
HETATM   17  O   UNL     1     -24.346  -3.163 -10.770  1.00  0.00    -0.322 OA
BRANCH  17  18
HETATM   18  C   UNL     1     -24.123  -3.005 -12.107  1.00  0.00     0.254 C 
HETATM   19  O   UNL     1     -25.024  -2.892 -12.947  1.00  0.00    -0.266 OA
HETATM   20  C   UNL     1     -22.674  -2.965 -12.469  1.00  0.00     0.126 C 
ENDBRANCH  17  18
ENDBRANCH  16  17
ENDBRANCH  15  16
ENDBRANCH  14  15
ENDBRANCH  13  14
ENDBRANCH  12  13
ENDBRANCH  11  12
ENDBRANCH   1  11
TORSDOF 16
ENDMDL
MODEL 2
REMARK VINA RESULT:      -6.4      1.380      1.668
REMARK  16 active torsions:
REMARK  status: ('A' for Active; 'I' for Inactive)
REMARK    1  A    between atoms: C_2  and  C_3 
REMARK    2  A    between atoms: C_3  and  C_4 
REMARK    3  A    between atoms: C_4  and  C_5 
REMARK    4  A    between atoms: C_5  and  C_6 
REMARK    5  A    between atoms: C_6  and  C_7 
REMARK    6  A    between atoms: C_7  and  C_8 
REMARK    7  A    between atoms: C_8  and  C_9 
REMARK    8  A    between atoms: C_9  and  C_10 
REMARK    9  A    between atoms: C_10  and  C_11 
REMARK   10  A    between atoms: C_11  and  C_12 
REMARK   11  A    between atoms: C_12  and  C_13 
REMARK   12  A    between atoms: C_13  and  C_14 
REMARK   13  A    between atoms: C_14  and  C_15 
REMARK   14  A    between atoms: C_15  and  C_16 
REMARK   15  A    between atoms: C_16  and  O_17 
REMARK   16  A    between atoms: O_17  and  C_18 
ROOT
HETATM    1  C   UNL     1     -20.500  -5.611  -5.348  1.00  0.00     0.000 C 
ENDROOT
BRANCH   1   2
HETATM    2  C   UNL     1     -21.808  -6.286  -4.986  1.00  0.00     0.000 C 
BRANCH   2   3
HETATM    3  C   UNL     1     -21.537  -7.670  -4.427  1.00  0.00     0.000 C 
BRANCH   3   4
HETATM    4  C   UNL     1     -21.244  -7.576  -2.942  1.00  0.00     0.000 C 
BRANCH   4   5
HETATM    5  C   UNL     1     -21.986  -6.395  -2.345  1.00  0.00     0.000 C 
BRANCH   5   6
HETATM    6  C   UNL     1     -22.381  -6.706  -0.913  1.00  0.00     0.000 C 
BRANCH   6   7
HETATM    7  C   UNL     1     -21.732  -8.003  -0.470  1.00  0.00     0.000 C 
BRANCH   7   8
HETATM    8  C   UNL     1     -22.777  -8.926   0.129  1.00  0.00    -0.000 C 
BRANCH   8   9
HETATM    9  C   UNL     1     -22.927 -10.173  -0.727  1.00  0.00    -0.005 C 
HETATM   10  C   UNL     1     -24.050 -11.036  -0.193  1.00  0.00     0.005 C 
ENDBRANCH   8   9
ENDBRANCH   7   8
ENDBRANCH   6   7
ENDBRANCH   5   6
ENDBRANCH   4   5
ENDBRANCH   3   4
ENDBRANCH   2   3
ENDBRANCH   1   2
BRANCH   1  11
HETATM   11  C   UNL     1     -20.744  -4.569  -6.423  1.00  0.00     0.000 C 
BRANCH  11  12
HETATM   12  C   UNL     1     -21.951  -4.958  -7.246  1.00  0.00     0.000 C 
BRANCH  12  13
HETATM   13  C   UNL     1     -22.038  -4.100  -8.499  1.00  0.00     0.000 C 
BRANCH  13  14
HETATM   14  C   UNL     1     -20.649  -3.707  -8.977  1.00  0.00     0.002 C 
BRANCH  14  15
HETATM   15  C   UNL     1     -20.270  -4.482 -10.235  1.00  0.00     0.027 C 
BRANCH  15  16
HETATM   16  C   UNL     1     -21.396  -4.483 -11.248  1.00  0.00     0.178 C 
BRANCH  16  17
HETATM   17  O   UNL     1     -21.624  -3.140 -11.770  1.00  0.00    -0.322 OA
BRANCH  17  18
HETATM   18  C   UNL     1     -22.730  -2.996 -12.556  1.00  0.00     0.254 C 
HETATM   19  O   UNL     1     -22.691  -2.905 -13.789  1.00  0.00    -0.266 OA
HETATM   20  C   UNL     1     -24.010  -2.972 -11.786  1.00  0.00     0.126 C 
ENDBRANCH  17  18
ENDBRANCH  16  17
ENDBRANCH  15  16
ENDBRANCH  14  15
ENDBRANCH  13  14
ENDBRANCH  12  13
ENDBRANCH  11  12
ENDBRANCH   1  11
TORSDOF 16
ENDMDL
MODEL 3
REMARK VINA RESULT:      -6.4      1.480      2.906
REMARK  16 active torsions:
REMARK  status: ('A' for Active; 'I' for Inactive)
REMARK    1  A    between atoms: C_2  and  C_3 
REMARK    2  A    between atoms: C_3  and  C_4 
REMARK    3  A    between atoms: C_4  and  C_5 
REMARK    4  A    between atoms: C_5  and  C_6 
REMARK    5  A    between atoms: C_6  and  C_7 
REMARK    6  A    between atoms: C_7  and  C_8 
REMARK    7  A    between atoms: C_8  and  C_9 
REMARK    8  A    between atoms: C_9  and  C_10 
REMARK    9  A    between atoms: C_10  and  C_11 
REMARK   10  A    between atoms: C_11  and  C_12 
REMARK   11  A    between atoms: C_12  and  C_13 
REMARK   12  A    between atoms: C_13  and  C_14 
REMARK   13  A    between atoms: C_14  and  C_15 
REMARK   14  A    between atoms: C_15  and  C_16 
REMARK   15  A    between atoms: C_16  and  O_17 
REMARK   16  A    between atoms: O_17  and  C_18 
ROOT
HETATM    1  C   UNL     1     -21.373  -6.078  -3.429  1.00  0.00     0.000 C 
ENDROOT
BRANCH   1   2
HETATM    2  C   UNL     1     -22.086  -6.228  -2.100  1.00  0.00     0.000 C 
BRANCH   2   3
HETATM    3  C   UNL     1     -21.972  -7.659  -1.612  1.00  0.00     0.000 C 
BRANCH   3   4
HETATM    4  C   UNL     1     -22.109  -7.701  -0.101  1.00  0.00     0.000 C 
BRANCH   4   5
HETATM    5  C   UNL     1     -23.093  -8.784   0.297  1.00  0.00     0.000 C 
BRANCH   5   6
HETATM    6  C   UNL     1     -23.030  -9.927  -0.698  1.00  0.00     0.000 C 
BRANCH   6   7
HETATM    7  C   UNL     1     -23.733 -11.145  -0.128  1.00  0.00     0.000 C 
BRANCH   7   8
HETATM    8  C   UNL     1     -22.720 -12.071   0.519  1.00  0.00    -0.000 C 
BRANCH   8   9
HETATM    9  C   UNL     1     -23.308 -13.463   0.675  1.00  0.00    -0.005 C 
HETATM   10  C   UNL     1     -23.436 -13.809   2.143  1.00  0.00     0.005 C 
ENDBRANCH   8   9
ENDBRANCH   7   8
ENDBRANCH   6   7
ENDBRANCH   5   6
ENDBRANCH   4   5
ENDBRANCH   3   4
ENDBRANCH   2   3
ENDBRANCH   1   2
BRANCH   1  11
HETATM   11  C   UNL     1     -21.017  -7.448  -3.975  1.00  0.00     0.000 C 
BRANCH  11  12
HETATM   12  C   UNL     1     -20.837  -7.368  -5.474  1.00  0.00     0.000 C 
BRANCH  12  13
HETATM   13  C   UNL     1     -20.534  -5.938  -5.896  1.00  0.00     0.000 C 
BRANCH  13  14
HETATM   14  C   UNL     1     -21.238  -5.605  -7.203  1.00  0.00     0.002 C 
BRANCH  14  15
HETATM   15  C   UNL     1     -21.610  -4.125  -7.254  1.00  0.00     0.027 C 
BRANCH  15  16
HETATM   16  C   UNL     1     -22.278  -3.766  -8.566  1.00  0.00     0.178 C 
BRANCH  16  17
HETATM   17  O   UNL     1     -23.707  -4.051  -8.514  1.00  0.00    -0.322 OA
BRANCH  17  18
HETATM   18  C   UNL     1     -24.365  -3.974  -9.707  1.00  0.00     0.254 C 
HETATM   19  O   UNL     1     -25.344  -3.245  -9.907  1.00  0.00    -0.266 OA
HETATM   20  C   UNL     1     -23.781  -4.849 -10.768  1.00  0.00     0.126 C 
ENDBRANCH  17  18
ENDBRANCH  16  17
ENDBRANCH  15  16
ENDBRANCH  14  15
ENDBRANCH  13  14
ENDBRANCH  12  13
ENDBRANCH  11  12
ENDBRANCH   1  11
TORSDOF 16
ENDMDL
MODEL 4
REMARK VINA RESULT:      -6.4      1.417      2.092
REMARK  16 active torsions:
REMARK  status: ('A' for Active; 'I' for Inactive)
REMARK    1  A    between atoms: C_2  and  C_3 
REMARK    2  A    between atoms: C_3  and  C_4 
REMARK    3  A    between atoms: C_4  and  C_5 
REMARK    4  A    between atoms: C_5  and  C_6 
REMARK    5  A    between atoms: C_6  and  C_7 
REMARK    6  A    between atoms: C_7  and  C_8 
REMARK    7  A    between atoms: C_8  and  C_9 
REMARK    8  A    between atoms: C_9  and  C_10 
REMARK    9  A    between atoms: C_10  and  C_11 
REMARK   10  A    between atoms: C_11  and  C_12 
REMARK   11  A    between atoms: C_12  and  C_13 
REMARK   12  A    between atoms: C_13  and  C_14 
REMARK   13  A    between atoms: C_14  and  C_15 
REMARK   14  A    between atoms: C_15  and  C_16 
REMARK   15  A    between atoms: C_16  and  O_17 
REMARK   16  A    between atoms: O_17  and  C_18 
ROOT
HETATM    1  C   UNL     1     -20.172  -6.580  -5.880  1.00  0.00     0.000 C 
ENDROOT
BRANCH   1   2
HETATM    2  C   UNL     1     -21.354  -6.073  -5.078  1.00  0.00     0.000 C 
BRANCH   2   3
HETATM    3  C   UNL     1     -21.695  -7.062  -3.981  1.00  0.00     0.000 C 
BRANCH   3   4
HETATM    4  C   UNL     1     -21.708  -6.357  -2.638  1.00  0.00     0.000 C 
BRANCH   4   5
HETATM    5  C   UNL     1     -21.560  -7.373  -1.522  1.00  0.00     0.000 C 
BRANCH   5   6
HETATM    6  C   UNL     1     -22.612  -7.125  -0.457  1.00  0.00     0.000 C 
BRANCH   6   7
HETATM    7  C   UNL     1     -22.513  -8.186   0.623  1.00  0.00     0.000 C 
BRANCH   7   8
HETATM    8  C   UNL     1     -22.153  -9.523   0.002  1.00  0.00    -0.000 C 
BRANCH   8   9
HETATM    9  C   UNL     1     -20.948 -10.121   0.709  1.00  0.00    -0.005 C 
HETATM   10  C   UNL     1     -20.534  -9.238   1.866  1.00  0.00     0.005 C 
ENDBRANCH   8   9
ENDBRANCH   7   8
ENDBRANCH   6   7
ENDBRANCH   5   6
ENDBRANCH   4   5
ENDBRANCH   3   4
ENDBRANCH   2   3
ENDBRANCH   1   2
BRANCH   1  11
HETATM   11  C   UNL     1     -20.085  -5.827  -7.193  1.00  0.00     0.000 C 
BRANCH  11  12
HETATM   12  C   UNL     1     -20.819  -4.510  -7.075  1.00  0.00     0.000 C 
BRANCH  12  13
HETATM   13  C   UNL     1     -20.697  -3.716  -8.367  1.00  0.00     0.000 C 
BRANCH  13  14
HETATM   14  C   UNL     1     -20.216  -4.609  -9.501  1.00  0.00     0.002 C 
BRANCH  14  15
HETATM   15  C   UNL     1     -20.427  -3.929 -10.851  1.00  0.00     0.027 C 
BRANCH  15  16
HETATM   16  C   UNL     1     -21.797  -4.238 -11.420  1.00  0.00     0.178 C 
BRANCH  16  17
HETATM   17  O   UNL     1     -22.758  -3.208 -11.043  1.00  0.00    -0.322 OA
BRANCH  17  18
HETATM   18  C   UNL     1     -23.896  -3.660 -10.438  1.00  0.00     0.254 C 
HETATM   19  O   UNL     1     -24.802  -2.921 -10.036  1.00  0.00    -0.266 OA
HETATM   20  C   UNL     1     -23.955  -5.148 -10.316  1.00  0.00     0.126 C 
ENDBRANCH  17  18
ENDBRANCH  16  17
ENDBRANCH  15  16
ENDBRANCH  14  15
ENDBRANCH  13  14
ENDBRANCH  12  13
ENDBRANCH  11  12
ENDBRANCH   1  11
TORSDOF 16
ENDMDL
MODEL 5
REMARK VINA RESULT:      -6.3      1.558      3.190
REMARK  16 active torsions:
REMARK  status: ('A' for Active; 'I' for Inactive)
REMARK    1  A    between atoms: C_2  and  C_3 
REMARK    2  A    between atoms: C_3  and  C_4 
REMARK    3  A    between atoms: C_4  and  C_5 
REMARK    4  A    between atoms: C_5  and  C_6 
REMARK    5  A    between atoms: C_6  and  C_7 
REMARK    6  A    between atoms: C_7  and  C_8 
REMARK    7  A    between atoms: C_8  and  C_9 
REMARK    8  A    between atoms: C_9  and  C_10 
REMARK    9  A    between atoms: C_10  and  C_11 
REMARK   10  A    between atoms: C_11  and  C_12 
REMARK   11  A    between atoms: C_12  and  C_13 
REMARK   12  A    between atoms: C_13  and  C_14 
REMARK   13  A    between atoms: C_14  and  C_15 
REMARK   14  A    between atoms: C_15  and  C_16 
REMARK   15  A    between atoms: C_16  and  O_17 
REMARK   16  A    between atoms: O_17  and  C_18 
ROOT
HETATM    1  C   UNL     1     -20.749  -3.599  -8.051  1.00  0.00     0.000 C 
ENDROOT
BRANCH   1   2
HETATM    2  C   UNL     1     -21.246  -4.020  -6.682  1.00  0.00     0.000 C 
BRANCH   2   3
HETATM    3  C   UNL     1     -21.150  -5.526  -6.539  1.00  0.00     0.000 C 
BRANCH   3   4
HETATM    4  C   UNL     1     -20.536  -5.878  -5.198  1.00  0.00     0.000 C 
BRANCH   4   5
HETATM    5  C   UNL     1     -20.670  -7.367  -4.945  1.00  0.00     0.000 C 
BRANCH   5   6
HETATM    6  C   UNL     1     -21.710  -7.616  -3.869  1.00  0.00     0.000 C 
BRANCH   6   7
HETATM    7  C   UNL     1     -21.112  -7.343  -2.502  1.00  0.00     0.000 C 
BRANCH   7   8
HETATM    8  C   UNL     1     -22.074  -6.512  -1.674  1.00  0.00    -0.000 C 
BRANCH   8   9
HETATM    9  C   UNL     1     -22.612  -7.333  -0.514  1.00  0.00    -0.005 C 
HETATM   10  C   UNL     1     -21.480  -8.070   0.169  1.00  0.00     0.005 C 
ENDBRANCH   8   9
ENDBRANCH   7   8
ENDBRANCH   6   7
ENDBRANCH   5   6
ENDBRANCH   4   5
ENDBRANCH   3   4
ENDBRANCH   2   3
ENDBRANCH   1   2
BRANCH   1  11
HETATM   11  C   UNL     1     -19.693  -4.575  -8.533  1.00  0.00     0.000 C 
BRANCH  11  12
HETATM   12  C   UNL     1     -19.930  -4.904  -9.990  1.00  0.00     0.000 C 
BRANCH  12  13
HETATM   13  C   UNL     1     -20.656  -3.760 -10.681  1.00  0.00     0.000 C 
BRANCH  13  14
HETATM   14  C   UNL     1     -21.395  -4.261 -11.913  1.00  0.00     0.002 C 
BRANCH  14  15
HETATM   15  C   UNL     1     -22.275  -3.161 -12.500  1.00  0.00     0.027 C 
BRANCH  15  16
HETATM   16  C   UNL     1     -23.162  -2.535 -11.443  1.00  0.00     0.178 C 
BRANCH  16  17
HETATM   17  O   UNL     1     -24.464  -3.190 -11.407  1.00  0.00    -0.322 OA
BRANCH  17  18
HETATM   18  C   UNL     1     -24.938  -3.484 -10.161  1.00  0.00     0.254 C 
HETATM   19  O   UNL     1     -26.018  -3.073  -9.721  1.00  0.00    -0.266 OA
HETATM   20  C   UNL     1     -24.031  -4.370  -9.372  1.00  0.00     0.126 C 
ENDBRANCH  17  18
ENDBRANCH  16  17
ENDBRANCH  15  16
ENDBRANCH  14  15
ENDBRANCH  13  14
ENDBRANCH  12  13
ENDBRANCH  11  12
ENDBRANCH   1  11
TORSDOF 16
ENDMDL
MODEL 6
REMARK VINA RESULT:      -6.3      4.366      9.635
REMARK  16 active torsions:
REMARK  status: ('A' for Active; 'I' for Inactive)
REMARK    1  A    between atoms: C_2  and  C_3 
REMARK    2  A    between atoms: C_3  and  C_4 
REMARK    3  A    between atoms: C_4  and  C_5 
REMARK    4  A    between atoms: C_5  and  C_6 
REMARK    5  A    between atoms: C_6  and  C_7 
REMARK    6  A    between atoms: C_7  and  C_8 
REMARK    7  A    between atoms: C_8  and  C_9 
REMARK    8  A    between atoms: C_9  and  C_10 
REMARK    9  A    between atoms: C_10  and  C_11 
REMARK   10  A    between atoms: C_11  and  C_12 
REMARK   11  A    between atoms: C_12  and  C_13 
REMARK   12  A    between atoms: C_13  and  C_14 
REMARK   13  A    between atoms: C_14  and  C_15 
REMARK   14  A    between atoms: C_15  and  C_16 
REMARK   15  A    between atoms: C_16  and  O_17 
REMARK   16  A    between atoms: O_17  and  C_18 
ROOT
HETATM    1  C   UNL     1     -20.073  -6.647  -5.827  1.00  0.00     0.000 C 
ENDROOT
BRANCH   1   2
HETATM    2  C   UNL     1     -19.825  -5.873  -7.107  1.00  0.00     0.000 C 
BRANCH   2   3
HETATM    3  C   UNL     1     -20.320  -4.448  -6.953  1.00  0.00     0.000 C 
BRANCH   3   4
HETATM    4  C   UNL     1     -20.848  -3.940  -8.281  1.00  0.00     0.000 C 
BRANCH   4   5
HETATM    5  C   UNL     1     -20.189  -4.694  -9.419  1.00  0.00     0.000 C 
BRANCH   5   6
HETATM    6  C   UNL     1     -20.585  -4.074 -10.746  1.00  0.00     0.000 C 
BRANCH   6   7
HETATM    7  C   UNL     1     -22.006  -3.551 -10.666  1.00  0.00     0.000 C 
BRANCH   7   8
HETATM    8  C   UNL     1     -22.971  -4.592 -11.202  1.00  0.00    -0.000 C 
BRANCH   8   9
HETATM    9  C   UNL     1     -24.164  -4.729 -10.270  1.00  0.00    -0.005 C 
HETATM   10  C   UNL     1     -24.313  -3.479  -9.430  1.00  0.00     0.005 C 
ENDBRANCH   8   9
ENDBRANCH   7   8
ENDBRANCH   6   7
ENDBRANCH   5   6
ENDBRANCH   4   5
ENDBRANCH   3   4
ENDBRANCH   2   3
ENDBRANCH   1   2
BRANCH   1  11
HETATM   11  C   UNL     1     -21.468  -7.242  -5.853  1.00  0.00     0.000 C 
BRANCH  11  12
HETATM   12  C   UNL     1     -22.251  -6.756  -4.654  1.00  0.00     0.000 C 
BRANCH  12  13
HETATM   13  C   UNL     1     -21.321  -6.106  -3.640  1.00  0.00     0.000 C 
BRANCH  13  14
HETATM   14  C   UNL     1     -21.239  -6.943  -2.373  1.00  0.00     0.002 C 
BRANCH  14  15
HETATM   15  C   UNL     1     -22.348  -6.559  -1.398  1.00  0.00     0.027 C 
BRANCH  15  16
HETATM   16  C   UNL     1     -22.416  -7.519  -0.228  1.00  0.00     0.178 C 
BRANCH  16  17
HETATM   17  O   UNL     1     -21.360  -8.520  -0.317  1.00  0.00    -0.322 OA
BRANCH  17  18
HETATM   18  C   UNL     1     -21.768  -9.817  -0.197  1.00  0.00     0.254 C 
HETATM   19  O   UNL     1     -20.994 -10.775  -0.083  1.00  0.00    -0.266 OA
HETATM   20  C   UNL     1     -23.253  -9.977  -0.201  1.00  0.00     0.126 C 
ENDBRANCH  17  18
ENDBRANCH  16  17
ENDBRANCH  15  16
ENDBRANCH  14  15
ENDBRANCH  13  14
ENDBRANCH  12  13
ENDBRANCH  11  12
ENDBRANCH   1  11
TORSDOF 16
ENDMDL
MODEL 7
REMARK VINA RESULT:      -6.1      1.515      2.106
REMARK  16 active torsions:
REMARK  status: ('A' for Active; 'I' for Inactive)
REMARK    1  A    between atoms: C_2  and  C_3 
REMARK    2  A    between atoms: C_3  and  C_4 
REMARK    3  A    between atoms: C_4  and  C_5 
REMARK    4  A    between atoms: C_5  and  C_6 
REMARK    5  A    between atoms: C_6  and  C_7 
REMARK    6  A    between atoms: C_7  and  C_8 
REMARK    7  A    between atoms: C_8  and  C_9 
REMARK    8  A    between atoms: C_9  and  C_10 
REMARK    9  A    between atoms: C_10  and  C_11 
REMARK   10  A    between atoms: C_11  and  C_12 
REMARK   11  A    between atoms: C_12  and  C_13 
REMARK   12  A    between atoms: C_13  and  C_14 
REMARK   13  A    between atoms: C_14  and  C_15 
REMARK   14  A    between atoms: C_15  and  C_16 
REMARK   15  A    between atoms: C_16  and  O_17 
REMARK   16  A    between atoms: O_17  and  C_18 
ROOT
HETATM    1  C   UNL     1     -20.490  -7.224  -4.644  1.00  0.00     0.000 C 
ENDROOT
BRANCH   1   2
HETATM    2  C   UNL     1     -21.143  -6.297  -3.638  1.00  0.00     0.000 C 
BRANCH   2   3
HETATM    3  C   UNL     1     -22.142  -7.069  -2.799  1.00  0.00     0.000 C 
BRANCH   3   4
HETATM    4  C   UNL     1     -22.245  -6.445  -1.419  1.00  0.00     0.000 C 
BRANCH   4   5
HETATM    5  C   UNL     1     -21.932  -7.484  -0.360  1.00  0.00     0.000 C 
BRANCH   5   6
HETATM    6  C   UNL     1     -23.208  -7.897   0.349  1.00  0.00     0.000 C 
BRANCH   6   7
HETATM    7  C   UNL     1     -23.381  -9.402   0.263  1.00  0.00     0.000 C 
BRANCH   7   8
HETATM    8  C   UNL     1     -22.102 -10.041  -0.244  1.00  0.00    -0.000 C 
BRANCH   8   9
HETATM    9  C   UNL     1     -22.426 -11.145  -1.238  1.00  0.00    -0.005 C 
HETATM   10  C   UNL     1     -23.924 -11.336  -1.330  1.00  0.00     0.005 C 
ENDBRANCH   8   9
ENDBRANCH   7   8
ENDBRANCH   6   7
ENDBRANCH   5   6
ENDBRANCH   4   5
ENDBRANCH   3   4
ENDBRANCH   2   3
ENDBRANCH   1   2
BRANCH   1  11
HETATM   11  C   UNL     1     -20.473  -6.566  -6.010  1.00  0.00     0.000 C 
BRANCH  11  12
HETATM   12  C   UNL     1     -20.064  -5.116  -5.872  1.00  0.00     0.000 C 
BRANCH  12  13
HETATM   13  C   UNL     1     -20.101  -4.423  -7.226  1.00  0.00     0.000 C 
BRANCH  13  14
HETATM   14  C   UNL     1     -21.302  -3.493  -7.318  1.00  0.00     0.002 C 
BRANCH  14  15
HETATM   15  C   UNL     1     -22.532  -4.246  -7.818  1.00  0.00     0.027 C 
BRANCH  15  16
HETATM   16  C   UNL     1     -22.840  -3.909  -9.263  1.00  0.00     0.178 C 
BRANCH  16  17
HETATM   17  O   UNL     1     -22.027  -4.715 -10.167  1.00  0.00    -0.322 OA
BRANCH  17  18
HETATM   18  C   UNL     1     -21.204  -4.012 -10.999  1.00  0.00     0.254 C 
HETATM   19  O   UNL     1     -20.039  -4.342 -11.253  1.00  0.00    -0.266 OA
HETATM   20  C   UNL     1     -21.848  -2.802 -11.593  1.00  0.00     0.126 C 
ENDBRANCH  17  18
ENDBRANCH  16  17
ENDBRANCH  15  16
ENDBRANCH  14  15
ENDBRANCH  13  14
ENDBRANCH  12  13
ENDBRANCH  11  12
ENDBRANCH   1  11
TORSDOF 16
ENDMDL
MODEL 8
REMARK VINA RESULT:      -6.0      1.848      3.233
REMARK  16 active torsions:
REMARK  status: ('A' for Active; 'I' for Inactive)
REMARK    1  A    between atoms: C_2  and  C_3 
REMARK    2  A    between atoms: C_3  and  C_4 
REMARK    3  A    between atoms: C_4  and  C_5 
REMARK    4  A    between atoms: C_5  and  C_6 
REMARK    5  A    between atoms: C_6  and  C_7 
REMARK    6  A    between atoms: C_7  and  C_8 
REMARK    7  A    between atoms: C_8  and  C_9 
REMARK    8  A    between atoms: C_9  and  C_10 
REMARK    9  A    between atoms: C_10  and  C_11 
REMARK   10  A    between atoms: C_11  and  C_12 
REMARK   11  A    between atoms: C_12  and  C_13 
REMARK   12  A    between atoms: C_13  and  C_14 
REMARK   13  A    between atoms: C_14  and  C_15 
REMARK   14  A    between atoms: C_15  and  C_16 
REMARK   15  A    between atoms: C_16  and  O_17 
REMARK   16  A    between atoms: O_17  and  C_18 
ROOT
HETATM    1  C   UNL     1     -21.767  -4.693  -7.673  1.00  0.00     0.000 C 
ENDROOT
BRANCH   1   2
HETATM    2  C   UNL     1     -21.755  -5.209  -6.248  1.00  0.00     0.000 C 
BRANCH   2   3
HETATM    3  C   UNL     1     -21.307  -6.658  -6.228  1.00  0.00     0.000 C 
BRANCH   3   4
HETATM    4  C   UNL     1     -20.630  -6.969  -4.906  1.00  0.00     0.000 C 
BRANCH   4   5
HETATM    5  C   UNL     1     -19.753  -8.197  -5.054  1.00  0.00     0.000 C 
BRANCH   5   6
HETATM    6  C   UNL     1     -19.678  -8.939  -3.733  1.00  0.00     0.000 C 
BRANCH   6   7
HETATM    7  C   UNL     1     -20.956  -8.720  -2.947  1.00  0.00     0.000 C 
BRANCH   7   8
HETATM    8  C   UNL     1     -20.630  -8.169  -1.572  1.00  0.00    -0.000 C 
BRANCH   8   9
HETATM    9  C   UNL     1     -21.866  -7.539  -0.952  1.00  0.00    -0.005 C 
HETATM   10  C   UNL     1     -22.212  -6.257  -1.676  1.00  0.00     0.005 C 
ENDBRANCH   8   9
ENDBRANCH   7   8
ENDBRANCH   6   7
ENDBRANCH   5   6
ENDBRANCH   4   5
ENDBRANCH   3   4
ENDBRANCH   2   3
ENDBRANCH   1   2
BRANCH   1  11
HETATM   11  C   UNL     1     -20.490  -5.110  -8.377  1.00  0.00     0.000 C 
BRANCH  11  12
HETATM   12  C   UNL     1     -20.413  -4.441  -9.731  1.00  0.00     0.000 C 
BRANCH  12  13
HETATM   13  C   UNL     1     -21.726  -3.743 -10.054  1.00  0.00     0.000 C 
BRANCH  13  14
HETATM   14  C   UNL     1     -22.504  -4.525 -11.102  1.00  0.00     0.002 C 
BRANCH  14  15
HETATM   15  C   UNL     1     -23.745  -3.754 -11.541  1.00  0.00     0.027 C 
BRANCH  15  16
HETATM   16  C   UNL     1     -23.844  -3.672 -13.050  1.00  0.00     0.178 C 
BRANCH  16  17
HETATM   17  O   UNL     1     -23.986  -2.288 -13.486  1.00  0.00    -0.322 OA
BRANCH  17  18
HETATM   18  C   UNL     1     -23.434  -1.995 -14.699  1.00  0.00     0.254 C 
HETATM   19  O   UNL     1     -22.606  -2.715 -15.270  1.00  0.00    -0.266 OA
HETATM   20  C   UNL     1     -23.934  -0.717 -15.290  1.00  0.00     0.126 C 
ENDBRANCH  17  18
ENDBRANCH  16  17
ENDBRANCH  15  16
ENDBRANCH  14  15
ENDBRANCH  13  14
ENDBRANCH  12  13
ENDBRANCH  11  12
ENDBRANCH   1  11
TORSDOF 16
ENDMDL
MODEL 9
REMARK VINA RESULT:      -5.9      1.997      3.773
REMARK  16 active torsions:
REMARK  status: ('A' for Active; 'I' for Inactive)
REMARK    1  A    between atoms: C_2  and  C_3 
REMARK    2  A    between atoms: C_3  and  C_4 
REMARK    3  A    between atoms: C_4  and  C_5 
REMARK    4  A    between atoms: C_5  and  C_6 
REMARK    5  A    between atoms: C_6  and  C_7 
REMARK    6  A    between atoms: C_7  and  C_8 
REMARK    7  A    between atoms: C_8  and  C_9 
REMARK    8  A    between atoms: C_9  and  C_10 
REMARK    9  A    between atoms: C_10  and  C_11 
REMARK   10  A    between atoms: C_11  and  C_12 
REMARK   11  A    between atoms: C_12  and  C_13 
REMARK   12  A    between atoms: C_13  and  C_14 
REMARK   13  A    between atoms: C_14  and  C_15 
REMARK   14  A    between atoms: C_15  and  C_16 
REMARK   15  A    between atoms: C_16  and  O_17 
REMARK   16  A    between atoms: O_17  and  C_18 
ROOT
HETATM    1  C   UNL     1     -21.954  -6.851  -1.848  1.00  0.00     0.000 C 
ENDROOT
BRANCH   1   2
HETATM    2  C   UNL     1     -20.964  -7.926  -1.444  1.00  0.00     0.000 C 
BRANCH   2   3
HETATM    3  C   UNL     1     -21.272  -8.409  -0.040  1.00  0.00     0.000 C 
BRANCH   3   4
HETATM    4  C   UNL     1     -22.753  -8.249   0.246  1.00  0.00     0.000 C 
BRANCH   4   5
HETATM    5  C   UNL     1     -23.467  -9.568   0.017  1.00  0.00     0.000 C 
BRANCH   5   6
HETATM    6  C   UNL     1     -22.511 -10.720   0.262  1.00  0.00     0.000 C 
BRANCH   6   7
HETATM    7  C   UNL     1     -22.747 -11.812  -0.765  1.00  0.00     0.000 C 
BRANCH   7   8
HETATM    8  C   UNL     1     -23.160 -11.197  -2.088  1.00  0.00    -0.000 C 
BRANCH   8   9
HETATM    9  C   UNL     1     -22.086 -11.438  -3.137  1.00  0.00    -0.005 C 
HETATM   10  C   UNL     1     -22.011 -10.260  -4.083  1.00  0.00     0.005 C 
ENDBRANCH   8   9
ENDBRANCH   7   8
ENDBRANCH   6   7
ENDBRANCH   5   6
ENDBRANCH   4   5
ENDBRANCH   3   4
ENDBRANCH   2   3
ENDBRANCH   1   2
BRANCH   1  11
HETATM   11  C   UNL     1     -21.397  -6.056  -3.013  1.00  0.00     0.000 C 
BRANCH  11  12
HETATM   12  C   UNL     1     -22.037  -6.522  -4.301  1.00  0.00     0.000 C 
BRANCH  12  13
HETATM   13  C   UNL     1     -21.060  -6.388  -5.459  1.00  0.00     0.000 C 
BRANCH  13  14
HETATM   14  C   UNL     1     -20.416  -5.010  -5.461  1.00  0.00     0.002 C 
BRANCH  14  15
HETATM   15  C   UNL     1     -20.695  -4.284  -6.774  1.00  0.00     0.027 C 
BRANCH  15  16
HETATM   16  C   UNL     1     -20.677  -5.239  -7.950  1.00  0.00     0.178 C 
BRANCH  16  17
HETATM   17  O   UNL     1     -21.576  -4.781  -9.003  1.00  0.00    -0.322 OA
BRANCH  17  18
HETATM   18  C   UNL     1     -20.970  -4.377 -10.157  1.00  0.00     0.254 C 
HETATM   19  O   UNL     1     -19.877  -4.806 -10.547  1.00  0.00    -0.266 OA
HETATM   20  C   UNL     1     -21.761  -3.369 -10.925  1.00  0.00     0.126 C 
ENDBRANCH  17  18
ENDBRANCH  16  17
ENDBRANCH  15  16
ENDBRANCH  14  15
ENDBRANCH  13  14
ENDBRANCH  12  13
ENDBRANCH  11  12
ENDBRANCH   1  11
TORSDOF 16
ENDMDL
