MODEL 1
REMARK VINA RESULT:      -7.3      0.000      0.000
REMARK  3 active torsions:
REMARK  status: ('A' for Active; 'I' for Inactive)
REMARK    1  A    between atoms: C_3  and  O_9 
REMARK    2  A    between atoms: C_4  and  O_8 
REMARK    3  A    between atoms: O_9  and  C_10 
ROOT
HETATM    1  C   UNL     1     -19.887  -4.719  -7.958  1.00  0.00     0.027 A 
HETATM    2  C   UNL     1     -20.230  -5.096  -6.656  1.00  0.00     0.042 A 
HETATM    3  C   UNL     1     -21.571  -5.098  -6.259  1.00  0.00     0.109 A 
HETATM    4  C   UNL     1     -22.539  -4.601  -7.138  1.00  0.00     0.101 A 
HETATM    5  C   UNL     1     -22.207  -4.218  -8.431  1.00  0.00     0.063 A 
HETATM    6  C   UNL     1     -20.880  -4.301  -8.842  1.00  0.00     0.036 A 
HETATM    7 CL   UNL     1     -20.452  -3.874 -10.454  1.00  0.00    -0.084 Cl
ENDROOT
BRANCH   3   8
HETATM    8  O   UNL     1     -21.995  -5.550  -5.026  1.00  0.00    -0.306 OA
BRANCH   8   9
HETATM    9  C   UNL     1     -21.651  -6.833  -4.640  1.00  0.00     0.098 A 
HETATM   10  C   UNL     1     -21.603  -7.127  -3.271  1.00  0.00     0.069 A 
HETATM   11  C   UNL     1     -21.229  -8.399  -2.834  1.00  0.00     0.050 A 
HETATM   12 CL   UNL     1     -21.987  -5.932  -2.086  1.00  0.00    -0.081 Cl
HETATM   13  C   UNL     1     -20.907  -9.384  -3.767  1.00  0.00     0.035 A 
HETATM   14  C   UNL     1     -20.992  -9.118  -5.132  1.00  0.00     0.026 A 
HETATM   15 CL   UNL     1     -20.403 -10.940  -3.233  1.00  0.00    -0.084 Cl
HETATM   16  C   UNL     1     -21.392  -7.853  -5.569  1.00  0.00     0.041 A 
ENDBRANCH   8   9
ENDBRANCH   3   8
BRANCH   4  17
HETATM   17  O   UNL     1     -23.846  -4.469  -6.753  1.00  0.00    -0.358 OA
HETATM   18  H   UNL     1     -24.110  -5.311  -6.336  1.00  0.00     0.217 HD
ENDBRANCH   4  17
TORSDOF 3
ENDMDL
MODEL 2
REMARK VINA RESULT:      -7.2     14.375     16.897
REMARK  3 active torsions:
REMARK  status: ('A' for Active; 'I' for Inactive)
REMARK    1  A    between atoms: C_3  and  O_9 
REMARK    2  A    between atoms: C_4  and  O_8 
REMARK    3  A    between atoms: O_9  and  C_10 
ROOT
HETATM    1  C   UNL     1     -32.739  -4.315 -11.495  1.00  0.00     0.027 A 
HETATM    2  C   UNL     1     -33.175  -2.990 -11.591  1.00  0.00     0.042 A 
HETATM    3  C   UNL     1     -34.470  -2.648 -11.191  1.00  0.00     0.109 A 
HETATM    4  C   UNL     1     -35.353  -3.666 -10.814  1.00  0.00     0.101 A 
HETATM    5  C   UNL     1     -34.932  -4.985 -10.723  1.00  0.00     0.063 A 
HETATM    6  C   UNL     1     -33.615  -5.300 -11.044  1.00  0.00     0.036 A 
HETATM    7 CL   UNL     1     -33.059  -6.923 -10.893  1.00  0.00    -0.084 Cl
ENDROOT
BRANCH   3   8
HETATM    8  O   UNL     1     -34.937  -1.350 -11.163  1.00  0.00    -0.306 OA
BRANCH   8   9
HETATM    9  C   UNL     1     -35.632  -0.876 -12.260  1.00  0.00     0.098 A 
HETATM   10  C   UNL     1     -36.939  -0.406 -12.069  1.00  0.00     0.069 A 
HETATM   11  C   UNL     1     -37.690   0.052 -13.153  1.00  0.00     0.050 A 
HETATM   12 CL   UNL     1     -37.663  -0.390 -10.503  1.00  0.00    -0.081 Cl
HETATM   13  C   UNL     1     -37.135   0.046 -14.432  1.00  0.00     0.035 A 
HETATM   14  C   UNL     1     -35.822  -0.378 -14.630  1.00  0.00     0.026 A 
HETATM   15 CL   UNL     1     -38.073   0.567 -15.777  1.00  0.00    -0.084 Cl
HETATM   16  C   UNL     1     -35.062  -0.811 -13.542  1.00  0.00     0.041 A 
ENDBRANCH   8   9
ENDBRANCH   3   8
BRANCH   4  17
HETATM   17  O   UNL     1     -36.665  -3.397 -10.531  1.00  0.00    -0.358 OA
HETATM   18  H   UNL     1     -36.676  -2.729  -9.820  1.00  0.00     0.217 HD
ENDBRANCH   4  17
TORSDOF 3
ENDMDL
MODEL 3
REMARK VINA RESULT:      -6.9      2.772      6.893
REMARK  3 active torsions:
REMARK  status: ('A' for Active; 'I' for Inactive)
REMARK    1  A    between atoms: C_3  and  O_9 
REMARK    2  A    between atoms: C_4  and  O_8 
REMARK    3  A    between atoms: O_9  and  C_10 
ROOT
HETATM    1  C   UNL     1     -19.946  -5.825  -7.377  1.00  0.00     0.027 A 
HETATM    2  C   UNL     1     -20.594  -4.824  -8.107  1.00  0.00     0.042 A 
HETATM    3  C   UNL     1     -21.884  -4.421  -7.750  1.00  0.00     0.109 A 
HETATM    4  C   UNL     1     -22.555  -5.116  -6.738  1.00  0.00     0.101 A 
HETATM    5  C   UNL     1     -21.923  -6.116  -6.012  1.00  0.00     0.063 A 
HETATM    6  C   UNL     1     -20.608  -6.451  -6.322  1.00  0.00     0.036 A 
HETATM    7 CL   UNL     1     -19.789  -7.656  -5.405  1.00  0.00    -0.084 Cl
ENDROOT
BRANCH   3   8
HETATM    8  O   UNL     1     -22.546  -3.375  -8.359  1.00  0.00    -0.306 OA
BRANCH   8   9
HETATM    9  C   UNL     1     -22.579  -3.330  -9.740  1.00  0.00     0.098 A 
HETATM   10  C   UNL     1     -23.826  -3.270 -10.377  1.00  0.00     0.069 A 
HETATM   11  C   UNL     1     -23.908  -3.256 -11.770  1.00  0.00     0.050 A 
HETATM   12 CL   UNL     1     -25.292  -3.226  -9.467  1.00  0.00    -0.081 Cl
HETATM   13  C   UNL     1     -22.742  -3.296 -12.533  1.00  0.00     0.035 A 
HETATM   14  C   UNL     1     -21.494  -3.313 -11.914  1.00  0.00     0.026 A 
HETATM   15 CL   UNL     1     -22.840  -3.325 -14.250  1.00  0.00    -0.084 Cl
HETATM   16  C   UNL     1     -21.411  -3.301 -10.520  1.00  0.00     0.041 A 
ENDBRANCH   8   9
ENDBRANCH   3   8
BRANCH   4  17
HETATM   17  O   UNL     1     -23.861  -4.839  -6.434  1.00  0.00    -0.358 OA
HETATM   18  H   UNL     1     -24.196  -4.234  -7.122  1.00  0.00     0.217 HD
ENDBRANCH   4  17
TORSDOF 3
ENDMDL
MODEL 4
REMARK VINA RESULT:      -6.9      2.624      3.969
REMARK  3 active torsions:
REMARK  status: ('A' for Active; 'I' for Inactive)
REMARK    1  A    between atoms: C_3  and  O_9 
REMARK    2  A    between atoms: C_4  and  O_8 
REMARK    3  A    between atoms: O_9  and  C_10 
ROOT
HETATM    1  C   UNL     1     -24.211  -3.683 -10.443  1.00  0.00     0.027 A 
HETATM    2  C   UNL     1     -23.586  -3.608  -9.195  1.00  0.00     0.042 A 
HETATM    3  C   UNL     1     -22.203  -3.791  -9.093  1.00  0.00     0.109 A 
HETATM    4  C   UNL     1     -21.484  -4.170 -10.231  1.00  0.00     0.101 A 
HETATM    5  C   UNL     1     -22.098  -4.254 -11.474  1.00  0.00     0.063 A 
HETATM    6  C   UNL     1     -23.459  -3.987 -11.577  1.00  0.00     0.036 A 
HETATM    7 CL   UNL     1     -24.231  -4.040 -13.114  1.00  0.00    -0.084 Cl
ENDROOT
BRANCH   3   8
HETATM    8  O   UNL     1     -21.504  -3.634  -7.914  1.00  0.00    -0.306 OA
BRANCH   8   9
HETATM    9  C   UNL     1     -21.475  -4.688  -7.019  1.00  0.00     0.098 A 
HETATM   10  C   UNL     1     -20.231  -5.223  -6.658  1.00  0.00     0.069 A 
HETATM   11  C   UNL     1     -20.156  -6.307  -5.782  1.00  0.00     0.050 A 
HETATM   12 CL   UNL     1     -18.762  -4.572  -7.289  1.00  0.00    -0.081 Cl
HETATM   13  C   UNL     1     -21.325  -6.858  -5.261  1.00  0.00     0.035 A 
HETATM   14  C   UNL     1     -22.566  -6.310  -5.578  1.00  0.00     0.026 A 
HETATM   15 CL   UNL     1     -21.239  -8.224  -4.218  1.00  0.00    -0.084 Cl
HETATM   16  C   UNL     1     -22.640  -5.208  -6.432  1.00  0.00     0.041 A 
ENDBRANCH   8   9
ENDBRANCH   3   8
BRANCH   4  17
HETATM   17  O   UNL     1     -20.152  -4.478 -10.158  1.00  0.00    -0.358 OA
HETATM   18  H   UNL     1     -20.072  -5.443 -10.281  1.00  0.00     0.217 HD
ENDBRANCH   4  17
TORSDOF 3
ENDMDL
MODEL 5
REMARK VINA RESULT:      -6.8      1.653      6.063
REMARK  3 active torsions:
REMARK  status: ('A' for Active; 'I' for Inactive)
REMARK    1  A    between atoms: C_3  and  O_9 
REMARK    2  A    between atoms: C_4  and  O_8 
REMARK    3  A    between atoms: O_9  and  C_10 
ROOT
HETATM    1  C   UNL     1     -21.113  -8.753  -5.203  1.00  0.00     0.027 A 
HETATM    2  C   UNL     1     -20.973  -7.467  -5.733  1.00  0.00     0.042 A 
HETATM    3  C   UNL     1     -21.041  -6.352  -4.892  1.00  0.00     0.109 A 
HETATM    4  C   UNL     1     -21.373  -6.538  -3.546  1.00  0.00     0.101 A 
HETATM    5  C   UNL     1     -21.521  -7.811  -3.012  1.00  0.00     0.063 A 
HETATM    6  C   UNL     1     -21.368  -8.917  -3.842  1.00  0.00     0.036 A 
HETATM    7 CL   UNL     1     -21.502 -10.505  -3.192  1.00  0.00    -0.084 Cl
ENDROOT
BRANCH   3   8
HETATM    8  O   UNL     1     -20.814  -5.062  -5.325  1.00  0.00    -0.306 OA
BRANCH   8   9
HETATM    9  C   UNL     1     -21.226  -4.712  -6.598  1.00  0.00     0.098 A 
HETATM   10  C   UNL     1     -20.249  -4.441  -7.565  1.00  0.00     0.069 A 
HETATM   11  C   UNL     1     -20.618  -4.052  -8.854  1.00  0.00     0.050 A 
HETATM   12 CL   UNL     1     -18.567  -4.565  -7.195  1.00  0.00    -0.081 Cl
HETATM   13  C   UNL     1     -21.968  -3.937  -9.181  1.00  0.00     0.035 A 
HETATM   14  C   UNL     1     -22.951  -4.244  -8.242  1.00  0.00     0.026 A 
HETATM   15 CL   UNL     1     -22.428  -3.413 -10.754  1.00  0.00    -0.084 Cl
HETATM   16  C   UNL     1     -22.582  -4.658  -6.961  1.00  0.00     0.041 A 
ENDBRANCH   8   9
ENDBRANCH   3   8
BRANCH   4  17
HETATM   17  O   UNL     1     -21.570  -5.472  -2.711  1.00  0.00    -0.358 OA
HETATM   18  H   UNL     1     -22.305  -4.948  -3.081  1.00  0.00     0.217 HD
ENDBRANCH   4  17
TORSDOF 3
ENDMDL
MODEL 6
REMARK VINA RESULT:      -6.8      2.382      6.732
REMARK  3 active torsions:
REMARK  status: ('A' for Active; 'I' for Inactive)
REMARK    1  A    between atoms: C_3  and  O_9 
REMARK    2  A    between atoms: C_4  and  O_8 
REMARK    3  A    between atoms: O_9  and  C_10 
ROOT
HETATM    1  C   UNL     1     -22.509  -6.301  -5.674  1.00  0.00     0.027 A 
HETATM    2  C   UNL     1     -22.548  -5.180  -6.508  1.00  0.00     0.042 A 
HETATM    3  C   UNL     1     -21.373  -4.703  -7.095  1.00  0.00     0.109 A 
HETATM    4  C   UNL     1     -20.152  -5.285  -6.738  1.00  0.00     0.101 A 
HETATM    5  C   UNL     1     -20.102  -6.395  -5.905  1.00  0.00     0.063 A 
HETATM    6  C   UNL     1     -21.288  -6.913  -5.394  1.00  0.00     0.036 A 
HETATM    7 CL   UNL     1     -21.254  -8.315  -4.396  1.00  0.00    -0.084 Cl
ENDROOT
BRANCH   3   8
HETATM    8  O   UNL     1     -21.347  -3.665  -8.004  1.00  0.00    -0.306 OA
BRANCH   8   9
HETATM    9  C   UNL     1     -22.092  -3.785  -9.163  1.00  0.00     0.098 A 
HETATM   10  C   UNL     1     -21.460  -4.272 -10.315  1.00  0.00     0.069 A 
HETATM   11  C   UNL     1     -22.164  -4.379 -11.516  1.00  0.00     0.050 A 
HETATM   12 CL   UNL     1     -19.798  -4.737 -10.293  1.00  0.00    -0.081 Cl
HETATM   13  C   UNL     1     -23.506  -4.005 -11.567  1.00  0.00     0.035 A 
HETATM   14  C   UNL     1     -24.159  -3.560 -10.419  1.00  0.00     0.026 A 
HETATM   15 CL   UNL     1     -24.365  -4.093 -13.055  1.00  0.00    -0.084 Cl
HETATM   16  C   UNL     1     -23.461  -3.478  -9.212  1.00  0.00     0.041 A 
ENDBRANCH   8   9
ENDBRANCH   3   8
BRANCH   4  17
HETATM   17  O   UNL     1     -18.964  -4.778  -7.191  1.00  0.00    -0.358 OA
HETATM   18  H   UNL     1     -19.117  -3.840  -7.413  1.00  0.00     0.217 HD
ENDBRANCH   4  17
TORSDOF 3
ENDMDL
MODEL 7
REMARK VINA RESULT:      -6.7      1.544      2.500
REMARK  3 active torsions:
REMARK  status: ('A' for Active; 'I' for Inactive)
REMARK    1  A    between atoms: C_3  and  O_9 
REMARK    2  A    between atoms: C_4  and  O_8 
REMARK    3  A    between atoms: O_9  and  C_10 
ROOT
HETATM    1  C   UNL     1     -19.565  -5.357  -6.807  1.00  0.00     0.027 A 
HETATM    2  C   UNL     1     -20.252  -6.248  -5.977  1.00  0.00     0.042 A 
HETATM    3  C   UNL     1     -21.643  -6.168  -5.864  1.00  0.00     0.109 A 
HETATM    4  C   UNL     1     -22.314  -5.113  -6.491  1.00  0.00     0.101 A 
HETATM    5  C   UNL     1     -21.640  -4.219  -7.312  1.00  0.00     0.063 A 
HETATM    6  C   UNL     1     -20.266  -4.360  -7.484  1.00  0.00     0.036 A 
HETATM    7 CL   UNL     1     -19.417  -3.291  -8.532  1.00  0.00    -0.084 Cl
ENDROOT
BRANCH   3   8
HETATM    8  O   UNL     1     -22.398  -7.072  -5.145  1.00  0.00    -0.306 OA
BRANCH   8   9
HETATM    9  C   UNL     1     -22.086  -7.279  -3.814  1.00  0.00     0.098 A 
HETATM   10  C   UNL     1     -21.549  -8.519  -3.440  1.00  0.00     0.069 A 
HETATM   11  C   UNL     1     -21.249  -8.785  -2.103  1.00  0.00     0.050 A 
HETATM   12 CL   UNL     1     -21.256  -9.755  -4.610  1.00  0.00    -0.081 Cl
HETATM   13  C   UNL     1     -21.480  -7.810  -1.135  1.00  0.00     0.035 A 
HETATM   14  C   UNL     1     -21.973  -6.558  -1.497  1.00  0.00     0.026 A 
HETATM   15 CL   UNL     1     -21.155  -8.150   0.520  1.00  0.00    -0.084 Cl
HETATM   16  C   UNL     1     -22.249  -6.283  -2.838  1.00  0.00     0.041 A 
ENDBRANCH   8   9
ENDBRANCH   3   8
BRANCH   4  17
HETATM   17  O   UNL     1     -23.658  -4.921  -6.312  1.00  0.00    -0.358 OA
HETATM   18  H   UNL     1     -23.823  -3.961  -6.378  1.00  0.00     0.217 HD
ENDBRANCH   4  17
TORSDOF 3
ENDMDL
MODEL 8
REMARK VINA RESULT:      -6.7      4.190      8.279
REMARK  3 active torsions:
REMARK  status: ('A' for Active; 'I' for Inactive)
REMARK    1  A    between atoms: C_3  and  O_9 
REMARK    2  A    between atoms: C_4  and  O_8 
REMARK    3  A    between atoms: O_9  and  C_10 
ROOT
HETATM    1  C   UNL     1     -23.831 -11.301  -0.161  1.00  0.00     0.027 A 
HETATM    2  C   UNL     1     -23.233 -10.037  -0.199  1.00  0.00     0.042 A 
HETATM    3  C   UNL     1     -21.890  -9.888   0.158  1.00  0.00     0.109 A 
HETATM    4  C   UNL     1     -21.198 -10.992   0.668  1.00  0.00     0.101 A 
HETATM    5  C   UNL     1     -21.785 -12.249   0.715  1.00  0.00     0.063 A 
HETATM    6  C   UNL     1     -23.098 -12.401   0.278  1.00  0.00     0.036 A 
HETATM    7 CL   UNL     1     -23.831 -13.959   0.285  1.00  0.00    -0.084 Cl
ENDROOT
BRANCH   3   8
HETATM    8  O   UNL     1     -21.206  -8.695   0.052  1.00  0.00    -0.306 OA
BRANCH   8   9
HETATM    9  C   UNL     1     -21.297  -7.986  -1.132  1.00  0.00     0.098 A 
HETATM   10  C   UNL     1     -20.553  -8.430  -2.234  1.00  0.00     0.069 A 
HETATM   11  C   UNL     1     -20.589  -7.728  -3.440  1.00  0.00     0.050 A 
HETATM   12 CL   UNL     1     -19.566  -9.843  -2.135  1.00  0.00    -0.081 Cl
HETATM   13  C   UNL     1     -21.372  -6.580  -3.549  1.00  0.00     0.035 A 
HETATM   14  C   UNL     1     -22.150  -6.151  -2.475  1.00  0.00     0.026 A 
HETATM   15 CL   UNL     1     -21.383  -5.686  -5.019  1.00  0.00    -0.084 Cl
HETATM   16  C   UNL     1     -22.134  -6.869  -1.278  1.00  0.00     0.041 A 
ENDBRANCH   8   9
ENDBRANCH   3   8
BRANCH   4  17
HETATM   17  O   UNL     1     -19.920 -10.870   1.143  1.00  0.00    -0.358 OA
HETATM   18  H   UNL     1     -19.398 -10.415   0.456  1.00  0.00     0.217 HD
ENDBRANCH   4  17
TORSDOF 3
ENDMDL
MODEL 9
REMARK VINA RESULT:      -6.5      4.029      5.919
REMARK  3 active torsions:
REMARK  status: ('A' for Active; 'I' for Inactive)
REMARK    1  A    between atoms: C_3  and  O_9 
REMARK    2  A    between atoms: C_4  and  O_8 
REMARK    3  A    between atoms: O_9  and  C_10 
ROOT
HETATM    1  C   UNL     1     -20.420  -7.917  -3.513  1.00  0.00     0.027 A 
HETATM    2  C   UNL     1     -20.412  -8.679  -2.341  1.00  0.00     0.042 A 
HETATM    3  C   UNL     1     -21.238  -8.325  -1.270  1.00  0.00     0.109 A 
HETATM    4  C   UNL     1     -21.972  -7.136  -1.345  1.00  0.00     0.101 A 
HETATM    5  C   UNL     1     -21.981  -6.369  -2.502  1.00  0.00     0.063 A 
HETATM    6  C   UNL     1     -21.219  -6.777  -3.592  1.00  0.00     0.036 A 
HETATM    7 CL   UNL     1     -21.251  -5.866  -5.053  1.00  0.00    -0.084 Cl
ENDROOT
BRANCH   3   8
HETATM    8  O   UNL     1     -21.358  -9.082  -0.123  1.00  0.00    -0.306 OA
BRANCH   8   9
HETATM    9  C   UNL     1     -22.060 -10.271  -0.188  1.00  0.00     0.098 A 
HETATM   10  C   UNL     1     -21.362 -11.470   0.009  1.00  0.00     0.069 A 
HETATM   11  C   UNL     1     -22.024 -12.696  -0.079  1.00  0.00     0.050 A 
HETATM   12 CL   UNL     1     -19.670 -11.472   0.352  1.00  0.00    -0.081 Cl
HETATM   13  C   UNL     1     -23.388 -12.727  -0.361  1.00  0.00     0.035 A 
HETATM   14  C   UNL     1     -24.104 -11.541  -0.517  1.00  0.00     0.026 A 
HETATM   15 CL   UNL     1     -24.198 -14.237  -0.516  1.00  0.00    -0.084 Cl
HETATM   16  C   UNL     1     -23.447 -10.315  -0.403  1.00  0.00     0.041 A 
ENDBRANCH   8   9
ENDBRANCH   3   8
BRANCH   4  17
HETATM   17  O   UNL     1     -22.700  -6.683  -0.278  1.00  0.00    -0.358 OA
HETATM   18  H   UNL     1     -23.432  -6.146  -0.635  1.00  0.00     0.217 HD
ENDBRANCH   4  17
TORSDOF 3
ENDMDL
