MODEL 1
REMARK VINA RESULT:      -5.8      0.000      0.000
REMARK WARNING: 32 MAX_TORS EXCEEDED!!!
REMARK  37 active torsions:
REMARK  status: ('A' for Active; 'I' for Inactive)
REMARK    1  A    between atoms: C_2  and  C_3 
REMARK    2  A    between atoms: C_3  and  C_4 
REMARK    3  A    between atoms: C_4  and  C_5 
REMARK    4  A    between atoms: C_5  and  C_6 
REMARK    5  A    between atoms: C_6  and  C_7 
REMARK    6  A    between atoms: C_7  and  C_8 
REMARK    7  A    between atoms: C_8  and  C_9 
REMARK    8  A    between atoms: C_9  and  C_10 
REMARK    9  A    between atoms: C_10  and  C_11 
REMARK   10  A    between atoms: C_11  and  C_12 
REMARK   11  A    between atoms: C_12  and  C_13 
REMARK   12  A    between atoms: C_13  and  C_14 
REMARK   13  A    between atoms: C_14  and  C_15 
REMARK   14  A    between atoms: C_15  and  C_16 
REMARK   15  A    between atoms: C_16  and  C_17 
REMARK   16  A    between atoms: C_17  and  C_18 
REMARK   17  A    between atoms: C_17  and  O_20 
REMARK       I    between atoms: C_18  and  N_22 
REMARK   18  A    between atoms: N_22  and  C_23 
REMARK   19  A    between atoms: C_23  and  C_24 
REMARK   20  A    between atoms: C_23  and  C_26 
REMARK   21  A    between atoms: C_24  and  O_25 
REMARK   22  A    between atoms: C_26  and  C_27 
REMARK   23  A    between atoms: C_26  and  O_43 
REMARK   24  A    between atoms: C_27  and  C_28 
REMARK   25  A    between atoms: C_27  and  O_42 
REMARK   26  A    between atoms: C_28  and  C_29 
REMARK   27  A    between atoms: C_29  and  C_30 
REMARK   28  A    between atoms: C_30  and  C_31 
REMARK   29  A    between atoms: C_31  and  C_32 
REMARK   30  A    between atoms: C_32  and  C_33 
REMARK   31  A    between atoms: C_33  and  C_34 
REMARK   32  A    between atoms: C_34  and  C_35 
REMARK   33  A    between atoms: C_35  and  C_36 
REMARK   34  A    between atoms: C_36  and  C_37 
REMARK   35  A    between atoms: C_37  and  C_38 
REMARK   36  A    between atoms: C_38  and  C_39 
REMARK   37  A    between atoms: C_39  and  C_40 
ROOT
HETATM    1  C   UNK A   1     -19.030 -11.918  -6.816  1.00  0.00     0.139 C 
ENDROOT
BRANCH   1   2
HETATM    2  N   UNK A   1     -18.113 -11.482  -5.774  1.00  0.00    -0.350 N 
HETATM    3  C   UNK A   0     -17.747 -10.170  -5.613  1.00  0.00     0.246 C 
HETATM    4  O   UNK A   0     -18.139  -9.266  -6.358  1.00  0.00    -0.271 OA
HETATM    5  H   UNK A   1     -18.026 -12.114  -4.983  1.00  0.00     0.163 HD
BRANCH   3   6
HETATM    6  C   UNK A   0     -16.745  -9.919  -4.492  1.00  0.00     0.210 C 
BRANCH   6   7
HETATM    7  C   UNK A   0     -16.103 -11.201  -3.967  1.00  0.00     0.041 C 
BRANCH   7   8
HETATM    8  C   UNK A   0     -15.731 -11.065  -2.497  1.00  0.00     0.003 C 
BRANCH   8   9
HETATM    9  C   UNK A   0     -16.169 -12.260  -1.657  1.00  0.00     0.000 C 
BRANCH   9  10
HETATM   10  C   UNK A   0     -16.258 -11.824  -0.199  1.00  0.00     0.000 C 
BRANCH  10  11
HETATM   11  C   UNK A   0     -17.591 -12.197   0.428  1.00  0.00     0.000 C 
BRANCH  11  12
HETATM   12  C   UNK A   0     -18.733 -11.625  -0.404  1.00  0.00     0.000 C 
BRANCH  12  13
HETATM   13  C   UNK A   0     -20.043 -12.305  -0.041  1.00  0.00     0.000 C 
BRANCH  13  14
HETATM   14  C   UNK A   0     -20.437 -13.328  -1.096  1.00  0.00     0.000 C 
BRANCH  14  15
HETATM   15  C   UNK A   0     -21.880 -13.758  -0.882  1.00  0.00     0.000 C 
BRANCH  15  16
HETATM   16  C   UNK A   0     -22.615 -12.771   0.013  1.00  0.00     0.000 C 
BRANCH  16  17
HETATM   17  C   UNK A   0     -23.840 -12.224  -0.707  1.00  0.00     0.000 C 
BRANCH  17  18
HETATM   18  C   UNK A   0     -24.173 -10.824  -0.208  1.00  0.00     0.000 C 
BRANCH  18  19
HETATM   19  C   UNK A   0     -22.899 -10.013   0.003  1.00  0.00     0.000 C 
BRANCH  19  20
HETATM   20  C   UNK A   0     -23.238  -8.569   0.357  1.00  0.00    -0.000 C 
BRANCH  20  21
HETATM   21  C   UNK A   0     -22.101  -7.914   1.133  1.00  0.00    -0.005 C 
HETATM   22  C   UNK A   0     -20.957  -8.890   1.348  1.00  0.00     0.005 C 
ENDBRANCH  20  21
ENDBRANCH  19  20
ENDBRANCH  18  19
ENDBRANCH  17  18
ENDBRANCH  16  17
ENDBRANCH  15  16
ENDBRANCH  14  15
ENDBRANCH  13  14
ENDBRANCH  12  13
ENDBRANCH  11  12
ENDBRANCH  10  11
ENDBRANCH   9  10
ENDBRANCH   8   9
ENDBRANCH   7   8
ENDBRANCH   6   7
BRANCH   6  23
HETATM   23  O   UNK A   0     -17.482  -9.296  -3.449  1.00  0.00    -0.386 OA
HETATM   24  H   UNK A   0     -17.848 -10.021  -2.904  1.00  0.00     0.210 HD
ENDBRANCH   6  23
ENDBRANCH   3   6
ENDBRANCH   1   2
BRANCH   1  25
HETATM   25  C   UNK A   1     -18.308 -12.875  -7.788  1.00  0.00     0.191 C 
BRANCH  25  26
HETATM   26  O   UNK A   1     -18.817 -12.747  -9.114  1.00  0.00    -0.399 OA
HETATM   27  H   UNK A   1     -18.182 -12.179  -9.609  1.00  0.00     0.209 HD
ENDBRANCH  25  26
ENDBRANCH   1  25
BRANCH   1  28
HETATM   28  C   UNK A   1     -20.284 -12.598  -6.231  1.00  0.00     0.171 C 
BRANCH  28  29
HETATM   29  C   UNK A   1     -21.366 -11.593  -5.788  1.00  0.00     0.149 C 
BRANCH  29  30
HETATM   30  C   UNK A   1     -21.588 -11.625  -4.260  1.00  0.00     0.034 C 
BRANCH  30  31
HETATM   31  C   UNK A   1     -20.773 -10.541  -3.560  1.00  0.00     0.002 C 
BRANCH  31  32
HETATM   32  C   UNK A   1     -21.670  -9.458  -2.971  1.00  0.00     0.000 C 
BRANCH  32  33
HETATM   33  C   UNK A   1     -20.819  -8.262  -2.559  1.00  0.00     0.000 C 
BRANCH  33  34
HETATM   34  C   UNK A   1     -21.652  -6.992  -2.493  1.00  0.00     0.000 C 
BRANCH  34  35
HETATM   35  C   UNK A   1     -21.195  -6.014  -3.567  1.00  0.00     0.000 C 
BRANCH  35  36
HETATM   36  C   UNK A   1     -21.831  -6.364  -4.902  1.00  0.00     0.000 C 
BRANCH  36  37
HETATM   37  C   UNK A   1     -20.760  -6.688  -5.933  1.00  0.00     0.000 C 
BRANCH  37  38
HETATM   38  C   UNK A   1     -19.987  -5.429  -6.297  1.00  0.00     0.000 C 
BRANCH  38  39
HETATM   39  C   UNK A   1     -20.932  -4.345  -6.792  1.00  0.00     0.000 C 
BRANCH  39  40
HETATM   40  C   UNK A   1     -20.739  -4.112  -8.286  1.00  0.00     0.000 C 
BRANCH  40  41
HETATM   41  C   UNK A   1     -22.003  -4.480  -9.053  1.00  0.00    -0.000 C 
BRANCH  41  42
HETATM   42  C   UNK A   1     -21.945  -3.955 -10.484  1.00  0.00    -0.005 C 
HETATM   43  C   UNK A   1     -20.549  -4.106 -11.061  1.00  0.00     0.005 C 
ENDBRANCH  41  42
ENDBRANCH  40  41
ENDBRANCH  39  40
ENDBRANCH  38  39
ENDBRANCH  37  38
ENDBRANCH  36  37
ENDBRANCH  35  36
ENDBRANCH  34  35
ENDBRANCH  33  34
ENDBRANCH  32  33
ENDBRANCH  31  32
ENDBRANCH  30  31
ENDBRANCH  29  30
BRANCH  29  44
HETATM   44  O   UNK A   1     -21.005 -10.253  -6.163  1.00  0.00    -0.393 OA
HETATM   45  H   UNK A   1     -20.737  -9.784  -5.358  1.00  0.00     0.210 HD
ENDBRANCH  29  44
ENDBRANCH  28  29
BRANCH  28  46
HETATM   46  O   UNK A   1     -20.828 -13.475  -7.216  1.00  0.00    -0.391 OA
HETATM   47  H   UNK A   1     -20.854 -12.990  -8.062  1.00  0.00     0.210 HD
ENDBRANCH  28  46
ENDBRANCH   1  28
TORSDOF 37
ENDMDL
MODEL 2
REMARK VINA RESULT:      -5.7      1.896      6.817
REMARK WARNING: 32 MAX_TORS EXCEEDED!!!
REMARK  37 active torsions:
REMARK  status: ('A' for Active; 'I' for Inactive)
REMARK    1  A    between atoms: C_2  and  C_3 
REMARK    2  A    between atoms: C_3  and  C_4 
REMARK    3  A    between atoms: C_4  and  C_5 
REMARK    4  A    between atoms: C_5  and  C_6 
REMARK    5  A    between atoms: C_6  and  C_7 
REMARK    6  A    between atoms: C_7  and  C_8 
REMARK    7  A    between atoms: C_8  and  C_9 
REMARK    8  A    between atoms: C_9  and  C_10 
REMARK    9  A    between atoms: C_10  and  C_11 
REMARK   10  A    between atoms: C_11  and  C_12 
REMARK   11  A    between atoms: C_12  and  C_13 
REMARK   12  A    between atoms: C_13  and  C_14 
REMARK   13  A    between atoms: C_14  and  C_15 
REMARK   14  A    between atoms: C_15  and  C_16 
REMARK   15  A    between atoms: C_16  and  C_17 
REMARK   16  A    between atoms: C_17  and  C_18 
REMARK   17  A    between atoms: C_17  and  O_20 
REMARK       I    between atoms: C_18  and  N_22 
REMARK   18  A    between atoms: N_22  and  C_23 
REMARK   19  A    between atoms: C_23  and  C_24 
REMARK   20  A    between atoms: C_23  and  C_26 
REMARK   21  A    between atoms: C_24  and  O_25 
REMARK   22  A    between atoms: C_26  and  C_27 
REMARK   23  A    between atoms: C_26  and  O_43 
REMARK   24  A    between atoms: C_27  and  C_28 
REMARK   25  A    between atoms: C_27  and  O_42 
REMARK   26  A    between atoms: C_28  and  C_29 
REMARK   27  A    between atoms: C_29  and  C_30 
REMARK   28  A    between atoms: C_30  and  C_31 
REMARK   29  A    between atoms: C_31  and  C_32 
REMARK   30  A    between atoms: C_32  and  C_33 
REMARK   31  A    between atoms: C_33  and  C_34 
REMARK   32  A    between atoms: C_34  and  C_35 
REMARK   33  A    between atoms: C_35  and  C_36 
REMARK   34  A    between atoms: C_36  and  C_37 
REMARK   35  A    between atoms: C_37  and  C_38 
REMARK   36  A    between atoms: C_38  and  C_39 
REMARK   37  A    between atoms: C_39  and  C_40 
ROOT
HETATM    1  C   UNK A   1     -18.233 -13.796  -6.119  1.00  0.00     0.139 C 
ENDROOT
BRANCH   1   2
HETATM    2  N   UNK A   1     -18.901 -13.411  -4.886  1.00  0.00    -0.350 N 
HETATM    3  C   UNK A   0     -18.632 -14.009  -3.681  1.00  0.00     0.246 C 
HETATM    4  O   UNK A   0     -17.831 -14.941  -3.557  1.00  0.00    -0.271 OA
HETATM    5  H   UNK A   1     -19.309 -12.480  -4.888  1.00  0.00     0.163 HD
BRANCH   3   6
HETATM    6  C   UNK A   0     -19.464 -13.496  -2.512  1.00  0.00     0.210 C 
BRANCH   6   7
HETATM    7  C   UNK A   0     -18.619 -13.125  -1.296  1.00  0.00     0.041 C 
BRANCH   7   8
HETATM    8  C   UNK A   0     -19.500 -12.760  -0.108  1.00  0.00     0.003 C 
BRANCH   8   9
HETATM    9  C   UNK A   0     -19.441 -11.277   0.245  1.00  0.00     0.000 C 
BRANCH   9  10
HETATM   10  C   UNK A   0     -20.472 -10.993   1.331  1.00  0.00     0.000 C 
BRANCH  10  11
HETATM   11  C   UNK A   0     -20.434  -9.545   1.790  1.00  0.00     0.000 C 
BRANCH  11  12
HETATM   12  C   UNK A   0     -20.921  -8.633   0.669  1.00  0.00     0.000 C 
BRANCH  12  13
HETATM   13  C   UNK A   0     -22.361  -8.217   0.915  1.00  0.00     0.000 C 
BRANCH  13  14
HETATM   14  C   UNK A   0     -22.854  -7.284  -0.182  1.00  0.00     0.000 C 
BRANCH  14  15
HETATM   15  C   UNK A   0     -21.779  -7.129  -1.246  1.00  0.00     0.000 C 
BRANCH  15  16
HETATM   16  C   UNK A   0     -22.246  -6.207  -2.362  1.00  0.00     0.000 C 
BRANCH  16  17
HETATM   17  C   UNK A   0     -21.291  -6.291  -3.545  1.00  0.00     0.000 C 
BRANCH  17  18
HETATM   18  C   UNK A   0     -21.953  -7.003  -4.717  1.00  0.00     0.000 C 
BRANCH  18  19
HETATM   19  C   UNK A   0     -21.061  -6.947  -5.952  1.00  0.00     0.000 C 
BRANCH  19  20
HETATM   20  C   UNK A   0     -20.272  -5.642  -5.983  1.00  0.00    -0.000 C 
BRANCH  20  21
HETATM   21  C   UNK A   0     -20.403  -4.955  -7.338  1.00  0.00    -0.005 C 
HETATM   22  C   UNK A   0     -21.219  -3.679  -7.224  1.00  0.00     0.005 C 
ENDBRANCH  20  21
ENDBRANCH  19  20
ENDBRANCH  18  19
ENDBRANCH  17  18
ENDBRANCH  16  17
ENDBRANCH  15  16
ENDBRANCH  14  15
ENDBRANCH  13  14
ENDBRANCH  12  13
ENDBRANCH  11  12
ENDBRANCH  10  11
ENDBRANCH   9  10
ENDBRANCH   8   9
ENDBRANCH   7   8
ENDBRANCH   6   7
BRANCH   6  23
HETATM   23  O   UNK A   0     -20.345 -14.558  -2.171  1.00  0.00    -0.386 OA
HETATM   24  H   UNK A   0     -20.317 -15.185  -2.921  1.00  0.00     0.210 HD
ENDBRANCH   6  23
ENDBRANCH   3   6
ENDBRANCH   1   2
BRANCH   1  25
HETATM   25  C   UNK A   1     -19.279 -14.154  -7.196  1.00  0.00     0.191 C 
BRANCH  25  26
HETATM   26  O   UNK A   1     -19.509 -13.058  -8.079  1.00  0.00    -0.399 OA
HETATM   27  H   UNK A   1     -19.730 -13.443  -8.959  1.00  0.00     0.209 HD
ENDBRANCH  25  26
ENDBRANCH   1  25
BRANCH   1  28
HETATM   28  C   UNK A   1     -17.294 -12.687  -6.636  1.00  0.00     0.171 C 
BRANCH  28  29
HETATM   29  C   UNK A   1     -17.579 -11.311  -6.002  1.00  0.00     0.149 C 
BRANCH  29  30
HETATM   30  C   UNK A   1     -16.312 -10.430  -5.951  1.00  0.00     0.034 C 
BRANCH  30  31
HETATM   31  C   UNK A   1     -16.156  -9.765  -4.586  1.00  0.00     0.002 C 
BRANCH  31  32
HETATM   32  C   UNK A   1     -16.839 -10.573  -3.489  1.00  0.00     0.000 C 
BRANCH  32  33
HETATM   33  C   UNK A   1     -17.722  -9.652  -2.655  1.00  0.00     0.000 C 
BRANCH  33  34
HETATM   34  C   UNK A   1     -18.945  -9.204  -3.439  1.00  0.00     0.000 C 
BRANCH  34  35
HETATM   35  C   UNK A   1     -20.198  -9.852  -2.865  1.00  0.00     0.000 C 
BRANCH  35  36
HETATM   36  C   UNK A   1     -21.031 -10.465  -3.978  1.00  0.00     0.000 C 
BRANCH  36  37
HETATM   37  C   UNK A   1     -22.270 -11.137  -3.406  1.00  0.00     0.000 C 
BRANCH  37  38
HETATM   38  C   UNK A   1     -22.313 -10.956  -1.896  1.00  0.00     0.000 C 
BRANCH  38  39
HETATM   39  C   UNK A   1     -23.750 -10.977  -1.395  1.00  0.00     0.000 C 
BRANCH  39  40
HETATM   40  C   UNK A   1     -23.806 -11.480   0.042  1.00  0.00     0.000 C 
BRANCH  40  41
HETATM   41  C   UNK A   1     -23.427 -12.953   0.109  1.00  0.00    -0.000 C 
BRANCH  41  42
HETATM   42  C   UNK A   1     -22.802 -13.295   1.458  1.00  0.00    -0.005 C 
HETATM   43  C   UNK A   1     -23.651 -14.305   2.209  1.00  0.00     0.005 C 
ENDBRANCH  41  42
ENDBRANCH  40  41
ENDBRANCH  39  40
ENDBRANCH  38  39
ENDBRANCH  37  38
ENDBRANCH  36  37
ENDBRANCH  35  36
ENDBRANCH  34  35
ENDBRANCH  33  34
ENDBRANCH  32  33
ENDBRANCH  31  32
ENDBRANCH  30  31
ENDBRANCH  29  30
BRANCH  29  44
HETATM   44  O   UNK A   1     -18.590 -10.604  -6.741  1.00  0.00    -0.393 OA
HETATM   45  H   UNK A   1     -18.997  -9.962  -6.141  1.00  0.00     0.210 HD
ENDBRANCH  29  44
ENDBRANCH  28  29
BRANCH  28  46
HETATM   46  O   UNK A   1     -15.947 -13.066  -6.358  1.00  0.00    -0.391 OA
HETATM   47  H   UNK A   1     -15.416 -12.874  -7.154  1.00  0.00     0.210 HD
ENDBRANCH  28  46
ENDBRANCH   1  28
TORSDOF 37
ENDMDL
MODEL 3
REMARK VINA RESULT:      -5.7      2.440      6.360
REMARK WARNING: 32 MAX_TORS EXCEEDED!!!
REMARK  37 active torsions:
REMARK  status: ('A' for Active; 'I' for Inactive)
REMARK    1  A    between atoms: C_2  and  C_3 
REMARK    2  A    between atoms: C_3  and  C_4 
REMARK    3  A    between atoms: C_4  and  C_5 
REMARK    4  A    between atoms: C_5  and  C_6 
REMARK    5  A    between atoms: C_6  and  C_7 
REMARK    6  A    between atoms: C_7  and  C_8 
REMARK    7  A    between atoms: C_8  and  C_9 
REMARK    8  A    between atoms: C_9  and  C_10 
REMARK    9  A    between atoms: C_10  and  C_11 
REMARK   10  A    between atoms: C_11  and  C_12 
REMARK   11  A    between atoms: C_12  and  C_13 
REMARK   12  A    between atoms: C_13  and  C_14 
REMARK   13  A    between atoms: C_14  and  C_15 
REMARK   14  A    between atoms: C_15  and  C_16 
REMARK   15  A    between atoms: C_16  and  C_17 
REMARK   16  A    between atoms: C_17  and  C_18 
REMARK   17  A    between atoms: C_17  and  O_20 
REMARK       I    between atoms: C_18  and  N_22 
REMARK   18  A    between atoms: N_22  and  C_23 
REMARK   19  A    between atoms: C_23  and  C_24 
REMARK   20  A    between atoms: C_23  and  C_26 
REMARK   21  A    between atoms: C_24  and  O_25 
REMARK   22  A    between atoms: C_26  and  C_27 
REMARK   23  A    between atoms: C_26  and  O_43 
REMARK   24  A    between atoms: C_27  and  C_28 
REMARK   25  A    between atoms: C_27  and  O_42 
REMARK   26  A    between atoms: C_28  and  C_29 
REMARK   27  A    between atoms: C_29  and  C_30 
REMARK   28  A    between atoms: C_30  and  C_31 
REMARK   29  A    between atoms: C_31  and  C_32 
REMARK   30  A    between atoms: C_32  and  C_33 
REMARK   31  A    between atoms: C_33  and  C_34 
REMARK   32  A    between atoms: C_34  and  C_35 
REMARK   33  A    between atoms: C_35  and  C_36 
REMARK   34  A    between atoms: C_36  and  C_37 
REMARK   35  A    between atoms: C_37  and  C_38 
REMARK   36  A    between atoms: C_38  and  C_39 
REMARK   37  A    between atoms: C_39  and  C_40 
ROOT
HETATM    1  C   UNK A   1     -21.937 -10.917  -0.754  1.00  0.00     0.139 C 
ENDROOT
BRANCH   1   2
HETATM    2  N   UNK A   1     -21.504 -11.692  -1.905  1.00  0.00    -0.350 N 
HETATM    3  C   UNK A   0     -22.096 -11.581  -3.138  1.00  0.00     0.246 C 
HETATM    4  O   UNK A   0     -23.061 -10.843  -3.355  1.00  0.00    -0.271 OA
HETATM    5  H   UNK A   1     -20.556 -12.054  -1.850  1.00  0.00     0.163 HD
BRANCH   3   6
HETATM    6  C   UNK A   0     -21.528 -12.508  -4.206  1.00  0.00     0.210 C 
BRANCH   6   7
HETATM    7  C   UNK A   0     -22.372 -12.541  -5.478  1.00  0.00     0.041 C 
BRANCH   7   8
HETATM    8  C   UNK A   0     -21.618 -11.928  -6.651  1.00  0.00     0.003 C 
BRANCH   8   9
HETATM    9  C   UNK A   0     -20.911 -12.968  -7.514  1.00  0.00     0.000 C 
BRANCH   9  10
HETATM   10  C   UNK A   0     -19.432 -12.606  -7.601  1.00  0.00     0.000 C 
BRANCH  10  11
HETATM   11  C   UNK A   0     -18.641 -13.154  -6.426  1.00  0.00     0.000 C 
BRANCH  11  12
HETATM   12  C   UNK A   0     -18.133 -12.005  -5.561  1.00  0.00     0.000 C 
BRANCH  12  13
HETATM   13  C   UNK A   0     -18.130 -10.709  -6.353  1.00  0.00     0.000 C 
BRANCH  13  14
HETATM   14  C   UNK A   0     -18.186  -9.504  -5.426  1.00  0.00     0.000 C 
BRANCH  14  15
HETATM   15  C   UNK A   0     -18.906  -9.877  -4.140  1.00  0.00     0.000 C 
BRANCH  15  16
HETATM   16  C   UNK A   0     -18.163  -9.343  -2.925  1.00  0.00     0.000 C 
BRANCH  16  17
HETATM   17  C   UNK A   0     -16.670  -9.605  -3.068  1.00  0.00     0.000 C 
BRANCH  17  18
HETATM   18  C   UNK A   0     -16.269 -10.849  -2.288  1.00  0.00     0.000 C 
BRANCH  18  19
HETATM   19  C   UNK A   0     -15.153 -11.598  -3.009  1.00  0.00     0.000 C 
BRANCH  19  20
HETATM   20  C   UNK A   0     -14.979 -11.062  -4.426  1.00  0.00    -0.000 C 
BRANCH  20  21
HETATM   21  C   UNK A   0     -14.120 -12.000  -5.265  1.00  0.00    -0.005 C 
HETATM   22  C   UNK A   0     -14.664 -12.118  -6.679  1.00  0.00     0.005 C 
ENDBRANCH  20  21
ENDBRANCH  19  20
ENDBRANCH  18  19
ENDBRANCH  17  18
ENDBRANCH  16  17
ENDBRANCH  15  16
ENDBRANCH  14  15
ENDBRANCH  13  14
ENDBRANCH  12  13
ENDBRANCH  11  12
ENDBRANCH  10  11
ENDBRANCH   9  10
ENDBRANCH   8   9
ENDBRANCH   7   8
ENDBRANCH   6   7
BRANCH   6  23
HETATM   23  O   UNK A   0     -21.504 -13.802  -3.619  1.00  0.00    -0.386 OA
HETATM   24  H   UNK A   0     -20.740 -14.266  -4.015  1.00  0.00     0.210 HD
ENDBRANCH   6  23
ENDBRANCH   3   6
ENDBRANCH   1   2
BRANCH   1  25
HETATM   25  C   UNK A   1     -22.509 -11.855   0.330  1.00  0.00     0.191 C 
BRANCH  25  26
HETATM   26  O   UNK A   1     -21.786 -13.082   0.387  1.00  0.00    -0.399 OA
HETATM   27  H   UNK A   1     -21.189 -13.097  -0.397  1.00  0.00     0.209 HD
ENDBRANCH  25  26
ENDBRANCH   1  25
BRANCH   1  28
HETATM   28  C   UNK A   1     -20.792 -10.064  -0.170  1.00  0.00     0.171 C 
BRANCH  28  29
HETATM   29  C   UNK A   1     -21.157  -8.572  -0.038  1.00  0.00     0.149 C 
BRANCH  29  30
HETATM   30  C   UNK A   1     -22.209  -8.144  -1.084  1.00  0.00     0.034 C 
BRANCH  30  31
HETATM   31  C   UNK A   1     -22.194  -6.632  -1.296  1.00  0.00     0.002 C 
BRANCH  31  32
HETATM   32  C   UNK A   1     -21.737  -6.269  -2.704  1.00  0.00     0.000 C 
BRANCH  32  33
HETATM   33  C   UNK A   1     -21.670  -7.530  -3.558  1.00  0.00     0.000 C 
BRANCH  33  34
HETATM   34  C   UNK A   1     -21.680  -7.191  -5.040  1.00  0.00     0.000 C 
BRANCH  34  35
HETATM   35  C   UNK A   1     -20.918  -5.895  -5.282  1.00  0.00     0.000 C 
BRANCH  35  36
HETATM   36  C   UNK A   1     -19.879  -6.091  -6.373  1.00  0.00     0.000 C 
BRANCH  36  37
HETATM   37  C   UNK A   1     -19.494  -4.754  -6.988  1.00  0.00     0.000 C 
BRANCH  37  38
HETATM   38  C   UNK A   1     -20.745  -3.948  -7.310  1.00  0.00     0.000 C 
BRANCH  38  39
HETATM   39  C   UNK A   1     -21.321  -4.369  -8.653  1.00  0.00     0.000 C 
BRANCH  39  40
HETATM   40  C   UNK A   1     -22.761  -3.888  -8.790  1.00  0.00     0.000 C 
BRANCH  40  41
HETATM   41  C   UNK A   1     -23.243  -4.045 -10.226  1.00  0.00    -0.000 C 
BRANCH  41  42
HETATM   42  C   UNK A   1     -22.068  -4.067 -11.197  1.00  0.00    -0.005 C 
HETATM   43  C   UNK A   1     -22.327  -3.158 -12.385  1.00  0.00     0.005 C 
ENDBRANCH  41  42
ENDBRANCH  40  41
ENDBRANCH  39  40
ENDBRANCH  38  39
ENDBRANCH  37  38
ENDBRANCH  36  37
ENDBRANCH  35  36
ENDBRANCH  34  35
ENDBRANCH  33  34
ENDBRANCH  32  33
ENDBRANCH  31  32
ENDBRANCH  30  31
ENDBRANCH  29  30
BRANCH  29  44
HETATM   44  O   UNK A   1     -21.680  -8.286   1.270  1.00  0.00    -0.393 OA
HETATM   45  H   UNK A   1     -22.153  -7.441   1.219  1.00  0.00     0.210 HD
ENDBRANCH  29  44
ENDBRANCH  28  29
BRANCH  28  46
HETATM   46  O   UNK A   1     -20.447 -10.583   1.113  1.00  0.00    -0.391 OA
HETATM   47  H   UNK A   1     -19.601 -11.059   1.023  1.00  0.00     0.210 HD
ENDBRANCH  28  46
ENDBRANCH   1  28
TORSDOF 37
ENDMDL
MODEL 4
REMARK VINA RESULT:      -5.7      2.329      6.188
REMARK WARNING: 32 MAX_TORS EXCEEDED!!!
REMARK  37 active torsions:
REMARK  status: ('A' for Active; 'I' for Inactive)
REMARK    1  A    between atoms: C_2  and  C_3 
REMARK    2  A    between atoms: C_3  and  C_4 
REMARK    3  A    between atoms: C_4  and  C_5 
REMARK    4  A    between atoms: C_5  and  C_6 
REMARK    5  A    between atoms: C_6  and  C_7 
REMARK    6  A    between atoms: C_7  and  C_8 
REMARK    7  A    between atoms: C_8  and  C_9 
REMARK    8  A    between atoms: C_9  and  C_10 
REMARK    9  A    between atoms: C_10  and  C_11 
REMARK   10  A    between atoms: C_11  and  C_12 
REMARK   11  A    between atoms: C_12  and  C_13 
REMARK   12  A    between atoms: C_13  and  C_14 
REMARK   13  A    between atoms: C_14  and  C_15 
REMARK   14  A    between atoms: C_15  and  C_16 
REMARK   15  A    between atoms: C_16  and  C_17 
REMARK   16  A    between atoms: C_17  and  C_18 
REMARK   17  A    between atoms: C_17  and  O_20 
REMARK       I    between atoms: C_18  and  N_22 
REMARK   18  A    between atoms: N_22  and  C_23 
REMARK   19  A    between atoms: C_23  and  C_24 
REMARK   20  A    between atoms: C_23  and  C_26 
REMARK   21  A    between atoms: C_24  and  O_25 
REMARK   22  A    between atoms: C_26  and  C_27 
REMARK   23  A    between atoms: C_26  and  O_43 
REMARK   24  A    between atoms: C_27  and  C_28 
REMARK   25  A    between atoms: C_27  and  O_42 
REMARK   26  A    between atoms: C_28  and  C_29 
REMARK   27  A    between atoms: C_29  and  C_30 
REMARK   28  A    between atoms: C_30  and  C_31 
REMARK   29  A    between atoms: C_31  and  C_32 
REMARK   30  A    between atoms: C_32  and  C_33 
REMARK   31  A    between atoms: C_33  and  C_34 
REMARK   32  A    between atoms: C_34  and  C_35 
REMARK   33  A    between atoms: C_35  and  C_36 
REMARK   34  A    between atoms: C_36  and  C_37 
REMARK   35  A    between atoms: C_37  and  C_38 
REMARK   36  A    between atoms: C_38  and  C_39 
REMARK   37  A    between atoms: C_39  and  C_40 
ROOT
HETATM    1  C   UNK A   1     -21.637 -11.535  -0.277  1.00  0.00     0.139 C 
ENDROOT
BRANCH   1   2
HETATM    2  N   UNK A   1     -21.133 -11.768  -1.621  1.00  0.00    -0.350 N 
HETATM    3  C   UNK A   0     -21.841 -11.427  -2.746  1.00  0.00     0.246 C 
HETATM    4  O   UNK A   0     -22.971 -10.931  -2.704  1.00  0.00    -0.271 OA
HETATM    5  H   UNK A   1     -20.125 -11.872  -1.692  1.00  0.00     0.163 HD
BRANCH   3   6
HETATM    6  C   UNK A   0     -21.163 -11.789  -4.062  1.00  0.00     0.210 C 
BRANCH   6   7
HETATM    7  C   UNK A   0     -19.685 -11.412  -4.095  1.00  0.00     0.041 C 
BRANCH   7   8
HETATM    8  C   UNK A   0     -19.385 -10.471  -5.254  1.00  0.00     0.003 C 
BRANCH   8   9
HETATM    9  C   UNK A   0     -18.268  -9.480  -4.944  1.00  0.00     0.000 C 
BRANCH   9  10
HETATM   10  C   UNK A   0     -17.982  -9.520  -3.446  1.00  0.00     0.000 C 
BRANCH  10  11
HETATM   11  C   UNK A   0     -16.494  -9.465  -3.148  1.00  0.00     0.000 C 
BRANCH  11  12
HETATM   12  C   UNK A   0     -16.062 -10.738  -2.427  1.00  0.00     0.000 C 
BRANCH  12  13
HETATM   13  C   UNK A   0     -15.690 -11.814  -3.433  1.00  0.00     0.000 C 
BRANCH  13  14
HETATM   14  C   UNK A   0     -15.150 -11.198  -4.716  1.00  0.00     0.000 C 
BRANCH  14  15
HETATM   15  C   UNK A   0     -15.293 -12.188  -5.862  1.00  0.00     0.000 C 
BRANCH  15  16
HETATM   16  C   UNK A   0     -16.141 -13.382  -5.447  1.00  0.00     0.000 C 
BRANCH  16  17
HETATM   17  C   UNK A   0     -17.422 -13.424  -6.270  1.00  0.00     0.000 C 
BRANCH  17  18
HETATM   18  C   UNK A   0     -17.171 -12.901  -7.677  1.00  0.00     0.000 C 
BRANCH  18  19
HETATM   19  C   UNK A   0     -18.470 -12.414  -8.308  1.00  0.00     0.000 C 
BRANCH  19  20
HETATM   20  C   UNK A   0     -19.489 -13.547  -8.376  1.00  0.00    -0.000 C 
BRANCH  20  21
HETATM   21  C   UNK A   0     -20.795 -13.151  -7.696  1.00  0.00    -0.005 C 
HETATM   22  C   UNK A   0     -21.366 -14.312  -6.900  1.00  0.00     0.005 C 
ENDBRANCH  20  21
ENDBRANCH  19  20
ENDBRANCH  18  19
ENDBRANCH  17  18
ENDBRANCH  16  17
ENDBRANCH  15  16
ENDBRANCH  14  15
ENDBRANCH  13  14
ENDBRANCH  12  13
ENDBRANCH  11  12
ENDBRANCH  10  11
ENDBRANCH   9  10
ENDBRANCH   8   9
ENDBRANCH   7   8
ENDBRANCH   6   7
BRANCH   6  23
HETATM   23  O   UNK A   0     -21.860 -11.063  -5.066  1.00  0.00    -0.386 OA
HETATM   24  H   UNK A   0     -21.894 -11.646  -5.850  1.00  0.00     0.210 HD
ENDBRANCH   6  23
ENDBRANCH   3   6
ENDBRANCH   1   2
BRANCH   1  25
HETATM   25  C   UNK A   1     -21.131 -12.640   0.675  1.00  0.00     0.191 C 
BRANCH  25  26
HETATM   26  O   UNK A   1     -19.810 -13.054   0.331  1.00  0.00    -0.399 OA
HETATM   27  H   UNK A   1     -19.230 -12.814   1.091  1.00  0.00     0.209 HD
ENDBRANCH  25  26
ENDBRANCH   1  25
BRANCH   1  28
HETATM   28  C   UNK A   1     -21.233 -10.146   0.257  1.00  0.00     0.171 C 
BRANCH  28  29
HETATM   29  C   UNK A   1     -22.445  -9.261   0.612  1.00  0.00     0.149 C 
BRANCH  29  30
HETATM   30  C   UNK A   1     -22.193  -7.777   0.267  1.00  0.00     0.034 C 
BRANCH  30  31
HETATM   31  C   UNK A   1     -21.603  -7.628  -1.133  1.00  0.00     0.002 C 
BRANCH  31  32
HETATM   32  C   UNK A   1     -22.162  -6.403  -1.848  1.00  0.00     0.000 C 
BRANCH  32  33
HETATM   33  C   UNK A   1     -21.468  -6.241  -3.195  1.00  0.00     0.000 C 
BRANCH  33  34
HETATM   34  C   UNK A   1     -21.433  -7.557  -3.958  1.00  0.00     0.000 C 
BRANCH  34  35
HETATM   35  C   UNK A   1     -21.355  -7.288  -5.454  1.00  0.00     0.000 C 
BRANCH  35  36
HETATM   36  C   UNK A   1     -20.574  -6.012  -5.721  1.00  0.00     0.000 C 
BRANCH  36  37
HETATM   37  C   UNK A   1     -19.823  -6.114  -7.040  1.00  0.00     0.000 C 
BRANCH  37  38
HETATM   38  C   UNK A   1     -20.165  -4.927  -7.929  1.00  0.00     0.000 C 
BRANCH  38  39
HETATM   39  C   UNK A   1     -21.091  -3.963  -7.202  1.00  0.00     0.000 C 
BRANCH  39  40
HETATM   40  C   UNK A   1     -22.318  -3.658  -8.052  1.00  0.00     0.000 C 
BRANCH  40  41
HETATM   41  C   UNK A   1     -22.338  -4.536  -9.297  1.00  0.00    -0.000 C 
BRANCH  41  42
HETATM   42  C   UNK A   1     -23.590  -4.276 -10.128  1.00  0.00    -0.005 C 
HETATM   43  C   UNK A   1     -23.429  -4.819 -11.537  1.00  0.00     0.005 C 
ENDBRANCH  41  42
ENDBRANCH  40  41
ENDBRANCH  39  40
ENDBRANCH  38  39
ENDBRANCH  37  38
ENDBRANCH  36  37
ENDBRANCH  35  36
ENDBRANCH  34  35
ENDBRANCH  33  34
ENDBRANCH  32  33
ENDBRANCH  31  32
ENDBRANCH  30  31
ENDBRANCH  29  30
BRANCH  29  44
HETATM   44  O   UNK A   1     -23.621  -9.694  -0.091  1.00  0.00    -0.393 OA
HETATM   45  H   UNK A   1     -24.079  -8.902  -0.413  1.00  0.00     0.210 HD
ENDBRANCH  29  44
ENDBRANCH  28  29
BRANCH  28  46
HETATM   46  O   UNK A   1     -20.420 -10.322   1.415  1.00  0.00    -0.391 OA
HETATM   47  H   UNK A   1     -20.206  -9.436   1.764  1.00  0.00     0.210 HD
ENDBRANCH  28  46
ENDBRANCH   1  28
TORSDOF 37
ENDMDL
MODEL 5
REMARK VINA RESULT:      -5.6      2.424      5.989
REMARK WARNING: 32 MAX_TORS EXCEEDED!!!
REMARK  37 active torsions:
REMARK  status: ('A' for Active; 'I' for Inactive)
REMARK    1  A    between atoms: C_2  and  C_3 
REMARK    2  A    between atoms: C_3  and  C_4 
REMARK    3  A    between atoms: C_4  and  C_5 
REMARK    4  A    between atoms: C_5  and  C_6 
REMARK    5  A    between atoms: C_6  and  C_7 
REMARK    6  A    between atoms: C_7  and  C_8 
REMARK    7  A    between atoms: C_8  and  C_9 
REMARK    8  A    between atoms: C_9  and  C_10 
REMARK    9  A    between atoms: C_10  and  C_11 
REMARK   10  A    between atoms: C_11  and  C_12 
REMARK   11  A    between atoms: C_12  and  C_13 
REMARK   12  A    between atoms: C_13  and  C_14 
REMARK   13  A    between atoms: C_14  and  C_15 
REMARK   14  A    between atoms: C_15  and  C_16 
REMARK   15  A    between atoms: C_16  and  C_17 
REMARK   16  A    between atoms: C_17  and  C_18 
REMARK   17  A    between atoms: C_17  and  O_20 
REMARK       I    between atoms: C_18  and  N_22 
REMARK   18  A    between atoms: N_22  and  C_23 
REMARK   19  A    between atoms: C_23  and  C_24 
REMARK   20  A    between atoms: C_23  and  C_26 
REMARK   21  A    between atoms: C_24  and  O_25 
REMARK   22  A    between atoms: C_26  and  C_27 
REMARK   23  A    between atoms: C_26  and  O_43 
REMARK   24  A    between atoms: C_27  and  C_28 
REMARK   25  A    between atoms: C_27  and  O_42 
REMARK   26  A    between atoms: C_28  and  C_29 
REMARK   27  A    between atoms: C_29  and  C_30 
REMARK   28  A    between atoms: C_30  and  C_31 
REMARK   29  A    between atoms: C_31  and  C_32 
REMARK   30  A    between atoms: C_32  and  C_33 
REMARK   31  A    between atoms: C_33  and  C_34 
REMARK   32  A    between atoms: C_34  and  C_35 
REMARK   33  A    between atoms: C_35  and  C_36 
REMARK   34  A    between atoms: C_36  and  C_37 
REMARK   35  A    between atoms: C_37  and  C_38 
REMARK   36  A    between atoms: C_38  and  C_39 
REMARK   37  A    between atoms: C_39  and  C_40 
ROOT
HETATM    1  C   UNK A   1     -20.992 -11.508  -1.088  1.00  0.00     0.139 C 
ENDROOT
BRANCH   1   2
HETATM    2  N   UNK A   1     -20.180 -11.216  -2.258  1.00  0.00    -0.350 N 
HETATM    3  C   UNK A   0     -20.713 -10.736  -3.428  1.00  0.00     0.246 C 
HETATM    4  O   UNK A   0     -21.923 -10.549  -3.588  1.00  0.00    -0.271 OA
HETATM    5  H   UNK A   1     -19.193 -11.059  -2.071  1.00  0.00     0.163 HD
BRANCH   3   6
HETATM    6  C   UNK A   0     -19.706 -10.532  -4.554  1.00  0.00     0.210 C 
BRANCH   6   7
HETATM    7  C   UNK A   0     -18.616  -9.523  -4.203  1.00  0.00     0.041 C 
BRANCH   7   8
HETATM    8  C   UNK A   0     -17.419  -9.663  -5.135  1.00  0.00     0.003 C 
BRANCH   8   9
HETATM    9  C   UNK A   0     -16.120  -9.966  -4.395  1.00  0.00     0.000 C 
BRANCH   9  10
HETATM   10  C   UNK A   0     -16.281  -9.551  -2.937  1.00  0.00     0.000 C 
BRANCH  10  11
HETATM   11  C   UNK A   0     -15.738 -10.600  -1.982  1.00  0.00     0.000 C 
BRANCH  11  12
HETATM   12  C   UNK A   0     -16.839 -11.591  -1.618  1.00  0.00     0.000 C 
BRANCH  12  13
HETATM   13  C   UNK A   0     -16.774 -11.933  -0.140  1.00  0.00     0.000 C 
BRANCH  13  14
HETATM   14  C   UNK A   0     -15.419 -12.522   0.225  1.00  0.00     0.000 C 
BRANCH  14  15
HETATM   15  C   UNK A   0     -15.269 -13.897  -0.409  1.00  0.00     0.000 C 
BRANCH  15  16
HETATM   16  C   UNK A   0     -13.815 -14.179  -0.760  1.00  0.00     0.000 C 
BRANCH  16  17
HETATM   17  C   UNK A   0     -13.577 -13.926  -2.242  1.00  0.00     0.000 C 
BRANCH  17  18
HETATM   18  C   UNK A   0     -14.819 -14.275  -3.051  1.00  0.00     0.000 C 
BRANCH  18  19
HETATM   19  C   UNK A   0     -14.893 -13.424  -4.314  1.00  0.00     0.000 C 
BRANCH  19  20
HETATM   20  C   UNK A   0     -13.499 -12.984  -4.745  1.00  0.00    -0.000 C 
BRANCH  20  21
HETATM   21  C   UNK A   0     -13.472 -12.621  -6.226  1.00  0.00    -0.005 C 
HETATM   22  C   UNK A   0     -14.867 -12.291  -6.729  1.00  0.00     0.005 C 
ENDBRANCH  20  21
ENDBRANCH  19  20
ENDBRANCH  18  19
ENDBRANCH  17  18
ENDBRANCH  16  17
ENDBRANCH  15  16
ENDBRANCH  14  15
ENDBRANCH  13  14
ENDBRANCH  12  13
ENDBRANCH  11  12
ENDBRANCH  10  11
ENDBRANCH   9  10
ENDBRANCH   8   9
ENDBRANCH   7   8
ENDBRANCH   6   7
BRANCH   6  23
HETATM   23  O   UNK A   0     -20.458 -10.053  -5.661  1.00  0.00    -0.386 OA
HETATM   24  H   UNK A   0     -19.911 -10.220  -6.454  1.00  0.00     0.210 HD
ENDBRANCH   6  23
ENDBRANCH   3   6
ENDBRANCH   1   2
BRANCH   1  25
HETATM   25  C   UNK A   1     -20.404 -12.714  -0.325  1.00  0.00     0.191 C 
BRANCH  25  26
HETATM   26  O   UNK A   1     -21.371 -13.296   0.546  1.00  0.00    -0.399 OA
HETATM   27  H   UNK A   1     -21.177 -14.261   0.583  1.00  0.00     0.209 HD
ENDBRANCH  25  26
ENDBRANCH   1  25
BRANCH   1  28
HETATM   28  C   UNK A   1     -21.108 -10.290  -0.150  1.00  0.00     0.171 C 
BRANCH  28  29
HETATM   29  C   UNK A   1     -22.562  -9.812   0.042  1.00  0.00     0.149 C 
BRANCH  29  30
HETATM   30  C   UNK A   1     -22.680  -8.276  -0.066  1.00  0.00     0.034 C 
BRANCH  30  31
HETATM   31  C   UNK A   1     -21.794  -7.731  -1.182  1.00  0.00     0.002 C 
BRANCH  31  32
HETATM   32  C   UNK A   1     -22.220  -6.329  -1.601  1.00  0.00     0.000 C 
BRANCH  32  33
HETATM   33  C   UNK A   1     -21.471  -5.926  -2.866  1.00  0.00     0.000 C 
BRANCH  33  34
HETATM   34  C   UNK A   1     -21.330  -7.103  -3.819  1.00  0.00     0.000 C 
BRANCH  34  35
HETATM   35  C   UNK A   1     -21.538  -6.637  -5.254  1.00  0.00     0.000 C 
BRANCH  35  36
HETATM   36  C   UNK A   1     -20.198  -6.385  -5.926  1.00  0.00     0.000 C 
BRANCH  36  37
HETATM   37  C   UNK A   1     -19.989  -4.897  -6.155  1.00  0.00     0.000 C 
BRANCH  37  38
HETATM   38  C   UNK A   1     -19.545  -4.646  -7.589  1.00  0.00     0.000 C 
BRANCH  38  39
HETATM   39  C   UNK A   1     -20.719  -4.786  -8.545  1.00  0.00     0.000 C 
BRANCH  39  40
HETATM   40  C   UNK A   1     -20.233  -4.797  -9.989  1.00  0.00     0.000 C 
BRANCH  40  41
HETATM   41  C   UNK A   1     -20.494  -3.450 -10.652  1.00  0.00    -0.000 C 
BRANCH  41  42
HETATM   42  C   UNK A   1     -21.982  -3.255 -10.923  1.00  0.00    -0.005 C 
HETATM   43  C   UNK A   1     -22.322  -3.602 -12.362  1.00  0.00     0.005 C 
ENDBRANCH  41  42
ENDBRANCH  40  41
ENDBRANCH  39  40
ENDBRANCH  38  39
ENDBRANCH  37  38
ENDBRANCH  36  37
ENDBRANCH  35  36
ENDBRANCH  34  35
ENDBRANCH  33  34
ENDBRANCH  32  33
ENDBRANCH  31  32
ENDBRANCH  30  31
ENDBRANCH  29  30
BRANCH  29  44
HETATM   44  O   UNK A   1     -23.430 -10.402  -0.940  1.00  0.00    -0.393 OA
HETATM   45  H   UNK A   1     -23.999  -9.699  -1.288  1.00  0.00     0.210 HD
ENDBRANCH  29  44
ENDBRANCH  28  29
BRANCH  28  46
HETATM   46  O   UNK A   1     -20.553 -10.636   1.118  1.00  0.00    -0.391 OA
HETATM   47  H   UNK A   1     -20.648 -11.601   1.229  1.00  0.00     0.210 HD
ENDBRANCH  28  46
ENDBRANCH   1  28
TORSDOF 37
ENDMDL
MODEL 6
REMARK VINA RESULT:      -5.6      5.032     11.928
REMARK WARNING: 32 MAX_TORS EXCEEDED!!!
REMARK  37 active torsions:
REMARK  status: ('A' for Active; 'I' for Inactive)
REMARK    1  A    between atoms: C_2  and  C_3 
REMARK    2  A    between atoms: C_3  and  C_4 
REMARK    3  A    between atoms: C_4  and  C_5 
REMARK    4  A    between atoms: C_5  and  C_6 
REMARK    5  A    between atoms: C_6  and  C_7 
REMARK    6  A    between atoms: C_7  and  C_8 
REMARK    7  A    between atoms: C_8  and  C_9 
REMARK    8  A    between atoms: C_9  and  C_10 
REMARK    9  A    between atoms: C_10  and  C_11 
REMARK   10  A    between atoms: C_11  and  C_12 
REMARK   11  A    between atoms: C_12  and  C_13 
REMARK   12  A    between atoms: C_13  and  C_14 
REMARK   13  A    between atoms: C_14  and  C_15 
REMARK   14  A    between atoms: C_15  and  C_16 
REMARK   15  A    between atoms: C_16  and  C_17 
REMARK   16  A    between atoms: C_17  and  C_18 
REMARK   17  A    between atoms: C_17  and  O_20 
REMARK       I    between atoms: C_18  and  N_22 
REMARK   18  A    between atoms: N_22  and  C_23 
REMARK   19  A    between atoms: C_23  and  C_24 
REMARK   20  A    between atoms: C_23  and  C_26 
REMARK   21  A    between atoms: C_24  and  O_25 
REMARK   22  A    between atoms: C_26  and  C_27 
REMARK   23  A    between atoms: C_26  and  O_43 
REMARK   24  A    between atoms: C_27  and  C_28 
REMARK   25  A    between atoms: C_27  and  O_42 
REMARK   26  A    between atoms: C_28  and  C_29 
REMARK   27  A    between atoms: C_29  and  C_30 
REMARK   28  A    between atoms: C_30  and  C_31 
REMARK   29  A    between atoms: C_31  and  C_32 
REMARK   30  A    between atoms: C_32  and  C_33 
REMARK   31  A    between atoms: C_33  and  C_34 
REMARK   32  A    between atoms: C_34  and  C_35 
REMARK   33  A    between atoms: C_35  and  C_36 
REMARK   34  A    between atoms: C_36  and  C_37 
REMARK   35  A    between atoms: C_37  and  C_38 
REMARK   36  A    between atoms: C_38  and  C_39 
REMARK   37  A    between atoms: C_39  and  C_40 
ROOT
HETATM    1  C   UNK A   1     -17.537 -12.625  -1.058  1.00  0.00     0.139 C 
ENDROOT
BRANCH   1   2
HETATM    2  N   UNK A   1     -18.471 -11.998  -0.137  1.00  0.00    -0.350 N 
HETATM    3  C   UNK A   0     -19.830 -12.035  -0.323  1.00  0.00     0.246 C 
HETATM    4  O   UNK A   0     -20.360 -12.572  -1.301  1.00  0.00    -0.271 OA
HETATM    5  H   UNK A   1     -18.111 -11.833   0.798  1.00  0.00     0.163 HD
BRANCH   3   6
HETATM    6  C   UNK A   0     -20.640 -11.284   0.727  1.00  0.00     0.210 C 
BRANCH   6   7
HETATM    7  C   UNK A   0     -21.709 -10.378   0.122  1.00  0.00     0.041 C 
BRANCH   7   8
HETATM    8  C   UNK A   0     -21.266  -8.921   0.140  1.00  0.00     0.003 C 
BRANCH   8   9
HETATM    9  C   UNK A   0     -22.429  -7.946   0.285  1.00  0.00     0.000 C 
BRANCH   9  10
HETATM   10  C   UNK A   0     -22.338  -6.908  -0.828  1.00  0.00     0.000 C 
BRANCH  10  11
HETATM   11  C   UNK A   0     -21.392  -7.341  -1.935  1.00  0.00     0.000 C 
BRANCH  11  12
HETATM   12  C   UNK A   0     -21.434  -6.332  -3.078  1.00  0.00     0.000 C 
BRANCH  12  13
HETATM   13  C   UNK A   0     -22.220  -6.893  -4.250  1.00  0.00     0.000 C 
BRANCH  13  14
HETATM   14  C   UNK A   0     -21.340  -7.778  -5.122  1.00  0.00     0.000 C 
BRANCH  14  15
HETATM   15  C   UNK A   0     -20.162  -6.972  -5.648  1.00  0.00     0.000 C 
BRANCH  15  16
HETATM   16  C   UNK A   0     -20.580  -6.097  -6.820  1.00  0.00     0.000 C 
BRANCH  16  17
HETATM   17  C   UNK A   0     -20.362  -4.629  -6.482  1.00  0.00     0.000 C 
BRANCH  17  18
HETATM   18  C   UNK A   0     -21.008  -3.736  -7.532  1.00  0.00     0.000 C 
BRANCH  18  19
HETATM   19  C   UNK A   0     -21.067  -4.448  -8.879  1.00  0.00     0.000 C 
BRANCH  19  20
HETATM   20  C   UNK A   0     -22.450  -4.297  -9.503  1.00  0.00    -0.000 C 
BRANCH  20  21
HETATM   21  C   UNK A   0     -22.409  -3.357 -10.703  1.00  0.00    -0.005 C 
HETATM   22  C   UNK A   0     -21.337  -3.784 -11.691  1.00  0.00     0.005 C 
ENDBRANCH  20  21
ENDBRANCH  19  20
ENDBRANCH  18  19
ENDBRANCH  17  18
ENDBRANCH  16  17
ENDBRANCH  15  16
ENDBRANCH  14  15
ENDBRANCH  13  14
ENDBRANCH  12  13
ENDBRANCH  11  12
ENDBRANCH  10  11
ENDBRANCH   9  10
ENDBRANCH   8   9
ENDBRANCH   7   8
ENDBRANCH   6   7
BRANCH   6  23
HETATM   23  O   UNK A   0     -19.700 -10.495   1.445  1.00  0.00    -0.386 OA
HETATM   24  H   UNK A   0     -19.984 -10.518   2.380  1.00  0.00     0.210 HD
ENDBRANCH   6  23
ENDBRANCH   3   6
ENDBRANCH   1   2
BRANCH   1  25
HETATM   25  C   UNK A   1     -16.981 -11.575  -2.043  1.00  0.00     0.191 C 
BRANCH  25  26
HETATM   26  O   UNK A   1     -15.852 -10.897  -1.494  1.00  0.00    -0.399 OA
HETATM   27  H   UNK A   1     -16.137  -9.971  -1.316  1.00  0.00     0.209 HD
ENDBRANCH  25  26
ENDBRANCH   1  25
BRANCH   1  28
HETATM   28  C   UNK A   1     -16.380 -13.325  -0.316  1.00  0.00     0.171 C 
BRANCH  28  29
HETATM   29  C   UNK A   1     -16.361 -13.021   1.196  1.00  0.00     0.149 C 
BRANCH  29  30
HETATM   30  C   UNK A   1     -15.316 -13.880   1.940  1.00  0.00     0.034 C 
BRANCH  30  31
HETATM   31  C   UNK A   1     -15.970 -14.726   3.029  1.00  0.00     0.002 C 
BRANCH  31  32
HETATM   32  C   UNK A   1     -14.936 -15.525   3.814  1.00  0.00     0.000 C 
BRANCH  32  33
HETATM   33  C   UNK A   1     -13.653 -15.636   2.998  1.00  0.00     0.000 C 
BRANCH  33  34
HETATM   34  C   UNK A   1     -12.488 -16.088   3.865  1.00  0.00     0.000 C 
BRANCH  34  35
HETATM   35  C   UNK A   1     -12.768 -15.760   5.325  1.00  0.00     0.000 C 
BRANCH  35  36
HETATM   36  C   UNK A   1     -11.515 -15.964   6.160  1.00  0.00     0.000 C 
BRANCH  36  37
HETATM   37  C   UNK A   1     -11.082 -14.653   6.799  1.00  0.00     0.000 C 
BRANCH  37  38
HETATM   38  C   UNK A   1      -9.577 -14.653   7.025  1.00  0.00     0.000 C 
BRANCH  38  39
HETATM   39  C   UNK A   1      -8.884 -13.751   6.015  1.00  0.00     0.000 C 
BRANCH  39  40
HETATM   40  C   UNK A   1      -8.344 -14.571   4.850  1.00  0.00     0.000 C 
BRANCH  40  41
HETATM   41  C   UNK A   1      -8.985 -14.127   3.541  1.00  0.00    -0.000 C 
BRANCH  41  42
HETATM   42  C   UNK A   1      -8.077 -14.440   2.356  1.00  0.00    -0.005 C 
HETATM   43  C   UNK A   1      -8.777 -14.141   1.042  1.00  0.00     0.005 C 
ENDBRANCH  41  42
ENDBRANCH  40  41
ENDBRANCH  39  40
ENDBRANCH  38  39
ENDBRANCH  37  38
ENDBRANCH  36  37
ENDBRANCH  35  36
ENDBRANCH  34  35
ENDBRANCH  33  34
ENDBRANCH  32  33
ENDBRANCH  31  32
ENDBRANCH  30  31
ENDBRANCH  29  30
BRANCH  29  44
HETATM   44  O   UNK A   1     -16.061 -11.636   1.437  1.00  0.00    -0.393 OA
HETATM   45  H   UNK A   1     -16.889 -11.139   1.362  1.00  0.00     0.210 HD
ENDBRANCH  29  44
ENDBRANCH  28  29
BRANCH  28  46
HETATM   46  O   UNK A   1     -16.498 -14.733  -0.514  1.00  0.00    -0.391 OA
HETATM   47  H   UNK A   1     -17.125 -14.878  -1.246  1.00  0.00     0.210 HD
ENDBRANCH  28  46
ENDBRANCH   1  28
TORSDOF 37
ENDMDL
MODEL 7
REMARK VINA RESULT:      -5.6      8.630     12.510
REMARK WARNING: 32 MAX_TORS EXCEEDED!!!
REMARK  37 active torsions:
REMARK  status: ('A' for Active; 'I' for Inactive)
REMARK    1  A    between atoms: C_2  and  C_3 
REMARK    2  A    between atoms: C_3  and  C_4 
REMARK    3  A    between atoms: C_4  and  C_5 
REMARK    4  A    between atoms: C_5  and  C_6 
REMARK    5  A    between atoms: C_6  and  C_7 
REMARK    6  A    between atoms: C_7  and  C_8 
REMARK    7  A    between atoms: C_8  and  C_9 
REMARK    8  A    between atoms: C_9  and  C_10 
REMARK    9  A    between atoms: C_10  and  C_11 
REMARK   10  A    between atoms: C_11  and  C_12 
REMARK   11  A    between atoms: C_12  and  C_13 
REMARK   12  A    between atoms: C_13  and  C_14 
REMARK   13  A    between atoms: C_14  and  C_15 
REMARK   14  A    between atoms: C_15  and  C_16 
REMARK   15  A    between atoms: C_16  and  C_17 
REMARK   16  A    between atoms: C_17  and  C_18 
REMARK   17  A    between atoms: C_17  and  O_20 
REMARK       I    between atoms: C_18  and  N_22 
REMARK   18  A    between atoms: N_22  and  C_23 
REMARK   19  A    between atoms: C_23  and  C_24 
REMARK   20  A    between atoms: C_23  and  C_26 
REMARK   21  A    between atoms: C_24  and  O_25 
REMARK   22  A    between atoms: C_26  and  C_27 
REMARK   23  A    between atoms: C_26  and  O_43 
REMARK   24  A    between atoms: C_27  and  C_28 
REMARK   25  A    between atoms: C_27  and  O_42 
REMARK   26  A    between atoms: C_28  and  C_29 
REMARK   27  A    between atoms: C_29  and  C_30 
REMARK   28  A    between atoms: C_30  and  C_31 
REMARK   29  A    between atoms: C_31  and  C_32 
REMARK   30  A    between atoms: C_32  and  C_33 
REMARK   31  A    between atoms: C_33  and  C_34 
REMARK   32  A    between atoms: C_34  and  C_35 
REMARK   33  A    between atoms: C_35  and  C_36 
REMARK   34  A    between atoms: C_36  and  C_37 
REMARK   35  A    between atoms: C_37  and  C_38 
REMARK   36  A    between atoms: C_38  and  C_39 
REMARK   37  A    between atoms: C_39  and  C_40 
ROOT
HETATM    1  C   UNK A   1     -25.450  -6.235 -15.725  1.00  0.00     0.139 C 
ENDROOT
BRANCH   1   2
HETATM    2  N   UNK A   1     -24.983  -5.829 -14.409  1.00  0.00    -0.350 N 
HETATM    3  C   UNK A   0     -24.347  -4.633 -14.186  1.00  0.00     0.246 C 
HETATM    4  O   UNK A   0     -24.094  -3.829 -15.088  1.00  0.00    -0.271 OA
HETATM    5  H   UNK A   1     -25.435  -6.294 -13.627  1.00  0.00     0.163 HD
BRANCH   3   6
HETATM    6  C   UNK A   0     -23.896  -4.408 -12.748  1.00  0.00     0.210 C 
BRANCH   6   7
HETATM    7  C   UNK A   0     -22.603  -3.602 -12.648  1.00  0.00     0.041 C 
BRANCH   7   8
HETATM    8  C   UNK A   0     -22.042  -3.640 -11.233  1.00  0.00     0.003 C 
BRANCH   8   9
HETATM    9  C   UNK A   0     -20.525  -3.790 -11.196  1.00  0.00     0.000 C 
BRANCH   9  10
HETATM   10  C   UNK A   0     -20.125  -4.381  -9.849  1.00  0.00     0.000 C 
BRANCH  10  11
HETATM   11  C   UNK A   0     -21.260  -4.322  -8.841  1.00  0.00     0.000 C 
BRANCH  11  12
HETATM   12  C   UNK A   0     -20.997  -5.306  -7.706  1.00  0.00     0.000 C 
BRANCH  12  13
HETATM   13  C   UNK A   0     -20.352  -4.596  -6.528  1.00  0.00     0.000 C 
BRANCH  13  14
HETATM   14  C   UNK A   0     -20.635  -5.331  -5.227  1.00  0.00     0.000 C 
BRANCH  14  15
HETATM   15  C   UNK A   0     -21.201  -6.710  -5.528  1.00  0.00     0.000 C 
BRANCH  15  16
HETATM   16  C   UNK A   0     -21.452  -7.488  -4.245  1.00  0.00     0.000 C 
BRANCH  16  17
HETATM   17  C   UNK A   0     -21.855  -6.536  -3.126  1.00  0.00     0.000 C 
BRANCH  17  18
HETATM   18  C   UNK A   0     -21.278  -7.000  -1.796  1.00  0.00     0.000 C 
BRANCH  18  19
HETATM   19  C   UNK A   0     -22.363  -7.046  -0.727  1.00  0.00     0.000 C 
BRANCH  19  20
HETATM   20  C   UNK A   0     -22.081  -8.162   0.274  1.00  0.00    -0.000 C 
BRANCH  20  21
HETATM   21  C   UNK A   0     -21.373  -9.333  -0.398  1.00  0.00    -0.005 C 
HETATM   22  C   UNK A   0     -21.594 -10.619   0.380  1.00  0.00     0.005 C 
ENDBRANCH  20  21
ENDBRANCH  19  20
ENDBRANCH  18  19
ENDBRANCH  17  18
ENDBRANCH  16  17
ENDBRANCH  15  16
ENDBRANCH  14  15
ENDBRANCH  13  14
ENDBRANCH  12  13
ENDBRANCH  11  12
ENDBRANCH  10  11
ENDBRANCH   9  10
ENDBRANCH   8   9
ENDBRANCH   7   8
ENDBRANCH   6   7
BRANCH   6  23
HETATM   23  O   UNK A   0     -23.690  -5.704 -12.202  1.00  0.00    -0.386 OA
HETATM   24  H   UNK A   0     -23.835  -6.334 -12.935  1.00  0.00     0.210 HD
ENDBRANCH   6  23
ENDBRANCH   3   6
ENDBRANCH   1   2
BRANCH   1  25
HETATM   25  C   UNK A   1     -24.705  -7.508 -16.180  1.00  0.00     0.191 C 
BRANCH  25  26
HETATM   26  O   UNK A   1     -24.300  -7.410 -17.544  1.00  0.00    -0.399 OA
HETATM   27  H   UNK A   1     -23.332  -7.595 -17.567  1.00  0.00     0.209 HD
ENDBRANCH  25  26
ENDBRANCH   1  25
BRANCH   1  28
HETATM   28  C   UNK A   1     -26.974  -6.474 -15.745  1.00  0.00     0.171 C 
BRANCH  28  29
HETATM   29  C   UNK A   1     -27.527  -6.718 -17.164  1.00  0.00     0.149 C 
BRANCH  29  30
HETATM   30  C   UNK A   1     -29.031  -7.070 -17.140  1.00  0.00     0.034 C 
BRANCH  30  31
HETATM   31  C   UNK A   1     -29.824  -6.053 -16.324  1.00  0.00     0.002 C 
BRANCH  31  32
HETATM   32  C   UNK A   1     -31.028  -5.531 -17.100  1.00  0.00     0.000 C 
BRANCH  32  33
HETATM   33  C   UNK A   1     -31.865  -4.634 -16.195  1.00  0.00     0.000 C 
BRANCH  33  34
HETATM   34  C   UNK A   1     -33.314  -4.588 -16.655  1.00  0.00     0.000 C 
BRANCH  34  35
HETATM   35  C   UNK A   1     -34.166  -3.871 -15.616  1.00  0.00     0.000 C 
BRANCH  35  36
HETATM   36  C   UNK A   1     -33.715  -4.246 -14.215  1.00  0.00     0.000 C 
BRANCH  36  37
HETATM   37  C   UNK A   1     -34.360  -3.331 -13.185  1.00  0.00     0.000 C 
BRANCH  37  38
HETATM   38  C   UNK A   1     -33.509  -3.282 -11.924  1.00  0.00     0.000 C 
BRANCH  38  39
HETATM   39  C   UNK A   1     -33.022  -4.674 -11.554  1.00  0.00     0.000 C 
BRANCH  39  40
HETATM   40  C   UNK A   1     -33.890  -5.267 -10.451  1.00  0.00     0.000 C 
BRANCH  40  41
HETATM   41  C   UNK A   1     -34.658  -6.477 -10.967  1.00  0.00    -0.000 C 
BRANCH  41  42
HETATM   42  C   UNK A   1     -34.920  -7.476  -9.844  1.00  0.00    -0.005 C 
HETATM   43  C   UNK A   1     -33.870  -8.572  -9.836  1.00  0.00     0.005 C 
ENDBRANCH  41  42
ENDBRANCH  40  41
ENDBRANCH  39  40
ENDBRANCH  38  39
ENDBRANCH  37  38
ENDBRANCH  36  37
ENDBRANCH  35  36
ENDBRANCH  34  35
ENDBRANCH  33  34
ENDBRANCH  32  33
ENDBRANCH  31  32
ENDBRANCH  30  31
ENDBRANCH  29  30
BRANCH  29  44
HETATM   44  O   UNK A   1     -27.350  -5.556 -17.992  1.00  0.00    -0.393 OA
HETATM   45  H   UNK A   1     -27.937  -4.863 -17.655  1.00  0.00     0.210 HD
ENDBRANCH  29  44
ENDBRANCH  28  29
BRANCH  28  46
HETATM   46  O   UNK A   1     -27.270  -7.600 -14.922  1.00  0.00    -0.391 OA
HETATM   47  H   UNK A   1     -26.767  -7.500 -14.092  1.00  0.00     0.210 HD
ENDBRANCH  28  46
ENDBRANCH   1  28
TORSDOF 37
ENDMDL
MODEL 8
REMARK VINA RESULT:      -5.6      2.558      8.528
REMARK WARNING: 32 MAX_TORS EXCEEDED!!!
REMARK  37 active torsions:
REMARK  status: ('A' for Active; 'I' for Inactive)
REMARK    1  A    between atoms: C_2  and  C_3 
REMARK    2  A    between atoms: C_3  and  C_4 
REMARK    3  A    between atoms: C_4  and  C_5 
REMARK    4  A    between atoms: C_5  and  C_6 
REMARK    5  A    between atoms: C_6  and  C_7 
REMARK    6  A    between atoms: C_7  and  C_8 
REMARK    7  A    between atoms: C_8  and  C_9 
REMARK    8  A    between atoms: C_9  and  C_10 
REMARK    9  A    between atoms: C_10  and  C_11 
REMARK   10  A    between atoms: C_11  and  C_12 
REMARK   11  A    between atoms: C_12  and  C_13 
REMARK   12  A    between atoms: C_13  and  C_14 
REMARK   13  A    between atoms: C_14  and  C_15 
REMARK   14  A    between atoms: C_15  and  C_16 
REMARK   15  A    between atoms: C_16  and  C_17 
REMARK   16  A    between atoms: C_17  and  C_18 
REMARK   17  A    between atoms: C_17  and  O_20 
REMARK       I    between atoms: C_18  and  N_22 
REMARK   18  A    between atoms: N_22  and  C_23 
REMARK   19  A    between atoms: C_23  and  C_24 
REMARK   20  A    between atoms: C_23  and  C_26 
REMARK   21  A    between atoms: C_24  and  O_25 
REMARK   22  A    between atoms: C_26  and  C_27 
REMARK   23  A    between atoms: C_26  and  O_43 
REMARK   24  A    between atoms: C_27  and  C_28 
REMARK   25  A    between atoms: C_27  and  O_42 
REMARK   26  A    between atoms: C_28  and  C_29 
REMARK   27  A    between atoms: C_29  and  C_30 
REMARK   28  A    between atoms: C_30  and  C_31 
REMARK   29  A    between atoms: C_31  and  C_32 
REMARK   30  A    between atoms: C_32  and  C_33 
REMARK   31  A    between atoms: C_33  and  C_34 
REMARK   32  A    between atoms: C_34  and  C_35 
REMARK   33  A    between atoms: C_35  and  C_36 
REMARK   34  A    between atoms: C_36  and  C_37 
REMARK   35  A    between atoms: C_37  and  C_38 
REMARK   36  A    between atoms: C_38  and  C_39 
REMARK   37  A    between atoms: C_39  and  C_40 
ROOT
HETATM    1  C   UNK A   1     -15.972 -12.588  -0.283  1.00  0.00     0.139 C 
ENDROOT
BRANCH   1   2
HETATM    2  N   UNK A   1     -16.098 -11.374  -1.073  1.00  0.00    -0.350 N 
HETATM    3  C   UNK A   0     -15.842 -11.339  -2.421  1.00  0.00     0.246 C 
HETATM    4  O   UNK A   0     -15.455 -12.324  -3.057  1.00  0.00    -0.271 OA
HETATM    5  H   UNK A   1     -16.693 -10.656  -0.670  1.00  0.00     0.163 HD
BRANCH   3   6
HETATM    6  C   UNK A   0     -15.989  -9.965  -3.064  1.00  0.00     0.210 C 
BRANCH   6   7
HETATM    7  C   UNK A   0     -17.394  -9.386  -2.920  1.00  0.00     0.041 C 
BRANCH   7   8
HETATM    8  C   UNK A   0     -18.445 -10.365  -3.428  1.00  0.00     0.003 C 
BRANCH   8   9
HETATM    9  C   UNK A   0     -19.861  -9.995  -2.999  1.00  0.00     0.000 C 
BRANCH   9  10
HETATM   10  C   UNK A   0     -19.819  -8.645  -2.292  1.00  0.00     0.000 C 
BRANCH  10  11
HETATM   11  C   UNK A   0     -20.768  -7.641  -2.925  1.00  0.00     0.000 C 
BRANCH  11  12
HETATM   12  C   UNK A   0     -21.592  -8.320  -4.014  1.00  0.00     0.000 C 
BRANCH  12  13
HETATM   13  C   UNK A   0     -21.349  -7.649  -5.355  1.00  0.00     0.000 C 
BRANCH  13  14
HETATM   14  C   UNK A   0     -21.210  -6.142  -5.194  1.00  0.00     0.000 C 
BRANCH  14  15
HETATM   15  C   UNK A   0     -20.312  -5.589  -6.289  1.00  0.00     0.000 C 
BRANCH  15  16
HETATM   16  C   UNK A   0     -21.072  -5.452  -7.600  1.00  0.00     0.000 C 
BRANCH  16  17
HETATM   17  C   UNK A   0     -20.171  -4.846  -8.667  1.00  0.00     0.000 C 
BRANCH  17  18
HETATM   18  C   UNK A   0     -20.997  -4.091  -9.699  1.00  0.00     0.000 C 
BRANCH  18  19
HETATM   19  C   UNK A   0     -22.396  -4.687  -9.807  1.00  0.00     0.000 C 
BRANCH  19  20
HETATM   20  C   UNK A   0     -23.454  -3.619  -9.547  1.00  0.00    -0.000 C 
BRANCH  20  21
HETATM   21  C   UNK A   0     -24.296  -3.369 -10.793  1.00  0.00    -0.005 C 
HETATM   22  C   UNK A   0     -23.654  -3.996 -12.018  1.00  0.00     0.005 C 
ENDBRANCH  20  21
ENDBRANCH  19  20
ENDBRANCH  18  19
ENDBRANCH  17  18
ENDBRANCH  16  17
ENDBRANCH  15  16
ENDBRANCH  14  15
ENDBRANCH  13  14
ENDBRANCH  12  13
ENDBRANCH  11  12
ENDBRANCH  10  11
ENDBRANCH   9  10
ENDBRANCH   8   9
ENDBRANCH   7   8
ENDBRANCH   6   7
BRANCH   6  23
HETATM   23  O   UNK A   0     -15.692 -10.151  -4.441  1.00  0.00    -0.386 OA
HETATM   24  H   UNK A   0     -14.796 -10.542  -4.476  1.00  0.00     0.210 HD
ENDBRANCH   6  23
ENDBRANCH   3   6
ENDBRANCH   1   2
BRANCH   1  25
HETATM   25  C   UNK A   1     -15.236 -12.284   1.039  1.00  0.00     0.191 C 
BRANCH  25  26
HETATM   26  O   UNK A   1     -16.026 -12.651   2.168  1.00  0.00    -0.399 OA
HETATM   27  H   UNK A   1     -16.818 -13.122   1.820  1.00  0.00     0.209 HD
ENDBRANCH  25  26
ENDBRANCH   1  25
BRANCH   1  28
HETATM   28  C   UNK A   1     -17.344 -13.230   0.007  1.00  0.00     0.171 C 
BRANCH  28  29
HETATM   29  C   UNK A   1     -18.518 -12.242  -0.144  1.00  0.00     0.149 C 
BRANCH  29  30
HETATM   30  C   UNK A   1     -19.868 -12.974  -0.301  1.00  0.00     0.034 C 
BRANCH  30  31
HETATM   31  C   UNK A   1     -20.908 -12.433   0.676  1.00  0.00     0.002 C 
BRANCH  31  32
HETATM   32  C   UNK A   1     -21.495 -13.543   1.540  1.00  0.00     0.000 C 
BRANCH  32  33
HETATM   33  C   UNK A   1     -23.017 -13.489   1.470  1.00  0.00     0.000 C 
BRANCH  33  34
HETATM   34  C   UNK A   1     -23.599 -14.845   1.101  1.00  0.00     0.000 C 
BRANCH  34  35
HETATM   35  C   UNK A   1     -23.557 -15.035  -0.409  1.00  0.00     0.000 C 
BRANCH  35  36
HETATM   36  C   UNK A   1     -24.180 -13.839  -1.108  1.00  0.00     0.000 C 
BRANCH  36  37
HETATM   37  C   UNK A   1     -23.188 -13.212  -2.076  1.00  0.00     0.000 C 
BRANCH  37  38
HETATM   38  C   UNK A   1     -23.216 -11.696  -1.946  1.00  0.00     0.000 C 
BRANCH  38  39
HETATM   39  C   UNK A   1     -24.353 -11.259  -1.036  1.00  0.00     0.000 C 
BRANCH  39  40
HETATM   40  C   UNK A   1     -23.835 -10.335   0.060  1.00  0.00     0.000 C 
BRANCH  40  41
HETATM   41  C   UNK A   1     -22.774  -9.392  -0.494  1.00  0.00    -0.000 C 
BRANCH  41  42
HETATM   42  C   UNK A   1     -22.433  -8.302   0.517  1.00  0.00    -0.005 C 
HETATM   43  C   UNK A   1     -21.171  -8.651   1.286  1.00  0.00     0.005 C 
ENDBRANCH  41  42
ENDBRANCH  40  41
ENDBRANCH  39  40
ENDBRANCH  38  39
ENDBRANCH  37  38
ENDBRANCH  36  37
ENDBRANCH  35  36
ENDBRANCH  34  35
ENDBRANCH  33  34
ENDBRANCH  32  33
ENDBRANCH  31  32
ENDBRANCH  30  31
ENDBRANCH  29  30
BRANCH  29  44
HETATM   44  O   UNK A   1     -18.607 -11.372   0.998  1.00  0.00    -0.393 OA
HETATM   45  H   UNK A   1     -19.533 -11.100   1.088  1.00  0.00     0.210 HD
ENDBRANCH  29  44
ENDBRANCH  28  29
BRANCH  28  46
HETATM   46  O   UNK A   1     -17.531 -14.327  -0.886  1.00  0.00    -0.391 OA
HETATM   47  H   UNK A   1     -16.653 -14.592  -1.217  1.00  0.00     0.210 HD
ENDBRANCH  28  46
ENDBRANCH   1  28
TORSDOF 37
ENDMDL
MODEL 9
REMARK VINA RESULT:      -5.5      2.950      8.748
REMARK WARNING: 32 MAX_TORS EXCEEDED!!!
REMARK  37 active torsions:
REMARK  status: ('A' for Active; 'I' for Inactive)
REMARK    1  A    between atoms: C_2  and  C_3 
REMARK    2  A    between atoms: C_3  and  C_4 
REMARK    3  A    between atoms: C_4  and  C_5 
REMARK    4  A    between atoms: C_5  and  C_6 
REMARK    5  A    between atoms: C_6  and  C_7 
REMARK    6  A    between atoms: C_7  and  C_8 
REMARK    7  A    between atoms: C_8  and  C_9 
REMARK    8  A    between atoms: C_9  and  C_10 
REMARK    9  A    between atoms: C_10  and  C_11 
REMARK   10  A    between atoms: C_11  and  C_12 
REMARK   11  A    between atoms: C_12  and  C_13 
REMARK   12  A    between atoms: C_13  and  C_14 
REMARK   13  A    between atoms: C_14  and  C_15 
REMARK   14  A    between atoms: C_15  and  C_16 
REMARK   15  A    between atoms: C_16  and  C_17 
REMARK   16  A    between atoms: C_17  and  C_18 
REMARK   17  A    between atoms: C_17  and  O_20 
REMARK       I    between atoms: C_18  and  N_22 
REMARK   18  A    between atoms: N_22  and  C_23 
REMARK   19  A    between atoms: C_23  and  C_24 
REMARK   20  A    between atoms: C_23  and  C_26 
REMARK   21  A    between atoms: C_24  and  O_25 
REMARK   22  A    between atoms: C_26  and  C_27 
REMARK   23  A    between atoms: C_26  and  O_43 
REMARK   24  A    between atoms: C_27  and  C_28 
REMARK   25  A    between atoms: C_27  and  O_42 
REMARK   26  A    between atoms: C_28  and  C_29 
REMARK   27  A    between atoms: C_29  and  C_30 
REMARK   28  A    between atoms: C_30  and  C_31 
REMARK   29  A    between atoms: C_31  and  C_32 
REMARK   30  A    between atoms: C_32  and  C_33 
REMARK   31  A    between atoms: C_33  and  C_34 
REMARK   32  A    between atoms: C_34  and  C_35 
REMARK   33  A    between atoms: C_35  and  C_36 
REMARK   34  A    between atoms: C_36  and  C_37 
REMARK   35  A    between atoms: C_37  and  C_38 
REMARK   36  A    between atoms: C_38  and  C_39 
REMARK   37  A    between atoms: C_39  and  C_40 
ROOT
HETATM    1  C   UNK A   1     -21.119 -12.486   0.390  1.00  0.00     0.139 C 
ENDROOT
BRANCH   1   2
HETATM    2  N   UNK A   1     -21.758 -11.311  -0.180  1.00  0.00    -0.350 N 
HETATM    3  C   UNK A   0     -21.578 -10.050   0.329  1.00  0.00     0.246 C 
HETATM    4  O   UNK A   0     -20.889  -9.821   1.327  1.00  0.00    -0.271 OA
HETATM    5  H   UNK A   1     -22.059 -11.409  -1.146  1.00  0.00     0.163 HD
BRANCH   3   6
HETATM    6  C   UNK A   0     -22.365  -8.955  -0.381  1.00  0.00     0.210 C 
BRANCH   6   7
HETATM    7  C   UNK A   0     -21.470  -7.926  -1.067  1.00  0.00     0.041 C 
BRANCH   7   8
HETATM    8  C   UNK A   0     -22.209  -6.610  -1.275  1.00  0.00     0.003 C 
BRANCH   8   9
HETATM    9  C   UNK A   0     -22.020  -6.035  -2.675  1.00  0.00     0.000 C 
BRANCH   9  10
HETATM   10  C   UNK A   0     -21.364  -7.095  -3.553  1.00  0.00     0.000 C 
BRANCH  10  11
HETATM   11  C   UNK A   0     -22.063  -7.238  -4.894  1.00  0.00     0.000 C 
BRANCH  11  12
HETATM   12  C   UNK A   0     -21.051  -7.093  -6.025  1.00  0.00     0.000 C 
BRANCH  12  13
HETATM   13  C   UNK A   0     -20.168  -5.879  -5.792  1.00  0.00     0.000 C 
BRANCH  13  14
HETATM   14  C   UNK A   0     -20.824  -4.617  -6.332  1.00  0.00     0.000 C 
BRANCH  14  15
HETATM   15  C   UNK A   0     -21.576  -4.937  -7.615  1.00  0.00     0.000 C 
BRANCH  15  16
HETATM   16  C   UNK A   0     -22.996  -4.392  -7.564  1.00  0.00     0.000 C 
BRANCH  16  17
HETATM   17  C   UNK A   0     -23.339  -3.703  -8.878  1.00  0.00     0.000 C 
BRANCH  17  18
HETATM   18  C   UNK A   0     -23.724  -4.728  -9.935  1.00  0.00     0.000 C 
BRANCH  18  19
HETATM   19  C   UNK A   0     -22.891  -4.537 -11.197  1.00  0.00     0.000 C 
BRANCH  19  20
HETATM   20  C   UNK A   0     -22.060  -3.262 -11.101  1.00  0.00    -0.000 C 
BRANCH  20  21
HETATM   21  C   UNK A   0     -20.595  -3.537 -11.421  1.00  0.00    -0.005 C 
HETATM   22  C   UNK A   0     -20.057  -4.674 -10.569  1.00  0.00     0.005 C 
ENDBRANCH  20  21
ENDBRANCH  19  20
ENDBRANCH  18  19
ENDBRANCH  17  18
ENDBRANCH  16  17
ENDBRANCH  15  16
ENDBRANCH  14  15
ENDBRANCH  13  14
ENDBRANCH  12  13
ENDBRANCH  11  12
ENDBRANCH  10  11
ENDBRANCH   9  10
ENDBRANCH   8   9
ENDBRANCH   7   8
ENDBRANCH   6   7
BRANCH   6  23
HETATM   23  O   UNK A   0     -23.134  -8.317   0.630  1.00  0.00    -0.386 OA
HETATM   24  H   UNK A   0     -23.750  -8.995   0.972  1.00  0.00     0.210 HD
ENDBRANCH   6  23
ENDBRANCH   3   6
ENDBRANCH   1   2
BRANCH   1  25
HETATM   25  C   UNK A   1     -22.189 -13.511   0.823  1.00  0.00     0.191 C 
BRANCH  25  26
HETATM   26  O   UNK A   1     -21.897 -14.052   2.110  1.00  0.00    -0.399 OA
HETATM   27  H   UNK A   1     -21.046 -14.541   2.026  1.00  0.00     0.209 HD
ENDBRANCH  25  26
ENDBRANCH   1  25
BRANCH   1  28
HETATM   28  C   UNK A   1     -20.126 -13.136  -0.594  1.00  0.00     0.171 C 
BRANCH  28  29
HETATM   29  C   UNK A   1     -18.652 -12.849  -0.242  1.00  0.00     0.149 C 
BRANCH  29  30
HETATM   30  C   UNK A   1     -17.770 -12.748  -1.505  1.00  0.00     0.034 C 
BRANCH  30  31
HETATM   31  C   UNK A   1     -16.751 -11.619  -1.378  1.00  0.00     0.002 C 
BRANCH  31  32
HETATM   32  C   UNK A   1     -16.075 -11.322  -2.712  1.00  0.00     0.000 C 
BRANCH  32  33
HETATM   33  C   UNK A   1     -16.244  -9.845  -3.049  1.00  0.00     0.000 C 
BRANCH  33  34
HETATM   34  C   UNK A   1     -17.601  -9.329  -2.596  1.00  0.00     0.000 C 
BRANCH  34  35
HETATM   35  C   UNK A   1     -18.587  -9.371  -3.755  1.00  0.00     0.000 C 
BRANCH  35  36
HETATM   36  C   UNK A   1     -19.674 -10.398  -3.487  1.00  0.00     0.000 C 
BRANCH  36  37
HETATM   37  C   UNK A   1     -20.074 -11.099  -4.775  1.00  0.00     0.000 C 
BRANCH  37  38
HETATM   38  C   UNK A   1     -18.946 -11.005  -5.794  1.00  0.00     0.000 C 
BRANCH  38  39
HETATM   39  C   UNK A   1     -18.353 -12.379  -6.063  1.00  0.00     0.000 C 
BRANCH  39  40
HETATM   40  C   UNK A   1     -17.081 -12.257  -6.894  1.00  0.00     0.000 C 
BRANCH  40  41
HETATM   41  C   UNK A   1     -15.855 -12.552  -6.040  1.00  0.00    -0.000 C 
BRANCH  41  42
HETATM   42  C   UNK A   1     -14.591 -12.002  -6.693  1.00  0.00    -0.005 C 
HETATM   43  C   UNK A   1     -13.390 -12.874  -6.371  1.00  0.00     0.005 C 
ENDBRANCH  41  42
ENDBRANCH  40  41
ENDBRANCH  39  40
ENDBRANCH  38  39
ENDBRANCH  37  38
ENDBRANCH  36  37
ENDBRANCH  35  36
ENDBRANCH  34  35
ENDBRANCH  33  34
ENDBRANCH  32  33
ENDBRANCH  31  32
ENDBRANCH  30  31
ENDBRANCH  29  30
BRANCH  29  44
HETATM   44  O   UNK A   1     -18.530 -11.620   0.493  1.00  0.00    -0.393 OA
HETATM   45  H   UNK A   1     -19.342 -11.504   1.009  1.00  0.00     0.210 HD
ENDBRANCH  29  44
ENDBRANCH  28  29
BRANCH  28  46
HETATM   46  O   UNK A   1     -20.345 -14.546  -0.598  1.00  0.00    -0.391 OA
HETATM   47  H   UNK A   1     -20.123 -14.882   0.290  1.00  0.00     0.210 HD
ENDBRANCH  28  46
ENDBRANCH   1  28
TORSDOF 37
ENDMDL
