MODEL 1
REMARK VINA RESULT:      -4.3      0.000      0.000
REMARK  5 active torsions:
REMARK  status: ('A' for Active; 'I' for Inactive)
REMARK    1  A    between atoms: C_1  and  C_2 
REMARK    2  A    between atoms: C_1  and  O_6 
REMARK    3  A    between atoms: C_2  and  C_3 
REMARK    4  A    between atoms: C_2  and  O_5 
REMARK    5  A    between atoms: C_3  and  O_4 
ROOT
HETATM    1  C   UNL     1     -23.245  -2.606 -14.165  1.00  0.00     0.165 C 
ENDROOT
BRANCH   1   2
HETATM    2  C   UNL     1     -23.589  -1.323 -14.924  1.00  0.00     0.198 C 
BRANCH   2   3
HETATM    3  O   UNL     1     -24.841  -0.796 -14.470  1.00  0.00    -0.398 OA
HETATM    4  H   UNL     1     -25.516  -1.416 -14.810  1.00  0.00     0.209 HD
ENDBRANCH   2   3
ENDBRANCH   1   2
BRANCH   1   5
HETATM    5  C   UNL     1     -23.860  -2.640 -12.759  1.00  0.00     0.198 C 
BRANCH   5   6
HETATM    6  O   UNL     1     -25.207  -3.118 -12.822  1.00  0.00    -0.398 OA
HETATM    7  H   UNL     1     -25.635  -2.852 -11.978  1.00  0.00     0.209 HD
ENDBRANCH   5   6
ENDBRANCH   1   5
BRANCH   1   8
HETATM    8  O   UNL     1     -23.753  -3.718 -14.920  1.00  0.00    -0.391 OA
HETATM    9  H   UNL     1     -23.126  -3.847 -15.661  1.00  0.00     0.210 HD
ENDBRANCH   1   8
TORSDOF 5
ENDMDL
MODEL 2
REMARK VINA RESULT:      -4.2      0.921      2.355
REMARK  5 active torsions:
REMARK  status: ('A' for Active; 'I' for Inactive)
REMARK    1  A    between atoms: C_1  and  C_2 
REMARK    2  A    between atoms: C_1  and  O_6 
REMARK    3  A    between atoms: C_2  and  C_3 
REMARK    4  A    between atoms: C_2  and  O_5 
REMARK    5  A    between atoms: C_3  and  O_4 
ROOT
HETATM    1  C   UNL     1     -23.413  -2.507 -14.561  1.00  0.00     0.165 C 
ENDROOT
BRANCH   1   2
HETATM    2  C   UNL     1     -23.130  -2.626 -13.061  1.00  0.00     0.198 C 
BRANCH   2   3
HETATM    3  O   UNL     1     -24.344  -2.494 -12.314  1.00  0.00    -0.398 OA
HETATM    4  H   UNL     1     -24.647  -1.580 -12.481  1.00  0.00     0.209 HD
ENDBRANCH   2   3
ENDBRANCH   1   2
BRANCH   1   5
HETATM    5  C   UNL     1     -23.628  -1.054 -15.005  1.00  0.00     0.198 C 
BRANCH   5   6
HETATM    6  O   UNL     1     -24.929  -0.606 -14.611  1.00  0.00    -0.398 OA
HETATM    7  H   UNL     1     -25.432  -0.450 -15.440  1.00  0.00     0.209 HD
ENDBRANCH   5   6
ENDBRANCH   1   5
BRANCH   1   8
HETATM    8  O   UNL     1     -22.285  -3.046 -15.269  1.00  0.00    -0.391 OA
HETATM    9  H   UNL     1     -22.582  -3.168 -16.194  1.00  0.00     0.210 HD
ENDBRANCH   1   8
TORSDOF 5
ENDMDL
MODEL 3
REMARK VINA RESULT:      -4.2     14.444     15.099
REMARK  5 active torsions:
REMARK  status: ('A' for Active; 'I' for Inactive)
REMARK    1  A    between atoms: C_1  and  C_2 
REMARK    2  A    between atoms: C_1  and  O_6 
REMARK    3  A    between atoms: C_2  and  C_3 
REMARK    4  A    between atoms: C_2  and  O_5 
REMARK    5  A    between atoms: C_3  and  O_4 
ROOT
HETATM    1  C   UNL     1     -29.522 -14.713 -20.907  1.00  0.00     0.165 C 
ENDROOT
BRANCH   1   2
HETATM    2  C   UNL     1     -29.535 -14.251 -19.448  1.00  0.00     0.198 C 
BRANCH   2   3
HETATM    3  O   UNL     1     -30.801 -13.667 -19.123  1.00  0.00    -0.398 OA
HETATM    4  H   UNL     1     -30.752 -12.750 -19.460  1.00  0.00     0.209 HD
ENDBRANCH   2   3
ENDBRANCH   1   2
BRANCH   1   5
HETATM    5  C   UNL     1     -30.931 -14.987 -21.450  1.00  0.00     0.198 C 
BRANCH   5   6
HETATM    6  O   UNL     1     -31.412 -13.848 -22.170  1.00  0.00    -0.398 OA
HETATM    7  H   UNL     1     -32.392 -13.923 -22.185  1.00  0.00     0.209 HD
ENDBRANCH   5   6
ENDBRANCH   1   5
BRANCH   1   8
HETATM    8  O   UNL     1     -28.915 -13.676 -21.695  1.00  0.00    -0.391 OA
HETATM    9  H   UNL     1     -28.167 -13.338 -21.163  1.00  0.00     0.210 HD
ENDBRANCH   1   8
TORSDOF 5
ENDMDL
MODEL 4
REMARK VINA RESULT:      -3.9     14.486     15.089
REMARK  5 active torsions:
REMARK  status: ('A' for Active; 'I' for Inactive)
REMARK    1  A    between atoms: C_1  and  C_2 
REMARK    2  A    between atoms: C_1  and  O_6 
REMARK    3  A    between atoms: C_2  and  C_3 
REMARK    4  A    between atoms: C_2  and  O_5 
REMARK    5  A    between atoms: C_3  and  O_4 
ROOT
HETATM    1  C   UNL     1     -30.522 -15.134 -20.802  1.00  0.00     0.165 C 
ENDROOT
BRANCH   1   2
HETATM    2  C   UNL     1     -29.223 -15.050 -21.609  1.00  0.00     0.198 C 
BRANCH   2   3
HETATM    3  O   UNL     1     -28.775 -13.693 -21.688  1.00  0.00    -0.398 OA
HETATM    4  H   UNL     1     -29.549 -13.153 -21.434  1.00  0.00     0.209 HD
ENDBRANCH   2   3
ENDBRANCH   1   2
BRANCH   1   5
HETATM    5  C   UNL     1     -30.314 -14.802 -19.319  1.00  0.00     0.198 C 
BRANCH   5   6
HETATM    6  O   UNL     1     -30.186 -13.387 -19.144  1.00  0.00    -0.398 OA
HETATM    7  H   UNL     1     -29.528 -13.084 -19.808  1.00  0.00     0.209 HD
ENDBRANCH   5   6
ENDBRANCH   1   5
BRANCH   1   8
HETATM    8  O   UNL     1     -31.453 -14.195 -21.363  1.00  0.00    -0.391 OA
HETATM    9  H   UNL     1     -31.826 -13.702 -20.604  1.00  0.00     0.210 HD
ENDBRANCH   1   8
TORSDOF 5
ENDMDL
MODEL 5
REMARK VINA RESULT:      -3.9      1.769      3.013
REMARK  5 active torsions:
REMARK  status: ('A' for Active; 'I' for Inactive)
REMARK    1  A    between atoms: C_1  and  C_2 
REMARK    2  A    between atoms: C_1  and  O_6 
REMARK    3  A    between atoms: C_2  and  C_3 
REMARK    4  A    between atoms: C_2  and  O_5 
REMARK    5  A    between atoms: C_3  and  O_4 
ROOT
HETATM    1  C   UNL     1     -23.725  -2.799 -13.490  1.00  0.00     0.165 C 
ENDROOT
BRANCH   1   2
HETATM    2  C   UNL     1     -22.698  -2.893 -12.359  1.00  0.00     0.198 C 
BRANCH   2   3
HETATM    3  O   UNL     1     -21.629  -3.769 -12.731  1.00  0.00    -0.398 OA
HETATM    4  H   UNL     1     -22.014  -4.667 -12.705  1.00  0.00     0.209 HD
ENDBRANCH   2   3
ENDBRANCH   1   2
BRANCH   1   5
HETATM    5  C   UNL     1     -23.159  -2.118 -14.744  1.00  0.00     0.198 C 
BRANCH   5   6
HETATM    6  O   UNL     1     -22.232  -2.988 -15.401  1.00  0.00    -0.398 OA
HETATM    7  H   UNL     1     -21.910  -2.503 -16.193  1.00  0.00     0.209 HD
ENDBRANCH   5   6
ENDBRANCH   1   5
BRANCH   1   8
HETATM    8  O   UNL     1     -24.133  -4.134 -13.831  1.00  0.00    -0.391 OA
HETATM    9  H   UNL     1     -24.028  -4.663 -13.014  1.00  0.00     0.210 HD
ENDBRANCH   1   8
TORSDOF 5
ENDMDL
MODEL 6
REMARK VINA RESULT:      -3.9      1.397      2.038
REMARK  5 active torsions:
REMARK  status: ('A' for Active; 'I' for Inactive)
REMARK    1  A    between atoms: C_1  and  C_2 
REMARK    2  A    between atoms: C_1  and  O_6 
REMARK    3  A    between atoms: C_2  and  C_3 
REMARK    4  A    between atoms: C_2  and  O_5 
REMARK    5  A    between atoms: C_3  and  O_4 
ROOT
HETATM    1  C   UNL     1     -22.833  -2.864 -12.880  1.00  0.00     0.165 C 
ENDROOT
BRANCH   1   2
HETATM    2  C   UNL     1     -23.109  -2.699 -14.377  1.00  0.00     0.198 C 
BRANCH   2   3
HETATM    3  O   UNL     1     -23.821  -3.834 -14.880  1.00  0.00    -0.398 OA
HETATM    4  H   UNL     1     -24.706  -3.495 -15.119  1.00  0.00     0.209 HD
ENDBRANCH   2   3
ENDBRANCH   1   2
BRANCH   1   5
HETATM    5  C   UNL     1     -24.030  -3.455 -12.123  1.00  0.00     0.198 C 
BRANCH   5   6
HETATM    6  O   UNL     1     -25.250  -2.883 -12.606  1.00  0.00    -0.398 OA
HETATM    7  H   UNL     1     -25.960  -3.194 -12.003  1.00  0.00     0.209 HD
ENDBRANCH   5   6
ENDBRANCH   1   5
BRANCH   1   8
HETATM    8  O   UNL     1     -21.709  -3.747 -12.733  1.00  0.00    -0.391 OA
HETATM    9  H   UNL     1     -22.019  -4.483 -12.166  1.00  0.00     0.210 HD
ENDBRANCH   1   8
TORSDOF 5
ENDMDL
MODEL 7
REMARK VINA RESULT:      -3.8     15.631     16.252
REMARK  5 active torsions:
REMARK  status: ('A' for Active; 'I' for Inactive)
REMARK    1  A    between atoms: C_1  and  C_2 
REMARK    2  A    between atoms: C_1  and  O_6 
REMARK    3  A    between atoms: C_2  and  C_3 
REMARK    4  A    between atoms: C_2  and  O_5 
REMARK    5  A    between atoms: C_3  and  O_4 
ROOT
HETATM    1  C   UNL     1     -30.423 -15.640 -21.903  1.00  0.00     0.165 C 
ENDROOT
BRANCH   1   2
HETATM    2  C   UNL     1     -31.766 -15.126 -22.426  1.00  0.00     0.198 C 
BRANCH   2   3
HETATM    3  O   UNL     1     -31.768 -13.695 -22.470  1.00  0.00    -0.398 OA
HETATM    4  H   UNL     1     -30.825 -13.438 -22.434  1.00  0.00     0.209 HD
ENDBRANCH   2   3
ENDBRANCH   1   2
BRANCH   1   5
HETATM    5  C   UNL     1     -29.738 -14.641 -20.961  1.00  0.00     0.198 C 
BRANCH   5   6
HETATM    6  O   UNL     1     -28.894 -13.758 -21.707  1.00  0.00    -0.398 OA
HETATM    7  H   UNL     1     -29.487 -13.101 -22.132  1.00  0.00     0.209 HD
ENDBRANCH   5   6
ENDBRANCH   1   5
BRANCH   1   8
HETATM    8  O   UNL     1     -30.665 -16.862 -21.187  1.00  0.00    -0.391 OA
HETATM    9  H   UNL     1     -30.114 -17.543 -21.625  1.00  0.00     0.210 HD
ENDBRANCH   1   8
TORSDOF 5
ENDMDL
MODEL 8
REMARK VINA RESULT:      -3.7      4.666      5.531
REMARK  5 active torsions:
REMARK  status: ('A' for Active; 'I' for Inactive)
REMARK    1  A    between atoms: C_1  and  C_2 
REMARK    2  A    between atoms: C_1  and  O_6 
REMARK    3  A    between atoms: C_2  and  C_3 
REMARK    4  A    between atoms: C_2  and  O_5 
REMARK    5  A    between atoms: C_3  and  O_4 
ROOT
HETATM    1  C   UNL     1     -25.372  -6.776 -15.598  1.00  0.00     0.165 C 
ENDROOT
BRANCH   1   2
HETATM    2  C   UNL     1     -26.840  -6.638 -16.007  1.00  0.00     0.198 C 
BRANCH   2   3
HETATM    3  O   UNL     1     -26.955  -5.813 -17.172  1.00  0.00    -0.398 OA
HETATM    4  H   UNL     1     -27.888  -5.899 -17.453  1.00  0.00     0.209 HD
ENDBRANCH   2   3
ENDBRANCH   1   2
BRANCH   1   5
HETATM    5  C   UNL     1     -24.545  -7.556 -16.629  1.00  0.00     0.198 C 
BRANCH   5   6
HETATM    6  O   UNL     1     -24.303  -6.744 -17.782  1.00  0.00    -0.398 OA
HETATM    7  H   UNL     1     -23.361  -6.882 -18.026  1.00  0.00     0.209 HD
ENDBRANCH   5   6
ENDBRANCH   1   5
BRANCH   1   8
HETATM    8  O   UNL     1     -24.822  -5.456 -15.465  1.00  0.00    -0.391 OA
HETATM    9  H   UNL     1     -25.146  -4.951 -16.239  1.00  0.00     0.210 HD
ENDBRANCH   1   8
TORSDOF 5
ENDMDL
MODEL 9
REMARK VINA RESULT:      -3.7      2.216      3.124
REMARK  5 active torsions:
REMARK  status: ('A' for Active; 'I' for Inactive)
REMARK    1  A    between atoms: C_1  and  C_2 
REMARK    2  A    between atoms: C_1  and  O_6 
REMARK    3  A    between atoms: C_2  and  C_3 
REMARK    4  A    between atoms: C_2  and  O_5 
REMARK    5  A    between atoms: C_3  and  O_4 
ROOT
HETATM    1  C   UNL     1     -24.155  -3.463 -11.802  1.00  0.00     0.165 C 
ENDROOT
BRANCH   1   2
HETATM    2  C   UNL     1     -22.926  -2.691 -12.290  1.00  0.00     0.198 C 
BRANCH   2   3
HETATM    3  O   UNL     1     -22.052  -3.559 -13.020  1.00  0.00    -0.398 OA
HETATM    4  H   UNL     1     -22.644  -4.148 -13.528  1.00  0.00     0.209 HD
ENDBRANCH   2   3
ENDBRANCH   1   2
BRANCH   1   5
HETATM    5  C   UNL     1     -24.338  -3.373 -10.281  1.00  0.00     0.198 C 
BRANCH   5   6
HETATM    6  O   UNL     1     -25.730  -3.289  -9.956  1.00  0.00    -0.398 OA
HETATM    7  H   UNL     1     -26.140  -4.121 -10.280  1.00  0.00     0.209 HD
ENDBRANCH   5   6
ENDBRANCH   1   5
BRANCH   1   8
HETATM    8  O   UNL     1     -25.312  -2.903 -12.443  1.00  0.00    -0.391 OA
HETATM    9  H   UNL     1     -24.975  -2.398 -13.211  1.00  0.00     0.210 HD
ENDBRANCH   1   8
TORSDOF 5
ENDMDL
