MODEL 1
REMARK VINA RESULT:      -7.5      0.000      0.000
REMARK  17 active torsions:
REMARK  status: ('A' for Active; 'I' for Inactive)
REMARK    1  A    between atoms: C_2  and  C_3 
REMARK    2  A    between atoms: C_3  and  C_4 
REMARK    3  A    between atoms: C_4  and  C_5 
REMARK    4  A    between atoms: C_5  and  C_6 
REMARK    5  A    between atoms: C_6  and  C_7 
REMARK    6  A    between atoms: C_7  and  C_8 
REMARK    7  A    between atoms: C_8  and  C_9 
REMARK    8  A    between atoms: C_9  and  C_10 
REMARK    9  A    between atoms: C_10  and  C_11 
REMARK   10  A    between atoms: C_11  and  C_12 
REMARK   11  A    between atoms: C_12  and  O_13 
REMARK   12  A    between atoms: O_13  and  C_14 
REMARK   13  A    between atoms: C_15  and  O_24 
REMARK   14  A    between atoms: C_16  and  O_23 
REMARK   15  A    between atoms: C_17  and  O_22 
REMARK   16  A    between atoms: C_18  and  C_20 
REMARK   17  A    between atoms: C_20  and  O_21 
ROOT
HETATM    1  C   UNL     1     -21.661  -3.379 -10.432  1.00  0.00     0.291 C 
HETATM    2  C   UNL     1     -22.794  -4.034  -9.606  1.00  0.00     0.204 C 
HETATM    3  C   UNL     1     -23.735  -4.854 -10.508  1.00  0.00     0.183 C 
HETATM    4  C   UNL     1     -24.172  -4.069 -11.756  1.00  0.00     0.180 C 
HETATM    5  C   UNL     1     -22.925  -3.536 -12.462  1.00  0.00     0.179 C 
HETATM    6  O   UNL     1     -22.211  -2.662 -11.557  1.00  0.00    -0.348 OA
ENDROOT
BRANCH   1   7
HETATM    7  O   UNL     1     -20.680  -4.330 -10.842  1.00  0.00    -0.359 OA
BRANCH   7   8
HETATM    8  C   UNL     1     -20.061  -4.958  -9.715  1.00  0.00     0.171 C 
BRANCH   8   9
HETATM    9  C   UNL     1     -19.597  -3.916  -8.695  1.00  0.00     0.026 C 
BRANCH   9  10
HETATM   10  C   UNL     1     -19.224  -4.485  -7.323  1.00  0.00     0.002 C 
BRANCH  10  11
HETATM   11  C   UNL     1     -20.122  -5.647  -6.913  1.00  0.00     0.000 C 
BRANCH  11  12
HETATM   12  C   UNL     1     -20.439  -5.632  -5.421  1.00  0.00     0.000 C 
BRANCH  12  13
HETATM   13  C   UNL     1     -21.848  -6.173  -5.200  1.00  0.00     0.000 C 
BRANCH  13  14
HETATM   14  C   UNL     1     -21.938  -7.026  -3.941  1.00  0.00     0.000 C 
BRANCH  14  15
HETATM   15  C   UNL     1     -21.582  -6.181  -2.720  1.00  0.00     0.000 C 
BRANCH  15  16
HETATM   16  C   UNL     1     -22.180  -6.769  -1.448  1.00  0.00     0.000 C 
BRANCH  16  17
HETATM   17  C   UNL     1     -21.268  -7.849  -0.876  1.00  0.00    -0.000 C 
BRANCH  17  18
HETATM   18  C   UNL     1     -21.743  -8.295   0.502  1.00  0.00    -0.005 C 
HETATM   19  C   UNL     1     -23.233  -8.053   0.674  1.00  0.00     0.005 C 
ENDBRANCH  17  18
ENDBRANCH  16  17
ENDBRANCH  15  16
ENDBRANCH  14  15
ENDBRANCH  13  14
ENDBRANCH  12  13
ENDBRANCH  11  12
ENDBRANCH  10  11
ENDBRANCH   9  10
ENDBRANCH   8   9
ENDBRANCH   7   8
ENDBRANCH   1   7
BRANCH   2  20
HETATM   20  O   UNL     1     -23.539  -3.016  -8.909  1.00  0.00    -0.388 OA
HETATM   21  H   UNL     1     -24.047  -2.519  -9.574  1.00  0.00     0.210 HD
ENDBRANCH   2  20
BRANCH   3  22
HETATM   22  O   UNL     1     -24.895  -5.262  -9.776  1.00  0.00    -0.390 OA
HETATM   23  H   UNL     1     -24.838  -4.781  -8.922  1.00  0.00     0.210 HD
ENDBRANCH   3  22
BRANCH   5  24
HETATM   24  C   UNL     1     -23.250  -2.729 -13.722  1.00  0.00     0.198 C 
BRANCH  24  25
HETATM   25  O   UNL     1     -23.594  -3.617 -14.786  1.00  0.00    -0.398 OA
HETATM   26  H   UNL     1     -24.483  -3.347 -15.085  1.00  0.00     0.209 HD
ENDBRANCH  24  25
ENDBRANCH   5  24
BRANCH   4  27
HETATM   27  O   UNL     1     -25.050  -3.000 -11.356  1.00  0.00    -0.390 OA
HETATM   28  H   UNL     1     -25.955  -3.350 -11.276  1.00  0.00     0.210 HD
ENDBRANCH   4  27
TORSDOF 17
ENDMDL
MODEL 2
REMARK VINA RESULT:      -6.7      1.851      3.756
REMARK  17 active torsions:
REMARK  status: ('A' for Active; 'I' for Inactive)
REMARK    1  A    between atoms: C_2  and  C_3 
REMARK    2  A    between atoms: C_3  and  C_4 
REMARK    3  A    between atoms: C_4  and  C_5 
REMARK    4  A    between atoms: C_5  and  C_6 
REMARK    5  A    between atoms: C_6  and  C_7 
REMARK    6  A    between atoms: C_7  and  C_8 
REMARK    7  A    between atoms: C_8  and  C_9 
REMARK    8  A    between atoms: C_9  and  C_10 
REMARK    9  A    between atoms: C_10  and  C_11 
REMARK   10  A    between atoms: C_11  and  C_12 
REMARK   11  A    between atoms: C_12  and  O_13 
REMARK   12  A    between atoms: O_13  and  C_14 
REMARK   13  A    between atoms: C_15  and  O_24 
REMARK   14  A    between atoms: C_16  and  O_23 
REMARK   15  A    between atoms: C_17  and  O_22 
REMARK   16  A    between atoms: C_18  and  C_20 
REMARK   17  A    between atoms: C_20  and  O_21 
ROOT
HETATM    1  C   UNL     1     -21.112  -4.818  -8.495  1.00  0.00     0.291 C 
HETATM    2  C   UNL     1     -20.225  -4.249  -9.628  1.00  0.00     0.204 C 
HETATM    3  C   UNL     1     -20.948  -3.118 -10.383  1.00  0.00     0.183 C 
HETATM    4  C   UNL     1     -22.383  -3.508 -10.777  1.00  0.00     0.180 C 
HETATM    5  C   UNL     1     -23.115  -4.005  -9.530  1.00  0.00     0.179 C 
HETATM    6  O   UNL     1     -22.418  -5.159  -9.005  1.00  0.00    -0.348 OA
ENDROOT
BRANCH   1   7
HETATM    7  O   UNL     1     -21.197  -3.928  -7.383  1.00  0.00    -0.359 OA
BRANCH   7   8
HETATM    8  C   UNL     1     -20.659  -4.524  -6.199  1.00  0.00     0.171 C 
BRANCH   8   9
HETATM    9  C   UNL     1     -21.516  -5.708  -5.743  1.00  0.00     0.026 C 
BRANCH   9  10
HETATM   10  C   UNL     1     -20.737  -6.838  -5.064  1.00  0.00     0.002 C 
BRANCH  10  11
HETATM   11  C   UNL     1     -21.337  -7.229  -3.718  1.00  0.00     0.000 C 
BRANCH  11  12
HETATM   12  C   UNL     1     -21.719  -6.012  -2.881  1.00  0.00     0.000 C 
BRANCH  12  13
HETATM   13  C   UNL     1     -22.162  -6.472  -1.497  1.00  0.00     0.000 C 
BRANCH  13  14
HETATM   14  C   UNL     1     -21.546  -7.813  -1.119  1.00  0.00     0.000 C 
BRANCH  14  15
HETATM   15  C   UNL     1     -22.526  -8.606  -0.258  1.00  0.00     0.000 C 
BRANCH  15  16
HETATM   16  C   UNL     1     -22.045 -10.037  -0.051  1.00  0.00     0.000 C 
BRANCH  16  17
HETATM   17  C   UNL     1     -21.735 -10.698  -1.390  1.00  0.00    -0.000 C 
BRANCH  17  18
HETATM   18  C   UNL     1     -23.012 -10.959  -2.182  1.00  0.00    -0.005 C 
HETATM   19  C   UNL     1     -22.708 -11.191  -3.652  1.00  0.00     0.005 C 
ENDBRANCH  17  18
ENDBRANCH  16  17
ENDBRANCH  15  16
ENDBRANCH  14  15
ENDBRANCH  13  14
ENDBRANCH  12  13
ENDBRANCH  11  12
ENDBRANCH  10  11
ENDBRANCH   9  10
ENDBRANCH   8   9
ENDBRANCH   7   8
ENDBRANCH   1   7
BRANCH   2  20
HETATM   20  O   UNL     1     -19.865  -5.303 -10.541  1.00  0.00    -0.388 OA
HETATM   21  H   UNL     1     -19.947  -6.146 -10.061  1.00  0.00     0.210 HD
ENDBRANCH   2  20
BRANCH   3  22
HETATM   22  O   UNL     1     -20.216  -2.758 -11.560  1.00  0.00    -0.390 OA
HETATM   23  H   UNL     1     -20.113  -1.784 -11.505  1.00  0.00     0.210 HD
ENDBRANCH   3  22
BRANCH   5  24
HETATM   24  C   UNL     1     -24.560  -4.428  -9.814  1.00  0.00     0.198 C 
BRANCH  24  25
HETATM   25  O   UNL     1     -25.415  -3.286  -9.753  1.00  0.00    -0.398 OA
HETATM   26  H   UNL     1     -26.260  -3.604  -9.380  1.00  0.00     0.209 HD
ENDBRANCH  24  25
ENDBRANCH   5  24
BRANCH   4  27
HETATM   27  O   UNL     1     -22.331  -4.522 -11.798  1.00  0.00    -0.390 OA
HETATM   28  H   UNL     1     -21.765  -5.251 -11.489  1.00  0.00     0.210 HD
ENDBRANCH   4  27
TORSDOF 17
ENDMDL
MODEL 3
REMARK VINA RESULT:      -6.7      1.704      2.556
REMARK  17 active torsions:
REMARK  status: ('A' for Active; 'I' for Inactive)
REMARK    1  A    between atoms: C_2  and  C_3 
REMARK    2  A    between atoms: C_3  and  C_4 
REMARK    3  A    between atoms: C_4  and  C_5 
REMARK    4  A    between atoms: C_5  and  C_6 
REMARK    5  A    between atoms: C_6  and  C_7 
REMARK    6  A    between atoms: C_7  and  C_8 
REMARK    7  A    between atoms: C_8  and  C_9 
REMARK    8  A    between atoms: C_9  and  C_10 
REMARK    9  A    between atoms: C_10  and  C_11 
REMARK   10  A    between atoms: C_11  and  C_12 
REMARK   11  A    between atoms: C_12  and  O_13 
REMARK   12  A    between atoms: O_13  and  C_14 
REMARK   13  A    between atoms: C_15  and  O_24 
REMARK   14  A    between atoms: C_16  and  O_23 
REMARK   15  A    between atoms: C_17  and  O_22 
REMARK   16  A    between atoms: C_18  and  C_20 
REMARK   17  A    between atoms: C_20  and  O_21 
ROOT
HETATM    1  C   UNL     1     -21.905  -3.646  -9.729  1.00  0.00     0.291 C 
HETATM    2  C   UNL     1     -23.227  -4.169  -9.120  1.00  0.00     0.204 C 
HETATM    3  C   UNL     1     -24.025  -4.991 -10.150  1.00  0.00     0.183 C 
HETATM    4  C   UNL     1     -24.140  -4.270 -11.503  1.00  0.00     0.180 C 
HETATM    5  C   UNL     1     -22.740  -3.866 -11.965  1.00  0.00     0.179 C 
HETATM    6  O   UNL     1     -22.160  -2.977 -10.982  1.00  0.00    -0.348 OA
ENDROOT
BRANCH   1   7
HETATM    7  O   UNL     1     -20.935  -4.682  -9.874  1.00  0.00    -0.359 OA
BRANCH   7   8
HETATM    8  C   UNL     1     -19.704  -4.335  -9.233  1.00  0.00     0.171 C 
BRANCH   8   9
HETATM    9  C   UNL     1     -19.920  -4.061  -7.743  1.00  0.00     0.026 C 
BRANCH   9  10
HETATM   10  C   UNL     1     -19.472  -5.191  -6.812  1.00  0.00     0.002 C 
BRANCH  10  11
HETATM   11  C   UNL     1     -20.559  -6.239  -6.605  1.00  0.00     0.000 C 
BRANCH  11  12
HETATM   12  C   UNL     1     -21.774  -5.673  -5.878  1.00  0.00     0.000 C 
BRANCH  12  13
HETATM   13  C   UNL     1     -22.158  -6.607  -4.736  1.00  0.00     0.000 C 
BRANCH  13  14
HETATM   14  C   UNL     1     -21.491  -6.208  -3.426  1.00  0.00     0.000 C 
BRANCH  14  15
HETATM   15  C   UNL     1     -21.021  -7.458  -2.685  1.00  0.00     0.000 C 
BRANCH  15  16
HETATM   16  C   UNL     1     -20.844  -8.632  -3.640  1.00  0.00     0.000 C 
BRANCH  16  17
HETATM   17  C   UNL     1     -19.364  -8.903  -3.889  1.00  0.00    -0.000 C 
BRANCH  17  18
HETATM   18  C   UNL     1     -19.141  -9.497  -5.275  1.00  0.00    -0.005 C 
HETATM   19  C   UNL     1     -17.663  -9.727  -5.542  1.00  0.00     0.005 C 
ENDBRANCH  17  18
ENDBRANCH  16  17
ENDBRANCH  15  16
ENDBRANCH  14  15
ENDBRANCH  13  14
ENDBRANCH  12  13
ENDBRANCH  11  12
ENDBRANCH  10  11
ENDBRANCH   9  10
ENDBRANCH   8   9
ENDBRANCH   7   8
ENDBRANCH   1   7
BRANCH   2  20
HETATM   20  O   UNL     1     -24.019  -3.061  -8.650  1.00  0.00    -0.388 OA
HETATM   21  H   UNL     1     -24.374  -2.603  -9.432  1.00  0.00     0.210 HD
ENDBRANCH   2  20
BRANCH   3  22
HETATM   22  O   UNL     1     -25.337  -5.274  -9.651  1.00  0.00    -0.390 OA
HETATM   23  H   UNL     1     -25.901  -5.345 -10.450  1.00  0.00     0.210 HD
ENDBRANCH   3  22
BRANCH   5  24
HETATM   24  C   UNL     1     -22.743  -3.130 -13.308  1.00  0.00     0.198 C 
BRANCH  24  25
HETATM   25  O   UNL     1     -23.435  -1.889 -13.173  1.00  0.00    -0.398 OA
HETATM   26  H   UNL     1     -22.782  -1.193 -13.380  1.00  0.00     0.209 HD
ENDBRANCH  24  25
ENDBRANCH   5  24
BRANCH   4  27
HETATM   27  O   UNL     1     -24.999  -3.123 -11.354  1.00  0.00    -0.390 OA
HETATM   28  H   UNL     1     -25.797  -3.390 -10.865  1.00  0.00     0.210 HD
ENDBRANCH   4  27
TORSDOF 17
ENDMDL
MODEL 4
REMARK VINA RESULT:      -6.4      1.569      2.716
REMARK  17 active torsions:
REMARK  status: ('A' for Active; 'I' for Inactive)
REMARK    1  A    between atoms: C_2  and  C_3 
REMARK    2  A    between atoms: C_3  and  C_4 
REMARK    3  A    between atoms: C_4  and  C_5 
REMARK    4  A    between atoms: C_5  and  C_6 
REMARK    5  A    between atoms: C_6  and  C_7 
REMARK    6  A    between atoms: C_7  and  C_8 
REMARK    7  A    between atoms: C_8  and  C_9 
REMARK    8  A    between atoms: C_9  and  C_10 
REMARK    9  A    between atoms: C_10  and  C_11 
REMARK   10  A    between atoms: C_11  and  C_12 
REMARK   11  A    between atoms: C_12  and  O_13 
REMARK   12  A    between atoms: O_13  and  C_14 
REMARK   13  A    between atoms: C_15  and  O_24 
REMARK   14  A    between atoms: C_16  and  O_23 
REMARK   15  A    between atoms: C_17  and  O_22 
REMARK   16  A    between atoms: C_18  and  C_20 
REMARK   17  A    between atoms: C_20  and  O_21 
ROOT
HETATM    1  C   UNL     1     -22.180  -3.781  -8.351  1.00  0.00     0.291 C 
HETATM    2  C   UNL     1     -23.684  -4.120  -8.476  1.00  0.00     0.204 C 
HETATM    3  C   UNL     1     -23.934  -5.124  -9.618  1.00  0.00     0.183 C 
HETATM    4  C   UNL     1     -23.221  -4.714 -10.917  1.00  0.00     0.180 C 
HETATM    5  C   UNL     1     -21.745  -4.461 -10.608  1.00  0.00     0.179 C 
HETATM    6  O   UNL     1     -21.645  -3.396  -9.634  1.00  0.00    -0.348 OA
ENDROOT
BRANCH   1   7
HETATM    7  O   UNL     1     -21.436  -4.852  -7.772  1.00  0.00    -0.359 OA
BRANCH   7   8
HETATM    8  C   UNL     1     -20.482  -4.368  -6.822  1.00  0.00     0.171 C 
BRANCH   8   9
HETATM    9  C   UNL     1     -20.474  -5.236  -5.562  1.00  0.00     0.026 C 
BRANCH   9  10
HETATM   10  C   UNL     1     -20.920  -6.685  -5.779  1.00  0.00     0.002 C 
BRANCH  10  11
HETATM   11  C   UNL     1     -21.940  -7.140  -4.742  1.00  0.00     0.000 C 
BRANCH  11  12
HETATM   12  C   UNL     1     -21.907  -6.278  -3.484  1.00  0.00     0.000 C 
BRANCH  12  13
HETATM   13  C   UNL     1     -21.449  -7.128  -2.303  1.00  0.00     0.000 C 
BRANCH  13  14
HETATM   14  C   UNL     1     -22.241  -6.819  -1.040  1.00  0.00     0.000 C 
BRANCH  14  15
HETATM   15  C   UNL     1     -22.580  -8.118  -0.312  1.00  0.00     0.000 C 
BRANCH  15  16
HETATM   16  C   UNL     1     -21.611  -8.377   0.835  1.00  0.00     0.000 C 
BRANCH  16  17
HETATM   17  C   UNL     1     -21.061  -9.797   0.762  1.00  0.00    -0.000 C 
BRANCH  17  18
HETATM   18  C   UNL     1     -21.766 -10.604  -0.323  1.00  0.00    -0.005 C 
HETATM   19  C   UNL     1     -22.551 -11.759   0.274  1.00  0.00     0.005 C 
ENDBRANCH  17  18
ENDBRANCH  16  17
ENDBRANCH  15  16
ENDBRANCH  14  15
ENDBRANCH  13  14
ENDBRANCH  12  13
ENDBRANCH  11  12
ENDBRANCH  10  11
ENDBRANCH   9  10
ENDBRANCH   8   9
ENDBRANCH   7   8
ENDBRANCH   1   7
BRANCH   2  20
HETATM   20  O   UNL     1     -24.438  -2.913  -8.704  1.00  0.00    -0.388 OA
HETATM   21  H   UNL     1     -25.112  -2.853  -8.004  1.00  0.00     0.210 HD
ENDBRANCH   2  20
BRANCH   3  22
HETATM   22  O   UNL     1     -25.337  -5.253  -9.868  1.00  0.00    -0.390 OA
HETATM   23  H   UNL     1     -25.632  -4.354 -10.130  1.00  0.00     0.210 HD
ENDBRANCH   3  22
BRANCH   5  24
HETATM   24  C   UNL     1     -20.941  -4.037 -11.841  1.00  0.00     0.198 C 
BRANCH  24  25
HETATM   25  O   UNL     1     -20.275  -2.802 -11.577  1.00  0.00    -0.398 OA
HETATM   26  H   UNL     1     -19.643  -2.986 -10.855  1.00  0.00     0.209 HD
ENDBRANCH  24  25
ENDBRANCH   5  24
BRANCH   4  27
HETATM   27  O   UNL     1     -23.858  -3.537 -11.451  1.00  0.00    -0.390 OA
HETATM   28  H   UNL     1     -24.609  -3.300 -10.879  1.00  0.00     0.210 HD
ENDBRANCH   4  27
TORSDOF 17
ENDMDL
MODEL 5
REMARK VINA RESULT:      -6.3      5.504     10.460
REMARK  17 active torsions:
REMARK  status: ('A' for Active; 'I' for Inactive)
REMARK    1  A    between atoms: C_2  and  C_3 
REMARK    2  A    between atoms: C_3  and  C_4 
REMARK    3  A    between atoms: C_4  and  C_5 
REMARK    4  A    between atoms: C_5  and  C_6 
REMARK    5  A    between atoms: C_6  and  C_7 
REMARK    6  A    between atoms: C_7  and  C_8 
REMARK    7  A    between atoms: C_8  and  C_9 
REMARK    8  A    between atoms: C_9  and  C_10 
REMARK    9  A    between atoms: C_10  and  C_11 
REMARK   10  A    between atoms: C_11  and  C_12 
REMARK   11  A    between atoms: C_12  and  O_13 
REMARK   12  A    between atoms: O_13  and  C_14 
REMARK   13  A    between atoms: C_15  and  O_24 
REMARK   14  A    between atoms: C_16  and  O_23 
REMARK   15  A    between atoms: C_17  and  O_22 
REMARK   16  A    between atoms: C_18  and  C_20 
REMARK   17  A    between atoms: C_20  and  O_21 
ROOT
HETATM    1  C   UNL     1     -20.595  -9.032  -2.597  1.00  0.00     0.291 C 
HETATM    2  C   UNL     1     -20.625 -10.564  -2.389  1.00  0.00     0.204 C 
HETATM    3  C   UNL     1     -21.912 -11.001  -1.665  1.00  0.00     0.183 C 
HETATM    4  C   UNL     1     -22.199 -10.143  -0.422  1.00  0.00     0.180 C 
HETATM    5  C   UNL     1     -22.170  -8.669  -0.827  1.00  0.00     0.179 C 
HETATM    6  O   UNL     1     -20.859  -8.352  -1.352  1.00  0.00    -0.348 OA
ENDROOT
BRANCH   1   7
HETATM    7  O   UNL     1     -21.491  -8.613  -3.625  1.00  0.00    -0.359 OA
BRANCH   7   8
HETATM    8  C   UNL     1     -21.182  -7.292  -4.078  1.00  0.00     0.171 C 
BRANCH   8   9
HETATM    9  C   UNL     1     -21.366  -7.175  -5.593  1.00  0.00     0.026 C 
BRANCH   9  10
HETATM   10  C   UNL     1     -20.278  -6.371  -6.310  1.00  0.00     0.002 C 
BRANCH  10  11
HETATM   11  C   UNL     1     -20.249  -4.912  -5.870  1.00  0.00     0.000 C 
BRANCH  11  12
HETATM   12  C   UNL     1     -20.477  -3.954  -7.035  1.00  0.00     0.000 C 
BRANCH  12  13
HETATM   13  C   UNL     1     -21.931  -4.045  -7.483  1.00  0.00     0.000 C 
BRANCH  13  14
HETATM   14  C   UNL     1     -22.067  -3.939  -8.997  1.00  0.00     0.000 C 
BRANCH  14  15
HETATM   15  C   UNL     1     -20.697  -4.113  -9.650  1.00  0.00     0.000 C 
BRANCH  15  16
HETATM   16  C   UNL     1     -20.778  -3.920 -11.160  1.00  0.00     0.000 C 
BRANCH  16  17
HETATM   17  C   UNL     1     -22.201  -4.154 -11.655  1.00  0.00    -0.000 C 
BRANCH  17  18
HETATM   18  C   UNL     1     -22.629  -3.063 -12.630  1.00  0.00    -0.005 C 
HETATM   19  C   UNL     1     -24.143  -2.966 -12.715  1.00  0.00     0.005 C 
ENDBRANCH  17  18
ENDBRANCH  16  17
ENDBRANCH  15  16
ENDBRANCH  14  15
ENDBRANCH  13  14
ENDBRANCH  12  13
ENDBRANCH  11  12
ENDBRANCH  10  11
ENDBRANCH   9  10
ENDBRANCH   8   9
ENDBRANCH   7   8
ENDBRANCH   1   7
BRANCH   2  20
HETATM   20  O   UNL     1     -19.468 -10.976  -1.634  1.00  0.00    -0.388 OA
HETATM   21  H   UNL     1     -19.784 -11.320  -0.780  1.00  0.00     0.210 HD
ENDBRANCH   2  20
BRANCH   3  22
HETATM   22  O   UNL     1     -21.824 -12.377  -1.280  1.00  0.00    -0.390 OA
HETATM   23  H   UNL     1     -21.248 -12.793  -1.957  1.00  0.00     0.210 HD
ENDBRANCH   3  22
BRANCH   5  24
HETATM   24  C   UNL     1     -22.438  -7.722   0.347  1.00  0.00     0.198 C 
BRANCH  24  25
HETATM   25  O   UNL     1     -23.827  -7.749   0.677  1.00  0.00    -0.398 OA
HETATM   26  H   UNL     1     -23.943  -7.109   1.405  1.00  0.00     0.209 HD
ENDBRANCH  24  25
ENDBRANCH   5  24
BRANCH   4  27
HETATM   27  O   UNL     1     -21.214 -10.433   0.587  1.00  0.00    -0.390 OA
HETATM   28  H   UNL     1     -20.964  -9.603   1.030  1.00  0.00     0.210 HD
ENDBRANCH   4  27
TORSDOF 17
ENDMDL
MODEL 6
REMARK VINA RESULT:      -6.1      1.980      2.234
REMARK  17 active torsions:
REMARK  status: ('A' for Active; 'I' for Inactive)
REMARK    1  A    between atoms: C_2  and  C_3 
REMARK    2  A    between atoms: C_3  and  C_4 
REMARK    3  A    between atoms: C_4  and  C_5 
REMARK    4  A    between atoms: C_5  and  C_6 
REMARK    5  A    between atoms: C_6  and  C_7 
REMARK    6  A    between atoms: C_7  and  C_8 
REMARK    7  A    between atoms: C_8  and  C_9 
REMARK    8  A    between atoms: C_9  and  C_10 
REMARK    9  A    between atoms: C_10  and  C_11 
REMARK   10  A    between atoms: C_11  and  C_12 
REMARK   11  A    between atoms: C_12  and  O_13 
REMARK   12  A    between atoms: O_13  and  C_14 
REMARK   13  A    between atoms: C_15  and  O_24 
REMARK   14  A    between atoms: C_16  and  O_23 
REMARK   15  A    between atoms: C_17  and  O_22 
REMARK   16  A    between atoms: C_18  and  C_20 
REMARK   17  A    between atoms: C_20  and  O_21 
ROOT
HETATM    1  C   UNL     1     -22.133  -3.699  -9.035  1.00  0.00     0.291 C 
HETATM    2  C   UNL     1     -23.471  -4.397  -8.698  1.00  0.00     0.204 C 
HETATM    3  C   UNL     1     -24.041  -5.128  -9.928  1.00  0.00     0.183 C 
HETATM    4  C   UNL     1     -24.037  -4.240 -11.184  1.00  0.00     0.180 C 
HETATM    5  C   UNL     1     -22.630  -3.674 -11.379  1.00  0.00     0.179 C 
HETATM    6  O   UNL     1     -22.276  -2.886 -10.219  1.00  0.00    -0.348 OA
ENDROOT
BRANCH   1   7
HETATM    7  O   UNL     1     -21.060  -4.630  -9.163  1.00  0.00    -0.359 OA
BRANCH   7   8
HETATM    8  C   UNL     1     -19.852  -4.112  -8.599  1.00  0.00     0.171 C 
BRANCH   8   9
HETATM    9  C   UNL     1     -19.425  -4.925  -7.375  1.00  0.00     0.026 C 
BRANCH   9  10
HETATM   10  C   UNL     1     -20.338  -4.772  -6.155  1.00  0.00     0.002 C 
BRANCH  10  11
HETATM   11  C   UNL     1     -21.226  -5.993  -5.938  1.00  0.00     0.000 C 
BRANCH  11  12
HETATM   12  C   UNL     1     -20.520  -7.085  -5.141  1.00  0.00     0.000 C 
BRANCH  12  13
HETATM   13  C   UNL     1     -21.338  -8.370  -5.214  1.00  0.00     0.000 C 
BRANCH  13  14
HETATM   14  C   UNL     1     -20.953  -9.351  -4.114  1.00  0.00     0.000 C 
BRANCH  14  15
HETATM   15  C   UNL     1     -22.177 -10.165  -3.699  1.00  0.00     0.000 C 
BRANCH  15  16
HETATM   16  C   UNL     1     -22.110 -10.549  -2.226  1.00  0.00     0.000 C 
BRANCH  16  17
HETATM   17  C   UNL     1     -23.412 -11.209  -1.784  1.00  0.00    -0.000 C 
BRANCH  17  18
HETATM   18  C   UNL     1     -23.672 -10.970  -0.300  1.00  0.00    -0.005 C 
HETATM   19  C   UNL     1     -23.586 -12.266   0.488  1.00  0.00     0.005 C 
ENDBRANCH  17  18
ENDBRANCH  16  17
ENDBRANCH  15  16
ENDBRANCH  14  15
ENDBRANCH  13  14
ENDBRANCH  12  13
ENDBRANCH  11  12
ENDBRANCH  10  11
ENDBRANCH   9  10
ENDBRANCH   8   9
ENDBRANCH   7   8
ENDBRANCH   1   7
BRANCH   2  20
HETATM   20  O   UNL     1     -24.420  -3.426  -8.216  1.00  0.00    -0.388 OA
HETATM   21  H   UNL     1     -23.962  -2.870  -7.562  1.00  0.00     0.210 HD
ENDBRANCH   2  20
BRANCH   3  22
HETATM   22  O   UNL     1     -25.376  -5.574  -9.668  1.00  0.00    -0.390 OA
HETATM   23  H   UNL     1     -25.777  -5.703 -10.555  1.00  0.00     0.210 HD
ENDBRANCH   3  22
BRANCH   5  24
HETATM   24  C   UNL     1     -22.518  -2.764 -12.606  1.00  0.00     0.198 C 
BRANCH  24  25
HETATM   25  O   UNL     1     -22.011  -3.512 -13.713  1.00  0.00    -0.398 OA
HETATM   26  H   UNL     1     -22.565  -3.266 -14.479  1.00  0.00     0.209 HD
ENDBRANCH  24  25
ENDBRANCH   5  24
BRANCH   4  27
HETATM   27  O   UNL     1     -25.011  -3.192 -11.021  1.00  0.00    -0.390 OA
HETATM   28  H   UNL     1     -25.579  -3.166 -11.811  1.00  0.00     0.210 HD
ENDBRANCH   4  27
TORSDOF 17
ENDMDL
MODEL 7
REMARK VINA RESULT:      -5.9      5.345     10.120
REMARK  17 active torsions:
REMARK  status: ('A' for Active; 'I' for Inactive)
REMARK    1  A    between atoms: C_2  and  C_3 
REMARK    2  A    between atoms: C_3  and  C_4 
REMARK    3  A    between atoms: C_4  and  C_5 
REMARK    4  A    between atoms: C_5  and  C_6 
REMARK    5  A    between atoms: C_6  and  C_7 
REMARK    6  A    between atoms: C_7  and  C_8 
REMARK    7  A    between atoms: C_8  and  C_9 
REMARK    8  A    between atoms: C_9  and  C_10 
REMARK    9  A    between atoms: C_10  and  C_11 
REMARK   10  A    between atoms: C_11  and  C_12 
REMARK   11  A    between atoms: C_12  and  O_13 
REMARK   12  A    between atoms: O_13  and  C_14 
REMARK   13  A    between atoms: C_15  and  O_24 
REMARK   14  A    between atoms: C_16  and  O_23 
REMARK   15  A    between atoms: C_17  and  O_22 
REMARK   16  A    between atoms: C_18  and  C_20 
REMARK   17  A    between atoms: C_20  and  O_21 
ROOT
HETATM    1  C   UNL     1     -20.527  -7.985  -2.728  1.00  0.00     0.291 C 
HETATM    2  C   UNL     1     -19.678  -9.075  -3.425  1.00  0.00     0.204 C 
HETATM    3  C   UNL     1     -20.343 -10.459  -3.301  1.00  0.00     0.183 C 
HETATM    4  C   UNL     1     -20.787 -10.763  -1.861  1.00  0.00     0.180 C 
HETATM    5  C   UNL     1     -21.645  -9.602  -1.357  1.00  0.00     0.179 C 
HETATM    6  O   UNL     1     -20.856  -8.390  -1.383  1.00  0.00    -0.348 OA
ENDROOT
BRANCH   1   7
HETATM    7  O   UNL     1     -21.695  -7.656  -3.478  1.00  0.00    -0.359 OA
BRANCH   7   8
HETATM    8  C   UNL     1     -21.511  -6.447  -4.222  1.00  0.00     0.171 C 
BRANCH   8   9
HETATM    9  C   UNL     1     -21.373  -6.738  -5.717  1.00  0.00     0.026 C 
BRANCH   9  10
HETATM   10  C   UNL     1     -20.059  -6.263  -6.344  1.00  0.00     0.002 C 
BRANCH  10  11
HETATM   11  C   UNL     1     -20.271  -5.587  -7.694  1.00  0.00     0.000 C 
BRANCH  11  12
HETATM   12  C   UNL     1     -20.296  -4.066  -7.580  1.00  0.00     0.000 C 
BRANCH  12  13
HETATM   13  C   UNL     1     -21.740  -3.581  -7.631  1.00  0.00     0.000 C 
BRANCH  13  14
HETATM   14  C   UNL     1     -22.651  -4.582  -8.329  1.00  0.00     0.000 C 
BRANCH  14  15
HETATM   15  C   UNL     1     -23.697  -3.838  -9.157  1.00  0.00     0.000 C 
BRANCH  15  16
HETATM   16  C   UNL     1     -23.694  -4.314 -10.605  1.00  0.00     0.000 C 
BRANCH  16  17
HETATM   17  C   UNL     1     -22.266  -4.459 -11.119  1.00  0.00    -0.000 C 
BRANCH  17  18
HETATM   18  C   UNL     1     -21.848  -3.239 -11.932  1.00  0.00    -0.005 C 
HETATM   19  C   UNL     1     -23.059  -2.512 -12.492  1.00  0.00     0.005 C 
ENDBRANCH  17  18
ENDBRANCH  16  17
ENDBRANCH  15  16
ENDBRANCH  14  15
ENDBRANCH  13  14
ENDBRANCH  12  13
ENDBRANCH  11  12
ENDBRANCH  10  11
ENDBRANCH   9  10
ENDBRANCH   8   9
ENDBRANCH   7   8
ENDBRANCH   1   7
BRANCH   2  20
HETATM   20  O   UNL     1     -18.358  -9.106  -2.848  1.00  0.00    -0.388 OA
HETATM   21  H   UNL     1     -18.463  -9.196  -1.884  1.00  0.00     0.210 HD
ENDBRANCH   2  20
BRANCH   3  22
HETATM   22  O   UNL     1     -19.447 -11.483  -3.746  1.00  0.00    -0.390 OA
HETATM   23  H   UNL     1     -19.307 -12.055  -2.962  1.00  0.00     0.210 HD
ENDBRANCH   3  22
BRANCH   5  24
HETATM   24  C   UNL     1     -22.137  -9.802   0.080  1.00  0.00     0.198 C 
BRANCH  24  25
HETATM   25  O   UNL     1     -22.106 -11.192   0.408  1.00  0.00    -0.398 OA
HETATM   26  H   UNL     1     -21.630 -11.630  -0.323  1.00  0.00     0.209 HD
ENDBRANCH  24  25
ENDBRANCH   5  24
BRANCH   4  27
HETATM   27  O   UNL     1     -19.620 -10.953  -1.039  1.00  0.00    -0.390 OA
HETATM   28  H   UNL     1     -19.011 -10.207  -1.182  1.00  0.00     0.210 HD
ENDBRANCH   4  27
TORSDOF 17
ENDMDL
MODEL 8
REMARK VINA RESULT:      -5.8      5.848      9.561
REMARK  17 active torsions:
REMARK  status: ('A' for Active; 'I' for Inactive)
REMARK    1  A    between atoms: C_2  and  C_3 
REMARK    2  A    between atoms: C_3  and  C_4 
REMARK    3  A    between atoms: C_4  and  C_5 
REMARK    4  A    between atoms: C_5  and  C_6 
REMARK    5  A    between atoms: C_6  and  C_7 
REMARK    6  A    between atoms: C_7  and  C_8 
REMARK    7  A    between atoms: C_8  and  C_9 
REMARK    8  A    between atoms: C_9  and  C_10 
REMARK    9  A    between atoms: C_10  and  C_11 
REMARK   10  A    between atoms: C_11  and  C_12 
REMARK   11  A    between atoms: C_12  and  O_13 
REMARK   12  A    between atoms: O_13  and  C_14 
REMARK   13  A    between atoms: C_15  and  O_24 
REMARK   14  A    between atoms: C_16  and  O_23 
REMARK   15  A    between atoms: C_17  and  O_22 
REMARK   16  A    between atoms: C_18  and  C_20 
REMARK   17  A    between atoms: C_20  and  O_21 
ROOT
HETATM    1  C   UNL     1     -18.118 -10.046  -4.104  1.00  0.00     0.291 C 
HETATM    2  C   UNL     1     -18.678 -10.125  -5.545  1.00  0.00     0.204 C 
HETATM    3  C   UNL     1     -18.640 -11.570  -6.076  1.00  0.00     0.183 C 
HETATM    4  C   UNL     1     -17.276 -12.239  -5.842  1.00  0.00     0.180 C 
HETATM    5  C   UNL     1     -16.908 -12.099  -4.364  1.00  0.00     0.179 C 
HETATM    6  O   UNL     1     -16.830 -10.693  -4.032  1.00  0.00    -0.348 OA
ENDROOT
BRANCH   1   7
HETATM    7  O   UNL     1     -19.029 -10.580  -3.146  1.00  0.00    -0.359 OA
BRANCH   7   8
HETATM    8  C   UNL     1     -20.276  -9.878  -3.167  1.00  0.00     0.171 C 
BRANCH   8   9
HETATM    9  C   UNL     1     -20.714  -9.495  -1.752  1.00  0.00     0.026 C 
BRANCH   9  10
HETATM   10  C   UNL     1     -20.585  -8.005  -1.424  1.00  0.00     0.002 C 
BRANCH  10  11
HETATM   11  C   UNL     1     -21.921  -7.377  -1.041  1.00  0.00     0.000 C 
BRANCH  11  12
HETATM   12  C   UNL     1     -22.284  -6.200  -1.939  1.00  0.00     0.000 C 
BRANCH  12  13
HETATM   13  C   UNL     1     -21.312  -6.144  -3.113  1.00  0.00     0.000 C 
BRANCH  13  14
HETATM   14  C   UNL     1     -21.955  -6.631  -4.405  1.00  0.00     0.000 C 
BRANCH  14  15
HETATM   15  C   UNL     1     -20.974  -6.466  -5.564  1.00  0.00     0.000 C 
BRANCH  15  16
HETATM   16  C   UNL     1     -20.312  -5.093  -5.534  1.00  0.00     0.000 C 
BRANCH  16  17
HETATM   17  C   UNL     1     -19.726  -4.751  -6.900  1.00  0.00    -0.000 C 
BRANCH  17  18
HETATM   18  C   UNL     1     -20.711  -5.075  -8.017  1.00  0.00    -0.005 C 
HETATM   19  C   UNL     1     -21.738  -3.968  -8.182  1.00  0.00     0.005 C 
ENDBRANCH  17  18
ENDBRANCH  16  17
ENDBRANCH  15  16
ENDBRANCH  14  15
ENDBRANCH  13  14
ENDBRANCH  12  13
ENDBRANCH  11  12
ENDBRANCH  10  11
ENDBRANCH   9  10
ENDBRANCH   8   9
ENDBRANCH   7   8
ENDBRANCH   1   7
BRANCH   2  20
HETATM   20  O   UNL     1     -17.918  -9.259  -6.410  1.00  0.00    -0.388 OA
HETATM   21  H   UNL     1     -18.415  -9.169  -7.242  1.00  0.00     0.210 HD
ENDBRANCH   2  20
BRANCH   3  22
HETATM   22  O   UNL     1     -18.945 -11.594  -7.475  1.00  0.00    -0.390 OA
HETATM   23  H   UNL     1     -18.914 -10.654  -7.756  1.00  0.00     0.210 HD
ENDBRANCH   3  22
BRANCH   5  24
HETATM   24  C   UNL     1     -15.555 -12.730  -4.023  1.00  0.00     0.198 C 
BRANCH  24  25
HETATM   25  O   UNL     1     -14.501 -11.889  -4.495  1.00  0.00    -0.398 OA
HETATM   26  H   UNL     1     -14.116 -11.470  -3.702  1.00  0.00     0.209 HD
ENDBRANCH  24  25
ENDBRANCH   5  24
BRANCH   4  27
HETATM   27  O   UNL     1     -16.295 -11.616  -6.692  1.00  0.00    -0.390 OA
HETATM   28  H   UNL     1     -16.332 -10.653  -6.560  1.00  0.00     0.210 HD
ENDBRANCH   4  27
TORSDOF 17
ENDMDL
MODEL 9
REMARK VINA RESULT:      -5.8     16.841     19.175
REMARK  17 active torsions:
REMARK  status: ('A' for Active; 'I' for Inactive)
REMARK    1  A    between atoms: C_2  and  C_3 
REMARK    2  A    between atoms: C_3  and  C_4 
REMARK    3  A    between atoms: C_4  and  C_5 
REMARK    4  A    between atoms: C_5  and  C_6 
REMARK    5  A    between atoms: C_6  and  C_7 
REMARK    6  A    between atoms: C_7  and  C_8 
REMARK    7  A    between atoms: C_8  and  C_9 
REMARK    8  A    between atoms: C_9  and  C_10 
REMARK    9  A    between atoms: C_10  and  C_11 
REMARK   10  A    between atoms: C_11  and  C_12 
REMARK   11  A    between atoms: C_12  and  O_13 
REMARK   12  A    between atoms: O_13  and  C_14 
REMARK   13  A    between atoms: C_15  and  O_24 
REMARK   14  A    between atoms: C_16  and  O_23 
REMARK   15  A    between atoms: C_17  and  O_22 
REMARK   16  A    between atoms: C_18  and  C_20 
REMARK   17  A    between atoms: C_20  and  O_21 
ROOT
HETATM    1  C   UNL     1     -16.952   9.866   3.296  1.00  0.00     0.291 C 
HETATM    2  C   UNL     1     -16.052   9.509   2.090  1.00  0.00     0.204 C 
HETATM    3  C   UNL     1     -15.224   8.241   2.372  1.00  0.00     0.183 C 
HETATM    4  C   UNL     1     -14.530   8.294   3.743  1.00  0.00     0.180 C 
HETATM    5  C   UNL     1     -15.577   8.616   4.810  1.00  0.00     0.179 C 
HETATM    6  O   UNL     1     -16.173   9.900   4.510  1.00  0.00    -0.348 OA
ENDROOT
BRANCH   1   7
HETATM    7  O   UNL     1     -18.067   8.984   3.412  1.00  0.00    -0.359 OA
BRANCH   7   8
HETATM    8  C   UNL     1     -19.197   9.476   2.684  1.00  0.00     0.171 C 
BRANCH   8   9
HETATM    9  C   UNL     1     -20.365   8.491   2.754  1.00  0.00     0.026 C 
BRANCH   9  10
HETATM   10  C   UNL     1     -21.727   9.131   3.039  1.00  0.00     0.002 C 
BRANCH  10  11
HETATM   11  C   UNL     1     -22.572   9.282   1.779  1.00  0.00     0.000 C 
BRANCH  11  12
HETATM   12  C   UNL     1     -24.056   9.440   2.096  1.00  0.00     0.000 C 
BRANCH  12  13
HETATM   13  C   UNL     1     -24.879   8.782   0.994  1.00  0.00     0.000 C 
BRANCH  13  14
HETATM   14  C   UNL     1     -23.996   8.116  -0.053  1.00  0.00     0.000 C 
BRANCH  14  15
HETATM   15  C   UNL     1     -24.826   7.134  -0.878  1.00  0.00     0.000 C 
BRANCH  15  16
HETATM   16  C   UNL     1     -24.007   6.542  -2.018  1.00  0.00     0.000 C 
BRANCH  16  17
HETATM   17  C   UNL     1     -22.750   7.370  -2.262  1.00  0.00    -0.000 C 
BRANCH  17  18
HETATM   18  C   UNL     1     -22.845   8.137  -3.576  1.00  0.00    -0.005 C 
HETATM   19  C   UNL     1     -21.480   8.630  -4.024  1.00  0.00     0.005 C 
ENDBRANCH  17  18
ENDBRANCH  16  17
ENDBRANCH  15  16
ENDBRANCH  14  15
ENDBRANCH  13  14
ENDBRANCH  12  13
ENDBRANCH  11  12
ENDBRANCH  10  11
ENDBRANCH   9  10
ENDBRANCH   8   9
ENDBRANCH   7   8
ENDBRANCH   1   7
BRANCH   2  20
HETATM   20  O   UNL     1     -15.178  10.615   1.790  1.00  0.00    -0.388 OA
HETATM   21  H   UNL     1     -14.972  10.574   0.839  1.00  0.00     0.210 HD
ENDBRANCH   2  20
BRANCH   3  22
HETATM   22  O   UNL     1     -14.240   8.053   1.350  1.00  0.00    -0.390 OA
HETATM   23  H   UNL     1     -13.957   8.958   1.100  1.00  0.00     0.210 HD
ENDBRANCH   3  22
BRANCH   5  24
HETATM   24  C   UNL     1     -14.986   8.701   6.221  1.00  0.00     0.198 C 
BRANCH  24  25
HETATM   25  O   UNL     1     -13.709   8.061   6.244  1.00  0.00    -0.398 OA
HETATM   26  H   UNL     1     -13.879   7.131   6.488  1.00  0.00     0.209 HD
ENDBRANCH  24  25
ENDBRANCH   5  24
BRANCH   4  27
HETATM   27  O   UNL     1     -13.490   9.290   3.705  1.00  0.00    -0.390 OA
HETATM   28  H   UNL     1     -13.361   9.573   2.783  1.00  0.00     0.210 HD
ENDBRANCH   4  27
TORSDOF 17
ENDMDL
