MODEL 1
REMARK VINA RESULT:      -6.3      0.000      0.000
REMARK  18 active torsions:
REMARK  status: ('A' for Active; 'I' for Inactive)
REMARK    1  A    between atoms: C_2  and  C_3 
REMARK    2  A    between atoms: C_3  and  C_4 
REMARK    3  A    between atoms: C_4  and  C_5 
REMARK    4  A    between atoms: C_5  and  C_6 
REMARK    5  A    between atoms: C_6  and  C_7 
REMARK    6  A    between atoms: C_7  and  C_8 
REMARK    7  A    between atoms: C_8  and  C_9 
REMARK    8  A    between atoms: C_9  and  C_10 
REMARK    9  A    between atoms: C_10  and  C_11 
REMARK   10  A    between atoms: C_11  and  C_12 
REMARK   11  A    between atoms: C_11  and  C_20 
REMARK   12  A    between atoms: C_12  and  C_13 
REMARK   13  A    between atoms: C_13  and  C_14 
REMARK   14  A    between atoms: C_14  and  C_15 
REMARK   15  A    between atoms: C_15  and  C_16 
REMARK   16  A    between atoms: C_16  and  C_17 
REMARK   17  A    between atoms: C_17  and  C_18 
REMARK   18  A    between atoms: C_20  and  O_21 
ROOT
HETATM    1  C   UNL     1     -20.633  -6.793  -5.224  1.00  0.00     0.009 C 
ENDROOT
BRANCH   1   2
HETATM    2  C   UNL     1     -20.855  -6.059  -6.575  1.00  0.00     0.007 C 
BRANCH   2   3
HETATM    3  C   UNL     1     -20.343  -4.620  -6.585  1.00  0.00     0.000 C 
BRANCH   3   4
HETATM    4  C   UNL     1     -21.367  -3.634  -7.153  1.00  0.00     0.000 C 
BRANCH   4   5
HETATM    5  C   UNL     1     -22.585  -4.414  -7.651  1.00  0.00     0.000 C 
BRANCH   5   6
HETATM    6  C   UNL     1     -23.370  -3.663  -8.717  1.00  0.00     0.000 C 
BRANCH   6   7
HETATM    7  C   UNL     1     -23.911  -4.636  -9.762  1.00  0.00     0.000 C 
BRANCH   7   8
HETATM    8  C   UNL     1     -23.512  -4.208 -11.170  1.00  0.00     0.000 C 
BRANCH   8   9
HETATM    9  C   UNL     1     -22.293  -3.284 -11.151  1.00  0.00    -0.000 C 
BRANCH   9  10
HETATM   10  C   UNL     1     -21.056  -4.014 -11.677  1.00  0.00    -0.005 C 
HETATM   11  C   UNL     1     -20.177  -4.502 -10.538  1.00  0.00     0.005 C 
ENDBRANCH   9  10
ENDBRANCH   8   9
ENDBRANCH   7   8
ENDBRANCH   6   7
ENDBRANCH   5   6
ENDBRANCH   4   5
ENDBRANCH   3   4
ENDBRANCH   2   3
ENDBRANCH   1   2
BRANCH   1  12
HETATM   12  C   UNL     1     -21.183  -5.980  -4.026  1.00  0.00     0.007 C 
BRANCH  12  13
HETATM   13  C   UNL     1     -22.160  -6.767  -3.136  1.00  0.00     0.000 C 
BRANCH  13  14
HETATM   14  C   UNL     1     -21.547  -7.257  -1.820  1.00  0.00     0.000 C 
BRANCH  14  15
HETATM   15  C   UNL     1     -22.432  -6.950  -0.614  1.00  0.00     0.000 C 
BRANCH  15  16
HETATM   16  C   UNL     1     -22.493  -8.113   0.369  1.00  0.00     0.000 C 
BRANCH  16  17
HETATM   17  C   UNL     1     -22.422  -9.446  -0.379  1.00  0.00    -0.000 C 
BRANCH  17  18
HETATM   18  C   UNL     1     -23.659 -10.297  -0.113  1.00  0.00    -0.005 C 
HETATM   19  C   UNL     1     -23.876 -11.315  -1.220  1.00  0.00     0.005 C 
ENDBRANCH  17  18
ENDBRANCH  16  17
ENDBRANCH  15  16
ENDBRANCH  14  15
ENDBRANCH  13  14
ENDBRANCH  12  13
ENDBRANCH   1  12
BRANCH   1  20
HETATM   20  C   UNL     1     -21.281  -8.190  -5.286  1.00  0.00     0.168 C 
BRANCH  20  21
HETATM   21  O   UNL     1     -20.349  -9.177  -5.705  1.00  0.00    -0.400 OA
HETATM   22  H   UNL     1     -20.673 -10.042  -5.405  1.00  0.00     0.209 HD
ENDBRANCH  20  21
ENDBRANCH   1  20
TORSDOF 18
ENDMDL
MODEL 2
REMARK VINA RESULT:      -6.3      1.030      1.688
REMARK  18 active torsions:
REMARK  status: ('A' for Active; 'I' for Inactive)
REMARK    1  A    between atoms: C_2  and  C_3 
REMARK    2  A    between atoms: C_3  and  C_4 
REMARK    3  A    between atoms: C_4  and  C_5 
REMARK    4  A    between atoms: C_5  and  C_6 
REMARK    5  A    between atoms: C_6  and  C_7 
REMARK    6  A    between atoms: C_7  and  C_8 
REMARK    7  A    between atoms: C_8  and  C_9 
REMARK    8  A    between atoms: C_9  and  C_10 
REMARK    9  A    between atoms: C_10  and  C_11 
REMARK   10  A    between atoms: C_11  and  C_12 
REMARK   11  A    between atoms: C_11  and  C_20 
REMARK   12  A    between atoms: C_12  and  C_13 
REMARK   13  A    between atoms: C_13  and  C_14 
REMARK   14  A    between atoms: C_14  and  C_15 
REMARK   15  A    between atoms: C_15  and  C_16 
REMARK   16  A    between atoms: C_16  and  C_17 
REMARK   17  A    between atoms: C_17  and  C_18 
REMARK   18  A    between atoms: C_20  and  O_21 
ROOT
HETATM    1  C   UNL     1     -20.385  -7.116  -4.841  1.00  0.00     0.009 C 
ENDROOT
BRANCH   1   2
HETATM    2  C   UNL     1     -20.527  -6.287  -6.147  1.00  0.00     0.007 C 
BRANCH   2   3
HETATM    3  C   UNL     1     -20.379  -4.781  -5.938  1.00  0.00     0.000 C 
BRANCH   3   4
HETATM    4  C   UNL     1     -20.748  -3.974  -7.186  1.00  0.00     0.000 C 
BRANCH   4   5
HETATM    5  C   UNL     1     -19.753  -4.301  -8.301  1.00  0.00     0.000 C 
BRANCH   5   6
HETATM    6  C   UNL     1     -20.408  -4.370  -9.673  1.00  0.00     0.000 C 
BRANCH   6   7
HETATM    7  C   UNL     1     -21.921  -4.528  -9.533  1.00  0.00     0.000 C 
BRANCH   7   8
HETATM    8  C   UNL     1     -22.662  -3.538 -10.425  1.00  0.00     0.000 C 
BRANCH   8   9
HETATM    9  C   UNL     1     -21.858  -3.207 -11.683  1.00  0.00    -0.000 C 
BRANCH   9  10
HETATM   10  C   UNL     1     -22.792  -2.918 -12.859  1.00  0.00    -0.005 C 
HETATM   11  C   UNL     1     -24.249  -2.966 -12.431  1.00  0.00     0.005 C 
ENDBRANCH   9  10
ENDBRANCH   8   9
ENDBRANCH   7   8
ENDBRANCH   6   7
ENDBRANCH   5   6
ENDBRANCH   4   5
ENDBRANCH   3   4
ENDBRANCH   2   3
ENDBRANCH   1   2
BRANCH   1  12
HETATM   12  C   UNL     1     -21.693  -7.123  -4.014  1.00  0.00     0.007 C 
BRANCH  12  13
HETATM   13  C   UNL     1     -21.573  -6.418  -2.651  1.00  0.00     0.000 C 
BRANCH  13  14
HETATM   14  C   UNL     1     -21.470  -7.378  -1.461  1.00  0.00     0.000 C 
BRANCH  14  15
HETATM   15  C   UNL     1     -22.624  -7.210  -0.474  1.00  0.00     0.000 C 
BRANCH  15  16
HETATM   16  C   UNL     1     -22.646  -8.308   0.582  1.00  0.00     0.000 C 
BRANCH  16  17
HETATM   17  C   UNL     1     -22.458  -9.678  -0.072  1.00  0.00    -0.000 C 
BRANCH  17  18
HETATM   18  C   UNL     1     -23.766 -10.461  -0.103  1.00  0.00    -0.005 C 
HETATM   19  C   UNL     1     -23.869 -11.313  -1.357  1.00  0.00     0.005 C 
ENDBRANCH  17  18
ENDBRANCH  16  17
ENDBRANCH  15  16
ENDBRANCH  14  15
ENDBRANCH  13  14
ENDBRANCH  12  13
ENDBRANCH   1  12
BRANCH   1  20
HETATM   20  C   UNL     1     -19.947  -8.553  -5.191  1.00  0.00     0.168 C 
BRANCH  20  21
HETATM   21  O   UNL     1     -20.983  -9.265  -5.853  1.00  0.00    -0.400 OA
HETATM   22  H   UNL     1     -20.664 -10.166  -6.027  1.00  0.00     0.209 HD
ENDBRANCH  20  21
ENDBRANCH   1  20
TORSDOF 18
ENDMDL
MODEL 3
REMARK VINA RESULT:      -6.1      1.068      8.626
REMARK  18 active torsions:
REMARK  status: ('A' for Active; 'I' for Inactive)
REMARK    1  A    between atoms: C_2  and  C_3 
REMARK    2  A    between atoms: C_3  and  C_4 
REMARK    3  A    between atoms: C_4  and  C_5 
REMARK    4  A    between atoms: C_5  and  C_6 
REMARK    5  A    between atoms: C_6  and  C_7 
REMARK    6  A    between atoms: C_7  and  C_8 
REMARK    7  A    between atoms: C_8  and  C_9 
REMARK    8  A    between atoms: C_9  and  C_10 
REMARK    9  A    between atoms: C_10  and  C_11 
REMARK   10  A    between atoms: C_11  and  C_12 
REMARK   11  A    between atoms: C_11  and  C_20 
REMARK   12  A    between atoms: C_12  and  C_13 
REMARK   13  A    between atoms: C_13  and  C_14 
REMARK   14  A    between atoms: C_14  and  C_15 
REMARK   15  A    between atoms: C_15  and  C_16 
REMARK   16  A    between atoms: C_16  and  C_17 
REMARK   17  A    between atoms: C_17  and  C_18 
REMARK   18  A    between atoms: C_20  and  O_21 
ROOT
HETATM    1  C   UNL     1     -21.254  -6.991  -5.780  1.00  0.00     0.009 C 
ENDROOT
BRANCH   1   2
HETATM    2  C   UNL     1     -22.029  -6.332  -4.605  1.00  0.00     0.007 C 
BRANCH   2   3
HETATM    3  C   UNL     1     -21.243  -6.293  -3.296  1.00  0.00     0.000 C 
BRANCH   3   4
HETATM    4  C   UNL     1     -22.149  -6.357  -2.063  1.00  0.00     0.000 C 
BRANCH   4   5
HETATM    5  C   UNL     1     -21.832  -7.631  -1.280  1.00  0.00     0.000 C 
BRANCH   5   6
HETATM    6  C   UNL     1     -22.396  -7.609   0.134  1.00  0.00     0.000 C 
BRANCH   6   7
HETATM    7  C   UNL     1     -23.375  -8.763   0.333  1.00  0.00     0.000 C 
BRANCH   7   8
HETATM    8  C   UNL     1     -22.750 -10.093  -0.075  1.00  0.00     0.000 C 
BRANCH   8   9
HETATM    9  C   UNL     1     -23.698 -10.910  -0.955  1.00  0.00    -0.000 C 
BRANCH   9  10
HETATM   10  C   UNL     1     -22.915 -11.669  -2.028  1.00  0.00    -0.005 C 
HETATM   11  C   UNL     1     -22.726 -10.824  -3.276  1.00  0.00     0.005 C 
ENDBRANCH   9  10
ENDBRANCH   8   9
ENDBRANCH   7   8
ENDBRANCH   6   7
ENDBRANCH   5   6
ENDBRANCH   4   5
ENDBRANCH   3   4
ENDBRANCH   2   3
ENDBRANCH   1   2
BRANCH   1  12
HETATM   12  C   UNL     1     -20.117  -6.081  -6.306  1.00  0.00     0.007 C 
BRANCH  12  13
HETATM   13  C   UNL     1     -20.555  -4.632  -6.582  1.00  0.00     0.000 C 
BRANCH  13  14
HETATM   14  C   UNL     1     -19.972  -4.041  -7.871  1.00  0.00     0.000 C 
BRANCH  14  15
HETATM   15  C   UNL     1     -20.152  -4.968  -9.071  1.00  0.00     0.000 C 
BRANCH  15  16
HETATM   16  C   UNL     1     -20.413  -4.200 -10.361  1.00  0.00     0.000 C 
BRANCH  16  17
HETATM   17  C   UNL     1     -21.838  -3.641 -10.367  1.00  0.00    -0.000 C 
BRANCH  17  18
HETATM   18  C   UNL     1     -22.842  -4.681  -9.882  1.00  0.00    -0.005 C 
HETATM   19  C   UNL     1     -23.863  -4.064  -8.940  1.00  0.00     0.005 C 
ENDBRANCH  17  18
ENDBRANCH  16  17
ENDBRANCH  15  16
ENDBRANCH  14  15
ENDBRANCH  13  14
ENDBRANCH  12  13
ENDBRANCH   1  12
BRANCH   1  20
HETATM   20  C   UNL     1     -20.702  -8.358  -5.329  1.00  0.00     0.168 C 
BRANCH  20  21
HETATM   21  O   UNL     1     -19.333  -8.506  -5.679  1.00  0.00    -0.400 OA
HETATM   22  H   UNL     1     -19.252  -9.290  -6.247  1.00  0.00     0.209 HD
ENDBRANCH  20  21
ENDBRANCH   1  20
TORSDOF 18
ENDMDL
MODEL 4
REMARK VINA RESULT:      -6.1      1.703      3.073
REMARK  18 active torsions:
REMARK  status: ('A' for Active; 'I' for Inactive)
REMARK    1  A    between atoms: C_2  and  C_3 
REMARK    2  A    between atoms: C_3  and  C_4 
REMARK    3  A    between atoms: C_4  and  C_5 
REMARK    4  A    between atoms: C_5  and  C_6 
REMARK    5  A    between atoms: C_6  and  C_7 
REMARK    6  A    between atoms: C_7  and  C_8 
REMARK    7  A    between atoms: C_8  and  C_9 
REMARK    8  A    between atoms: C_9  and  C_10 
REMARK    9  A    between atoms: C_10  and  C_11 
REMARK   10  A    between atoms: C_11  and  C_12 
REMARK   11  A    between atoms: C_11  and  C_20 
REMARK   12  A    between atoms: C_12  and  C_13 
REMARK   13  A    between atoms: C_13  and  C_14 
REMARK   14  A    between atoms: C_14  and  C_15 
REMARK   15  A    between atoms: C_15  and  C_16 
REMARK   16  A    between atoms: C_16  and  C_17 
REMARK   17  A    between atoms: C_17  and  C_18 
REMARK   18  A    between atoms: C_20  and  O_21 
ROOT
HETATM    1  C   UNL     1     -21.426  -7.197  -3.665  1.00  0.00     0.009 C 
ENDROOT
BRANCH   1   2
HETATM    2  C   UNL     1     -20.633  -6.859  -4.958  1.00  0.00     0.007 C 
BRANCH   2   3
HETATM    3  C   UNL     1     -21.478  -6.188  -6.039  1.00  0.00     0.000 C 
BRANCH   3   4
HETATM    4  C   UNL     1     -20.667  -5.847  -7.293  1.00  0.00     0.000 C 
BRANCH   4   5
HETATM    5  C   UNL     1     -20.123  -4.424  -7.161  1.00  0.00     0.000 C 
BRANCH   5   6
HETATM    6  C   UNL     1     -19.720  -3.821  -8.499  1.00  0.00     0.000 C 
BRANCH   6   7
HETATM    7  C   UNL     1     -20.070  -4.775  -9.639  1.00  0.00     0.000 C 
BRANCH   7   8
HETATM    8  C   UNL     1     -20.599  -4.014 -10.850  1.00  0.00     0.000 C 
BRANCH   8   9
HETATM    9  C   UNL     1     -21.996  -3.449 -10.588  1.00  0.00    -0.000 C 
BRANCH   9  10
HETATM   10  C   UNL     1     -22.931  -4.542 -10.069  1.00  0.00    -0.005 C 
HETATM   11  C   UNL     1     -23.613  -4.119  -8.779  1.00  0.00     0.005 C 
ENDBRANCH   9  10
ENDBRANCH   8   9
ENDBRANCH   7   8
ENDBRANCH   6   7
ENDBRANCH   5   6
ENDBRANCH   4   5
ENDBRANCH   3   4
ENDBRANCH   2   3
ENDBRANCH   1   2
BRANCH   1  12
HETATM   12  C   UNL     1     -20.892  -8.477  -2.977  1.00  0.00     0.007 C 
BRANCH  12  13
HETATM   13  C   UNL     1     -21.617  -9.764  -3.408  1.00  0.00     0.000 C 
BRANCH  13  14
HETATM   14  C   UNL     1     -21.778 -10.794  -2.283  1.00  0.00     0.000 C 
BRANCH  14  15
HETATM   15  C   UNL     1     -23.200 -10.830  -1.726  1.00  0.00     0.000 C 
BRANCH  15  16
HETATM   16  C   UNL     1     -23.240 -10.558  -0.227  1.00  0.00     0.000 C 
BRANCH  16  17
HETATM   17  C   UNL     1     -21.860 -10.126   0.272  1.00  0.00    -0.000 C 
BRANCH  17  18
HETATM   18  C   UNL     1     -21.821  -8.630   0.565  1.00  0.00    -0.005 C 
HETATM   19  C   UNL     1     -23.222  -8.066   0.738  1.00  0.00     0.005 C 
ENDBRANCH  17  18
ENDBRANCH  16  17
ENDBRANCH  15  16
ENDBRANCH  14  15
ENDBRANCH  13  14
ENDBRANCH  12  13
ENDBRANCH   1  12
BRANCH   1  20
HETATM   20  C   UNL     1     -21.377  -5.993  -2.703  1.00  0.00     0.168 C 
BRANCH  20  21
HETATM   21  O   UNL     1     -22.606  -5.836  -2.006  1.00  0.00    -0.400 OA
HETATM   22  H   UNL     1     -23.096  -6.672  -2.070  1.00  0.00     0.209 HD
ENDBRANCH  20  21
ENDBRANCH   1  20
TORSDOF 18
ENDMDL
MODEL 5
REMARK VINA RESULT:      -6.0      1.534      8.559
REMARK  18 active torsions:
REMARK  status: ('A' for Active; 'I' for Inactive)
REMARK    1  A    between atoms: C_2  and  C_3 
REMARK    2  A    between atoms: C_3  and  C_4 
REMARK    3  A    between atoms: C_4  and  C_5 
REMARK    4  A    between atoms: C_5  and  C_6 
REMARK    5  A    between atoms: C_6  and  C_7 
REMARK    6  A    between atoms: C_7  and  C_8 
REMARK    7  A    between atoms: C_8  and  C_9 
REMARK    8  A    between atoms: C_9  and  C_10 
REMARK    9  A    between atoms: C_10  and  C_11 
REMARK   10  A    between atoms: C_11  and  C_12 
REMARK   11  A    between atoms: C_11  and  C_20 
REMARK   12  A    between atoms: C_12  and  C_13 
REMARK   13  A    between atoms: C_13  and  C_14 
REMARK   14  A    between atoms: C_14  and  C_15 
REMARK   15  A    between atoms: C_15  and  C_16 
REMARK   16  A    between atoms: C_16  and  C_17 
REMARK   17  A    between atoms: C_17  and  C_18 
REMARK   18  A    between atoms: C_20  and  O_21 
ROOT
HETATM    1  C   UNL     1     -21.496  -7.876  -4.267  1.00  0.00     0.009 C 
ENDROOT
BRANCH   1   2
HETATM    2  C   UNL     1     -21.092  -7.472  -2.822  1.00  0.00     0.007 C 
BRANCH   2   3
HETATM    3  C   UNL     1     -22.023  -6.439  -2.190  1.00  0.00     0.000 C 
BRANCH   3   4
HETATM    4  C   UNL     1     -22.370  -6.770  -0.736  1.00  0.00     0.000 C 
BRANCH   4   5
HETATM    5  C   UNL     1     -21.890  -8.187  -0.421  1.00  0.00     0.000 C 
BRANCH   5   6
HETATM    6  C   UNL     1     -23.025  -9.118  -0.021  1.00  0.00     0.000 C 
BRANCH   6   7
HETATM    7  C   UNL     1     -22.687 -10.560  -0.395  1.00  0.00     0.000 C 
BRANCH   7   8
HETATM    8  C   UNL     1     -22.936 -10.817  -1.877  1.00  0.00     0.000 C 
BRANCH   8   9
HETATM    9  C   UNL     1     -21.649 -11.220  -2.599  1.00  0.00    -0.000 C 
BRANCH   9  10
HETATM   10  C   UNL     1     -20.497 -11.368  -1.604  1.00  0.00    -0.005 C 
HETATM   11  C   UNL     1     -19.269 -10.600  -2.063  1.00  0.00     0.005 C 
ENDBRANCH   9  10
ENDBRANCH   8   9
ENDBRANCH   7   8
ENDBRANCH   6   7
ENDBRANCH   5   6
ENDBRANCH   4   5
ENDBRANCH   3   4
ENDBRANCH   2   3
ENDBRANCH   1   2
BRANCH   1  12
HETATM   12  C   UNL     1     -22.043  -6.673  -5.073  1.00  0.00     0.007 C 
BRANCH  12  13
HETATM   13  C   UNL     1     -21.113  -6.208  -6.208  1.00  0.00     0.000 C 
BRANCH  13  14
HETATM   14  C   UNL     1     -20.573  -4.785  -6.026  1.00  0.00     0.000 C 
BRANCH  14  15
HETATM   15  C   UNL     1     -20.866  -3.892  -7.230  1.00  0.00     0.000 C 
BRANCH  15  16
HETATM   16  C   UNL     1     -19.745  -3.927  -8.262  1.00  0.00     0.000 C 
BRANCH  16  17
HETATM   17  C   UNL     1     -20.285  -4.390  -9.617  1.00  0.00    -0.000 C 
BRANCH  17  18
HETATM   18  C   UNL     1     -21.750  -4.003  -9.791  1.00  0.00    -0.005 C 
HETATM   19  C   UNL     1     -21.988  -3.337 -11.136  1.00  0.00     0.005 C 
ENDBRANCH  17  18
ENDBRANCH  16  17
ENDBRANCH  15  16
ENDBRANCH  14  15
ENDBRANCH  13  14
ENDBRANCH  12  13
ENDBRANCH   1  12
BRANCH   1  20
HETATM   20  C   UNL     1     -20.285  -8.512  -4.980  1.00  0.00     0.168 C 
BRANCH  20  21
HETATM   21  O   UNL     1     -20.654  -9.697  -5.672  1.00  0.00    -0.400 OA
HETATM   22  H   UNL     1     -20.008  -9.842  -6.383  1.00  0.00     0.209 HD
ENDBRANCH  20  21
ENDBRANCH   1  20
TORSDOF 18
ENDMDL
MODEL 6
REMARK VINA RESULT:      -5.9      2.030      9.720
REMARK  18 active torsions:
REMARK  status: ('A' for Active; 'I' for Inactive)
REMARK    1  A    between atoms: C_2  and  C_3 
REMARK    2  A    between atoms: C_3  and  C_4 
REMARK    3  A    between atoms: C_4  and  C_5 
REMARK    4  A    between atoms: C_5  and  C_6 
REMARK    5  A    between atoms: C_6  and  C_7 
REMARK    6  A    between atoms: C_7  and  C_8 
REMARK    7  A    between atoms: C_8  and  C_9 
REMARK    8  A    between atoms: C_9  and  C_10 
REMARK    9  A    between atoms: C_10  and  C_11 
REMARK   10  A    between atoms: C_11  and  C_12 
REMARK   11  A    between atoms: C_11  and  C_20 
REMARK   12  A    between atoms: C_12  and  C_13 
REMARK   13  A    between atoms: C_13  and  C_14 
REMARK   14  A    between atoms: C_14  and  C_15 
REMARK   15  A    between atoms: C_15  and  C_16 
REMARK   16  A    between atoms: C_16  and  C_17 
REMARK   17  A    between atoms: C_17  and  C_18 
REMARK   18  A    between atoms: C_20  and  O_21 
ROOT
HETATM    1  C   UNL     1     -21.558  -4.960  -7.607  1.00  0.00     0.009 C 
ENDROOT
BRANCH   1   2
HETATM    2  C   UNL     1     -20.911  -4.373  -6.323  1.00  0.00     0.007 C 
BRANCH   2   3
HETATM    3  C   UNL     1     -20.034  -5.368  -5.566  1.00  0.00     0.000 C 
BRANCH   3   4
HETATM    4  C   UNL     1     -20.773  -6.666  -5.228  1.00  0.00     0.000 C 
BRANCH   4   5
HETATM    5  C   UNL     1     -22.016  -6.330  -4.403  1.00  0.00     0.000 C 
BRANCH   5   6
HETATM    6  C   UNL     1     -21.810  -6.547  -2.911  1.00  0.00     0.000 C 
BRANCH   6   7
HETATM    7  C   UNL     1     -21.275  -7.953  -2.647  1.00  0.00     0.000 C 
BRANCH   7   8
HETATM    8  C   UNL     1     -21.239  -8.256  -1.153  1.00  0.00     0.000 C 
BRANCH   8   9
HETATM    9  C   UNL     1     -22.163  -7.321  -0.370  1.00  0.00    -0.000 C 
BRANCH   9  10
HETATM   10  C   UNL     1     -23.227  -8.123   0.382  1.00  0.00    -0.005 C 
HETATM   11  C   UNL     1     -23.140  -9.603   0.050  1.00  0.00     0.005 C 
ENDBRANCH   9  10
ENDBRANCH   8   9
ENDBRANCH   7   8
ENDBRANCH   6   7
ENDBRANCH   5   6
ENDBRANCH   4   5
ENDBRANCH   3   4
ENDBRANCH   2   3
ENDBRANCH   1   2
BRANCH   1  12
HETATM   12  C   UNL     1     -22.970  -4.378  -7.862  1.00  0.00     0.007 C 
BRANCH  12  13
HETATM   13  C   UNL     1     -23.104  -3.632  -9.201  1.00  0.00     0.000 C 
BRANCH  13  14
HETATM   14  C   UNL     1     -23.994  -4.345 -10.224  1.00  0.00     0.000 C 
BRANCH  14  15
HETATM   15  C   UNL     1     -23.240  -4.704 -11.503  1.00  0.00     0.000 C 
BRANCH  15  16
HETATM   16  C   UNL     1     -22.381  -3.553 -12.011  1.00  0.00     0.000 C 
BRANCH  16  17
HETATM   17  C   UNL     1     -23.238  -2.555 -12.792  1.00  0.00    -0.000 C 
BRANCH  17  18
HETATM   18  C   UNL     1     -23.252  -2.883 -14.281  1.00  0.00    -0.005 C 
HETATM   19  C   UNL     1     -23.084  -1.630 -15.124  1.00  0.00     0.005 C 
ENDBRANCH  17  18
ENDBRANCH  16  17
ENDBRANCH  15  16
ENDBRANCH  14  15
ENDBRANCH  13  14
ENDBRANCH  12  13
ENDBRANCH   1  12
BRANCH   1  20
HETATM   20  C   UNL     1     -20.632  -4.706  -8.812  1.00  0.00     0.168 C 
BRANCH  20  21
HETATM   21  O   UNL     1     -19.647  -3.726  -8.513  1.00  0.00    -0.400 OA
HETATM   22  H   UNL     1     -18.906  -3.848  -9.128  1.00  0.00     0.209 HD
ENDBRANCH  20  21
ENDBRANCH   1  20
TORSDOF 18
ENDMDL
MODEL 7
REMARK VINA RESULT:      -5.8      1.426      2.437
REMARK  18 active torsions:
REMARK  status: ('A' for Active; 'I' for Inactive)
REMARK    1  A    between atoms: C_2  and  C_3 
REMARK    2  A    between atoms: C_3  and  C_4 
REMARK    3  A    between atoms: C_4  and  C_5 
REMARK    4  A    between atoms: C_5  and  C_6 
REMARK    5  A    between atoms: C_6  and  C_7 
REMARK    6  A    between atoms: C_7  and  C_8 
REMARK    7  A    between atoms: C_8  and  C_9 
REMARK    8  A    between atoms: C_9  and  C_10 
REMARK    9  A    between atoms: C_10  and  C_11 
REMARK   10  A    between atoms: C_11  and  C_12 
REMARK   11  A    between atoms: C_11  and  C_20 
REMARK   12  A    between atoms: C_12  and  C_13 
REMARK   13  A    between atoms: C_13  and  C_14 
REMARK   14  A    between atoms: C_14  and  C_15 
REMARK   15  A    between atoms: C_15  and  C_16 
REMARK   16  A    between atoms: C_16  and  C_17 
REMARK   17  A    between atoms: C_17  and  C_18 
REMARK   18  A    between atoms: C_20  and  O_21 
ROOT
HETATM    1  C   UNL     1     -21.288  -7.561  -4.921  1.00  0.00     0.009 C 
ENDROOT
BRANCH   1   2
HETATM    2  C   UNL     1     -20.084  -6.985  -5.715  1.00  0.00     0.007 C 
BRANCH   2   3
HETATM    3  C   UNL     1     -20.133  -5.469  -5.893  1.00  0.00     0.000 C 
BRANCH   3   4
HETATM    4  C   UNL     1     -19.769  -5.031  -7.315  1.00  0.00     0.000 C 
BRANCH   4   5
HETATM    5  C   UNL     1     -20.822  -4.041  -7.815  1.00  0.00     0.000 C 
BRANCH   5   6
HETATM    6  C   UNL     1     -22.240  -4.454  -7.448  1.00  0.00     0.000 C 
BRANCH   6   7
HETATM    7  C   UNL     1     -23.237  -3.884  -8.455  1.00  0.00     0.000 C 
BRANCH   7   8
HETATM    8  C   UNL     1     -23.156  -4.621  -9.787  1.00  0.00     0.000 C 
BRANCH   8   9
HETATM    9  C   UNL     1     -22.855  -3.662 -10.940  1.00  0.00    -0.000 C 
BRANCH   9  10
HETATM   10  C   UNL     1     -21.642  -4.143 -11.738  1.00  0.00    -0.005 C 
HETATM   11  C   UNL     1     -20.370  -3.448 -11.282  1.00  0.00     0.005 C 
ENDBRANCH   9  10
ENDBRANCH   8   9
ENDBRANCH   7   8
ENDBRANCH   6   7
ENDBRANCH   5   6
ENDBRANCH   4   5
ENDBRANCH   3   4
ENDBRANCH   2   3
ENDBRANCH   1   2
BRANCH   1  12
HETATM   12  C   UNL     1     -20.841  -8.604  -3.867  1.00  0.00     0.007 C 
BRANCH  12  13
HETATM   13  C   UNL     1     -21.907  -9.668  -3.552  1.00  0.00     0.000 C 
BRANCH  13  14
HETATM   14  C   UNL     1     -21.546 -10.582  -2.376  1.00  0.00     0.000 C 
BRANCH  14  15
HETATM   15  C   UNL     1     -22.780 -11.126  -1.659  1.00  0.00     0.000 C 
BRANCH  15  16
HETATM   16  C   UNL     1     -23.264 -10.194  -0.554  1.00  0.00     0.000 C 
BRANCH  16  17
HETATM   17  C   UNL     1     -22.072  -9.561   0.167  1.00  0.00    -0.000 C 
BRANCH  17  18
HETATM   18  C   UNL     1     -22.370  -8.121   0.569  1.00  0.00    -0.005 C 
HETATM   19  C   UNL     1     -22.413  -7.207  -0.645  1.00  0.00     0.005 C 
ENDBRANCH  17  18
ENDBRANCH  16  17
ENDBRANCH  15  16
ENDBRANCH  14  15
ENDBRANCH  13  14
ENDBRANCH  12  13
ENDBRANCH   1  12
BRANCH   1  20
HETATM   20  C   UNL     1     -22.065  -6.406  -4.257  1.00  0.00     0.168 C 
BRANCH  20  21
HETATM   21  O   UNL     1     -23.348  -6.238  -4.846  1.00  0.00    -0.400 OA
HETATM   22  H   UNL     1     -23.701  -5.381  -4.555  1.00  0.00     0.209 HD
ENDBRANCH  20  21
ENDBRANCH   1  20
TORSDOF 18
ENDMDL
MODEL 8
REMARK VINA RESULT:      -5.8      1.518      9.721
REMARK  18 active torsions:
REMARK  status: ('A' for Active; 'I' for Inactive)
REMARK    1  A    between atoms: C_2  and  C_3 
REMARK    2  A    between atoms: C_3  and  C_4 
REMARK    3  A    between atoms: C_4  and  C_5 
REMARK    4  A    between atoms: C_5  and  C_6 
REMARK    5  A    between atoms: C_6  and  C_7 
REMARK    6  A    between atoms: C_7  and  C_8 
REMARK    7  A    between atoms: C_8  and  C_9 
REMARK    8  A    between atoms: C_9  and  C_10 
REMARK    9  A    between atoms: C_10  and  C_11 
REMARK   10  A    between atoms: C_11  and  C_12 
REMARK   11  A    between atoms: C_11  and  C_20 
REMARK   12  A    between atoms: C_12  and  C_13 
REMARK   13  A    between atoms: C_13  and  C_14 
REMARK   14  A    between atoms: C_14  and  C_15 
REMARK   15  A    between atoms: C_15  and  C_16 
REMARK   16  A    between atoms: C_16  and  C_17 
REMARK   17  A    between atoms: C_17  and  C_18 
REMARK   18  A    between atoms: C_20  and  O_21 
ROOT
HETATM    1  C   UNL     1     -21.328  -7.325  -4.836  1.00  0.00     0.009 C 
ENDROOT
BRANCH   1   2
HETATM    2  C   UNL     1     -21.536  -6.379  -3.621  1.00  0.00     0.007 C 
BRANCH   2   3
HETATM    3  C   UNL     1     -21.243  -7.035  -2.274  1.00  0.00     0.000 C 
BRANCH   3   4
HETATM    4  C   UNL     1     -22.304  -6.712  -1.218  1.00  0.00     0.000 C 
BRANCH   4   5
HETATM    5  C   UNL     1     -22.541  -7.952  -0.355  1.00  0.00     0.000 C 
BRANCH   5   6
HETATM    6  C   UNL     1     -21.830  -9.186  -0.891  1.00  0.00     0.000 C 
BRANCH   6   7
HETATM    7  C   UNL     1     -22.845 -10.258  -1.280  1.00  0.00     0.000 C 
BRANCH   7   8
HETATM    8  C   UNL     1     -23.588 -10.783  -0.057  1.00  0.00     0.000 C 
BRANCH   8   9
HETATM    9  C   UNL     1     -23.670 -12.311  -0.064  1.00  0.00    -0.000 C 
BRANCH   9  10
HETATM   10  C   UNL     1     -22.697 -12.907   0.955  1.00  0.00    -0.005 C 
HETATM   11  C   UNL     1     -23.428 -13.740   1.994  1.00  0.00     0.005 C 
ENDBRANCH   9  10
ENDBRANCH   8   9
ENDBRANCH   7   8
ENDBRANCH   6   7
ENDBRANCH   5   6
ENDBRANCH   4   5
ENDBRANCH   3   4
ENDBRANCH   2   3
ENDBRANCH   1   2
BRANCH   1  12
HETATM   12  C   UNL     1     -20.947  -6.545  -6.118  1.00  0.00     0.007 C 
BRANCH  12  13
HETATM   13  C   UNL     1     -21.646  -5.181  -6.249  1.00  0.00     0.000 C 
BRANCH  13  14
HETATM   14  C   UNL     1     -20.940  -4.209  -7.201  1.00  0.00     0.000 C 
BRANCH  14  15
HETATM   15  C   UNL     1     -21.018  -4.660  -8.659  1.00  0.00     0.000 C 
BRANCH  15  16
HETATM   16  C   UNL     1     -22.154  -3.981  -9.414  1.00  0.00     0.000 C 
BRANCH  16  17
HETATM   17  C   UNL     1     -22.173  -4.442 -10.873  1.00  0.00    -0.000 C 
BRANCH  17  18
HETATM   18  C   UNL     1     -21.692  -3.338 -11.808  1.00  0.00    -0.005 C 
HETATM   19  C   UNL     1     -22.853  -2.709 -12.561  1.00  0.00     0.005 C 
ENDBRANCH  17  18
ENDBRANCH  16  17
ENDBRANCH  15  16
ENDBRANCH  14  15
ENDBRANCH  13  14
ENDBRANCH  12  13
ENDBRANCH   1  12
BRANCH   1  20
HETATM   20  C   UNL     1     -20.254  -8.375  -4.490  1.00  0.00     0.168 C 
BRANCH  20  21
HETATM   21  O   UNL     1     -19.418  -8.650  -5.607  1.00  0.00    -0.400 OA
HETATM   22  H   UNL     1     -19.988  -8.896  -6.354  1.00  0.00     0.209 HD
ENDBRANCH  20  21
ENDBRANCH   1  20
TORSDOF 18
ENDMDL
MODEL 9
REMARK VINA RESULT:      -5.6      3.439      8.165
REMARK  18 active torsions:
REMARK  status: ('A' for Active; 'I' for Inactive)
REMARK    1  A    between atoms: C_2  and  C_3 
REMARK    2  A    between atoms: C_3  and  C_4 
REMARK    3  A    between atoms: C_4  and  C_5 
REMARK    4  A    between atoms: C_5  and  C_6 
REMARK    5  A    between atoms: C_6  and  C_7 
REMARK    6  A    between atoms: C_7  and  C_8 
REMARK    7  A    between atoms: C_8  and  C_9 
REMARK    8  A    between atoms: C_9  and  C_10 
REMARK    9  A    between atoms: C_10  and  C_11 
REMARK   10  A    between atoms: C_11  and  C_12 
REMARK   11  A    between atoms: C_11  and  C_20 
REMARK   12  A    between atoms: C_12  and  C_13 
REMARK   13  A    between atoms: C_13  and  C_14 
REMARK   14  A    between atoms: C_14  and  C_15 
REMARK   15  A    between atoms: C_15  and  C_16 
REMARK   16  A    between atoms: C_16  and  C_17 
REMARK   17  A    between atoms: C_17  and  C_18 
REMARK   18  A    between atoms: C_20  and  O_21 
ROOT
HETATM    1  C   UNL     1     -21.885  -7.671  -0.732  1.00  0.00     0.009 C 
ENDROOT
BRANCH   1   2
HETATM    2  C   UNL     1     -21.884  -9.048  -1.449  1.00  0.00     0.007 C 
BRANCH   2   3
HETATM    3  C   UNL     1     -20.554  -9.794  -1.347  1.00  0.00     0.000 C 
BRANCH   3   4
HETATM    4  C   UNL     1     -20.230 -10.595  -2.611  1.00  0.00     0.000 C 
BRANCH   4   5
HETATM    5  C   UNL     1     -20.289  -9.662  -3.821  1.00  0.00     0.000 C 
BRANCH   5   6
HETATM    6  C   UNL     1     -18.972  -8.944  -4.075  1.00  0.00     0.000 C 
BRANCH   6   7
HETATM    7  C   UNL     1     -18.033  -9.828  -4.892  1.00  0.00     0.000 C 
BRANCH   7   8
HETATM    8  C   UNL     1     -16.610  -9.770  -4.349  1.00  0.00     0.000 C 
BRANCH   8   9
HETATM    9  C   UNL     1     -16.596  -9.492  -2.845  1.00  0.00    -0.000 C 
BRANCH   9  10
HETATM   10  C   UNL     1     -16.355 -10.784  -2.061  1.00  0.00    -0.005 C 
HETATM   11  C   UNL     1     -15.368 -11.689  -2.778  1.00  0.00     0.005 C 
ENDBRANCH   9  10
ENDBRANCH   8   9
ENDBRANCH   7   8
ENDBRANCH   6   7
ENDBRANCH   5   6
ENDBRANCH   4   5
ENDBRANCH   3   4
ENDBRANCH   2   3
ENDBRANCH   1   2
BRANCH   1  12
HETATM   12  C   UNL     1     -22.342  -6.529  -1.672  1.00  0.00     0.007 C 
BRANCH  12  13
HETATM   13  C   UNL     1     -21.284  -6.115  -2.710  1.00  0.00     0.000 C 
BRANCH  13  14
HETATM   14  C   UNL     1     -21.738  -6.290  -4.164  1.00  0.00     0.000 C 
BRANCH  14  15
HETATM   15  C   UNL     1     -20.828  -5.562  -5.151  1.00  0.00     0.000 C 
BRANCH  15  16
HETATM   16  C   UNL     1     -20.591  -6.368  -6.422  1.00  0.00     0.000 C 
BRANCH  16  17
HETATM   17  C   UNL     1     -20.599  -5.448  -7.645  1.00  0.00    -0.000 C 
BRANCH  17  18
HETATM   18  C   UNL     1     -21.414  -4.186  -7.381  1.00  0.00    -0.005 C 
HETATM   19  C   UNL     1     -22.437  -3.951  -8.480  1.00  0.00     0.005 C 
ENDBRANCH  17  18
ENDBRANCH  16  17
ENDBRANCH  15  16
ENDBRANCH  14  15
ENDBRANCH  13  14
ENDBRANCH  12  13
ENDBRANCH   1  12
BRANCH   1  20
HETATM   20  C   UNL     1     -22.780  -7.744   0.521  1.00  0.00     0.168 C 
BRANCH  20  21
HETATM   21  O   UNL     1     -23.794  -8.730   0.378  1.00  0.00    -0.400 OA
HETATM   22  H   UNL     1     -23.400  -9.596   0.576  1.00  0.00     0.209 HD
ENDBRANCH  20  21
ENDBRANCH   1  20
TORSDOF 18
ENDMDL
