MODEL 1
REMARK VINA RESULT:      -6.2      0.000      0.000
REMARK  3 active torsions:
REMARK  status: ('A' for Active; 'I' for Inactive)
REMARK    1  A    between atoms: O_2  and  C_3 
REMARK    2  A    between atoms: C_3  and  C_5 
REMARK    3  A    between atoms: C_8  and  O_11 
ROOT
HETATM    1  C   UNL     1     -23.191  -2.926 -12.955  1.00  0.00     0.039 A 
HETATM    2  C   UNL     1     -21.970  -3.248 -12.345  1.00  0.00     0.020 A 
HETATM    3  C   UNL     1     -21.938  -3.658 -11.009  1.00  0.00     0.037 A 
HETATM    4  C   UNL     1     -23.127  -3.740 -10.291  1.00  0.00     0.065 A 
HETATM    5  C   UNL     1     -24.345  -3.431 -10.886  1.00  0.00     0.037 A 
HETATM    6  C   UNL     1     -24.381  -3.028 -12.221  1.00  0.00     0.020 A 
ENDROOT
BRANCH   1   7
HETATM    7  C   UNL     1     -23.275  -2.483 -14.370  1.00  0.00     0.292 C 
HETATM    8  O   UNL     1     -22.536  -2.891 -15.252  1.00  0.00    -0.259 OA
BRANCH   7   9
HETATM    9  O   UNL     1     -24.308  -1.618 -14.528  1.00  0.00    -0.323 OA
HETATM   10  C   UNL     1     -23.997  -0.492 -15.352  1.00  0.00     0.213 C 
ENDBRANCH   7   9
ENDBRANCH   1   7
BRANCH   4  11
HETATM   11  O   UNL     1     -23.141  -4.129  -8.984  1.00  0.00    -0.361 OA
HETATM   12  H   UNL     1     -23.495  -3.403  -8.444  1.00  0.00     0.217 HD
ENDBRANCH   4  11
TORSDOF 3
ENDMDL
MODEL 2
REMARK VINA RESULT:      -6.0     10.791     11.779
REMARK  3 active torsions:
REMARK  status: ('A' for Active; 'I' for Inactive)
REMARK    1  A    between atoms: O_2  and  C_3 
REMARK    2  A    between atoms: C_3  and  C_5 
REMARK    3  A    between atoms: C_8  and  O_11 
ROOT
HETATM    1  C   UNL     1     -34.918  -2.808 -11.234  1.00  0.00     0.039 A 
HETATM    2  C   UNL     1     -33.575  -2.792 -11.637  1.00  0.00     0.020 A 
HETATM    3  C   UNL     1     -32.837  -3.979 -11.668  1.00  0.00     0.037 A 
HETATM    4  C   UNL     1     -33.446  -5.173 -11.291  1.00  0.00     0.065 A 
HETATM    5  C   UNL     1     -34.779  -5.203 -10.897  1.00  0.00     0.037 A 
HETATM    6  C   UNL     1     -35.520  -4.022 -10.872  1.00  0.00     0.020 A 
ENDROOT
BRANCH   1   7
HETATM    7  C   UNL     1     -35.742  -1.573 -11.183  1.00  0.00     0.292 C 
HETATM    8  O   UNL     1     -35.712  -0.777 -10.258  1.00  0.00    -0.259 OA
BRANCH   7   9
HETATM    9  O   UNL     1     -36.469  -1.450 -12.321  1.00  0.00    -0.323 OA
HETATM   10  C   UNL     1     -36.312  -0.188 -12.973  1.00  0.00     0.213 C 
ENDBRANCH   7   9
ENDBRANCH   1   7
BRANCH   4  11
HETATM   11  O   UNL     1     -32.760  -6.352 -11.299  1.00  0.00    -0.361 OA
HETATM   12  H   UNL     1     -31.842  -6.180 -11.562  1.00  0.00     0.217 HD
ENDBRANCH   4  11
TORSDOF 3
ENDMDL
MODEL 3
REMARK VINA RESULT:      -6.0      2.523      5.851
REMARK  3 active torsions:
REMARK  status: ('A' for Active; 'I' for Inactive)
REMARK    1  A    between atoms: O_2  and  C_3 
REMARK    2  A    between atoms: C_3  and  C_5 
REMARK    3  A    between atoms: C_8  and  O_11 
ROOT
HETATM    1  C   UNL     1     -21.908  -3.983  -9.042  1.00  0.00     0.039 A 
HETATM    2  C   UNL     1     -20.685  -4.127  -9.713  1.00  0.00     0.020 A 
HETATM    3  C   UNL     1     -20.627  -3.994 -11.104  1.00  0.00     0.037 A 
HETATM    4  C   UNL     1     -21.793  -3.720 -11.813  1.00  0.00     0.065 A 
HETATM    5  C   UNL     1     -23.010  -3.567 -11.159  1.00  0.00     0.037 A 
HETATM    6  C   UNL     1     -23.070  -3.693  -9.771  1.00  0.00     0.020 A 
ENDROOT
BRANCH   1   7
HETATM    7  C   UNL     1     -22.020  -4.118  -7.567  1.00  0.00     0.292 C 
HETATM    8  O   UNL     1     -23.016  -4.537  -6.999  1.00  0.00    -0.259 OA
BRANCH   7   9
HETATM    9  O   UNL     1     -20.852  -3.762  -6.976  1.00  0.00    -0.323 OA
HETATM   10  C   UNL     1     -20.408  -4.681  -5.976  1.00  0.00     0.213 C 
ENDBRANCH   7   9
ENDBRANCH   1   7
BRANCH   4  11
HETATM   11  O   UNL     1     -21.783  -3.590 -13.171  1.00  0.00    -0.361 OA
HETATM   12  H   UNL     1     -22.356  -4.273 -13.556  1.00  0.00     0.217 HD
ENDBRANCH   4  11
TORSDOF 3
ENDMDL
MODEL 4
REMARK VINA RESULT:      -5.9     10.785     11.917
REMARK  3 active torsions:
REMARK  status: ('A' for Active; 'I' for Inactive)
REMARK    1  A    between atoms: O_2  and  C_3 
REMARK    2  A    between atoms: C_3  and  C_5 
REMARK    3  A    between atoms: C_8  and  O_11 
ROOT
HETATM    1  C   UNL     1     -34.800  -2.835 -11.260  1.00  0.00     0.039 A 
HETATM    2  C   UNL     1     -35.499  -3.984 -10.859  1.00  0.00     0.020 A 
HETATM    3  C   UNL     1     -34.857  -5.225 -10.839  1.00  0.00     0.037 A 
HETATM    4  C   UNL     1     -33.522  -5.310 -11.223  1.00  0.00     0.065 A 
HETATM    5  C   UNL     1     -32.816  -4.179 -11.615  1.00  0.00     0.037 A 
HETATM    6  C   UNL     1     -33.452  -2.937 -11.629  1.00  0.00     0.020 A 
ENDROOT
BRANCH   1   7
HETATM    7  C   UNL     1     -35.441  -1.495 -11.301  1.00  0.00     0.292 C 
HETATM    8  O   UNL     1     -34.884  -0.492 -11.716  1.00  0.00    -0.259 OA
BRANCH   7   9
HETATM    9  O   UNL     1     -36.722  -1.578 -10.864  1.00  0.00    -0.323 OA
HETATM   10  C   UNL     1     -37.012  -0.719  -9.759  1.00  0.00     0.213 C 
ENDBRANCH   7   9
ENDBRANCH   1   7
BRANCH   4  11
HETATM   11  O   UNL     1     -32.859  -6.503 -11.225  1.00  0.00    -0.361 OA
HETATM   12  H   UNL     1     -33.332  -7.126 -10.650  1.00  0.00     0.217 HD
ENDBRANCH   4  11
TORSDOF 3
ENDMDL
MODEL 5
REMARK VINA RESULT:      -5.9      1.488      2.604
REMARK  3 active torsions:
REMARK  status: ('A' for Active; 'I' for Inactive)
REMARK    1  A    between atoms: O_2  and  C_3 
REMARK    2  A    between atoms: C_3  and  C_5 
REMARK    3  A    between atoms: C_8  and  O_11 
ROOT
HETATM    1  C   UNL     1     -23.473  -3.409 -11.146  1.00  0.00     0.039 A 
HETATM    2  C   UNL     1     -24.263  -3.587 -10.001  1.00  0.00     0.020 A 
HETATM    3  C   UNL     1     -23.683  -4.032  -8.810  1.00  0.00     0.037 A 
HETATM    4  C   UNL     1     -22.317  -4.298  -8.772  1.00  0.00     0.065 A 
HETATM    5  C   UNL     1     -21.521  -4.118  -9.898  1.00  0.00     0.037 A 
HETATM    6  C   UNL     1     -22.096  -3.667 -11.086  1.00  0.00     0.020 A 
ENDROOT
BRANCH   1   7
HETATM    7  C   UNL     1     -24.044  -2.941 -12.435  1.00  0.00     0.292 C 
HETATM    8  O   UNL     1     -25.215  -3.085 -12.748  1.00  0.00    -0.259 OA
BRANCH   7   9
HETATM    9  O   UNL     1     -23.095  -2.300 -13.161  1.00  0.00    -0.323 OA
HETATM   10  C   UNL     1     -23.052  -2.697 -14.534  1.00  0.00     0.213 C 
ENDBRANCH   7   9
ENDBRANCH   1   7
BRANCH   4  11
HETATM   11  O   UNL     1     -21.712  -4.741  -7.633  1.00  0.00    -0.361 OA
HETATM   12  H   UNL     1     -22.276  -5.415  -7.219  1.00  0.00     0.217 HD
ENDBRANCH   4  11
TORSDOF 3
ENDMDL
MODEL 6
REMARK VINA RESULT:      -5.8      2.289      3.911
REMARK  3 active torsions:
REMARK  status: ('A' for Active; 'I' for Inactive)
REMARK    1  A    between atoms: O_2  and  C_3 
REMARK    2  A    between atoms: C_3  and  C_5 
REMARK    3  A    between atoms: C_8  and  O_11 
ROOT
HETATM    1  C   UNL     1     -22.937  -3.847  -9.794  1.00  0.00     0.039 A 
HETATM    2  C   UNL     1     -22.938  -3.953  -8.395  1.00  0.00     0.020 A 
HETATM    3  C   UNL     1     -21.739  -4.150  -7.705  1.00  0.00     0.037 A 
HETATM    4  C   UNL     1     -20.547  -4.243  -8.418  1.00  0.00     0.065 A 
HETATM    5  C   UNL     1     -20.532  -4.131  -9.804  1.00  0.00     0.037 A 
HETATM    6  C   UNL     1     -21.726  -3.928 -10.495  1.00  0.00     0.020 A 
ENDROOT
BRANCH   1   7
HETATM    7  C   UNL     1     -24.186  -3.640 -10.571  1.00  0.00     0.292 C 
HETATM    8  O   UNL     1     -25.226  -3.226 -10.084  1.00  0.00    -0.259 OA
BRANCH   7   9
HETATM    9  O   UNL     1     -23.974  -3.925 -11.880  1.00  0.00    -0.323 OA
HETATM   10  C   UNL     1     -24.436  -2.910 -12.774  1.00  0.00     0.213 C 
ENDBRANCH   7   9
ENDBRANCH   1   7
BRANCH   4  11
HETATM   11  O   UNL     1     -19.355  -4.443  -7.785  1.00  0.00    -0.361 OA
HETATM   12  H   UNL     1     -18.656  -4.532  -8.453  1.00  0.00     0.217 HD
ENDBRANCH   4  11
TORSDOF 3
ENDMDL
MODEL 7
REMARK VINA RESULT:      -5.8      1.961      5.124
REMARK  3 active torsions:
REMARK  status: ('A' for Active; 'I' for Inactive)
REMARK    1  A    between atoms: O_2  and  C_3 
REMARK    2  A    between atoms: C_3  and  C_5 
REMARK    3  A    between atoms: C_8  and  O_11 
ROOT
HETATM    1  C   UNL     1     -22.038  -3.963 -10.189  1.00  0.00     0.039 A 
HETATM    2  C   UNL     1     -21.591  -3.522 -11.443  1.00  0.00     0.020 A 
HETATM    3  C   UNL     1     -22.501  -3.008 -12.372  1.00  0.00     0.037 A 
HETATM    4  C   UNL     1     -23.851  -2.941 -12.041  1.00  0.00     0.065 A 
HETATM    5  C   UNL     1     -24.306  -3.367 -10.799  1.00  0.00     0.037 A 
HETATM    6  C   UNL     1     -23.400  -3.874  -9.867  1.00  0.00     0.020 A 
ENDROOT
BRANCH   1   7
HETATM    7  C   UNL     1     -21.110  -4.520  -9.171  1.00  0.00     0.292 C 
HETATM    8  O   UNL     1     -19.897  -4.535  -9.298  1.00  0.00    -0.259 OA
BRANCH   7   9
HETATM    9  O   UNL     1     -21.807  -4.946  -8.089  1.00  0.00    -0.323 OA
HETATM   10  C   UNL     1     -21.067  -5.819  -7.233  1.00  0.00     0.213 C 
ENDBRANCH   7   9
ENDBRANCH   1   7
BRANCH   4  11
HETATM   11  O   UNL     1     -24.773  -2.453 -12.920  1.00  0.00    -0.361 OA
HETATM   12  H   UNL     1     -24.632  -2.868 -13.786  1.00  0.00     0.217 HD
ENDBRANCH   4  11
TORSDOF 3
ENDMDL
MODEL 8
REMARK VINA RESULT:      -5.7     10.666     12.147
REMARK  3 active torsions:
REMARK  status: ('A' for Active; 'I' for Inactive)
REMARK    1  A    between atoms: O_2  and  C_3 
REMARK    2  A    between atoms: C_3  and  C_5 
REMARK    3  A    between atoms: C_8  and  O_11 
ROOT
HETATM    1  C   UNL     1     -34.311  -4.405 -10.847  1.00  0.00     0.039 A 
HETATM    2  C   UNL     1     -35.647  -3.984 -10.788  1.00  0.00     0.020 A 
HETATM    3  C   UNL     1     -35.962  -2.627 -10.911  1.00  0.00     0.037 A 
HETATM    4  C   UNL     1     -34.938  -1.702 -11.091  1.00  0.00     0.065 A 
HETATM    5  C   UNL     1     -33.610  -2.107 -11.160  1.00  0.00     0.037 A 
HETATM    6  C   UNL     1     -33.293  -3.461 -11.044  1.00  0.00     0.020 A 
ENDROOT
BRANCH   1   7
HETATM    7  C   UNL     1     -33.927  -5.835 -10.718  1.00  0.00     0.292 C 
HETATM    8  O   UNL     1     -32.879  -6.295 -11.141  1.00  0.00    -0.259 OA
BRANCH   7   9
HETATM    9  O   UNL     1     -34.878  -6.512 -10.028  1.00  0.00    -0.323 OA
HETATM   10  C   UNL     1     -34.701  -7.930 -10.042  1.00  0.00     0.213 C 
ENDBRANCH   7   9
ENDBRANCH   1   7
BRANCH   4  11
HETATM   11  O   UNL     1     -35.200  -0.368 -11.209  1.00  0.00    -0.361 OA
HETATM   12  H   UNL     1     -35.413  -0.011 -10.331  1.00  0.00     0.217 HD
ENDBRANCH   4  11
TORSDOF 3
ENDMDL
MODEL 9
REMARK VINA RESULT:      -5.5      2.476      3.475
REMARK  3 active torsions:
REMARK  status: ('A' for Active; 'I' for Inactive)
REMARK    1  A    between atoms: O_2  and  C_3 
REMARK    2  A    between atoms: C_3  and  C_5 
REMARK    3  A    between atoms: C_8  and  O_11 
ROOT
HETATM    1  C   UNL     1     -21.885  -3.766 -10.101  1.00  0.00     0.039 A 
HETATM    2  C   UNL     1     -20.530  -4.100  -9.966  1.00  0.00     0.020 A 
HETATM    3  C   UNL     1     -19.988  -4.338  -8.700  1.00  0.00     0.037 A 
HETATM    4  C   UNL     1     -20.805  -4.238  -7.577  1.00  0.00     0.065 A 
HETATM    5  C   UNL     1     -22.151  -3.915  -7.698  1.00  0.00     0.037 A 
HETATM    6  C   UNL     1     -22.697  -3.684  -8.961  1.00  0.00     0.020 A 
ENDROOT
BRANCH   1   7
HETATM    7  C   UNL     1     -22.505  -3.502 -11.425  1.00  0.00     0.292 C 
HETATM    8  O   UNL     1     -21.925  -3.658 -12.488  1.00  0.00    -0.259 OA
BRANCH   7   9
HETATM    9  O   UNL     1     -23.798  -3.123 -11.268  1.00  0.00    -0.323 OA
HETATM   10  C   UNL     1     -24.526  -3.032 -12.494  1.00  0.00     0.213 C 
ENDBRANCH   7   9
ENDBRANCH   1   7
BRANCH   4  11
HETATM   11  O   UNL     1     -20.315  -4.454  -6.322  1.00  0.00    -0.361 OA
HETATM   12  H   UNL     1     -19.619  -3.803  -6.140  1.00  0.00     0.217 HD
ENDBRANCH   4  11
TORSDOF 3
ENDMDL
