MODEL 1
REMARK VINA RESULT:      -5.5      0.000      0.000
REMARK  11 active torsions:
REMARK  status: ('A' for Active; 'I' for Inactive)
REMARK    1  A    between atoms: C_1  and  C_2 
REMARK    2  A    between atoms: C_1  and  C_9 
REMARK    3  A    between atoms: C_2  and  C_3 
REMARK    4  A    between atoms: C_3  and  C_4 
REMARK    5  A    between atoms: C_4  and  C_5 
REMARK    6  A    between atoms: C_5  and  C_6 
REMARK    7  A    between atoms: C_6  and  O_8 
REMARK    8  A    between atoms: C_9  and  C_10 
REMARK    9  A    between atoms: C_10  and  C_11 
REMARK   10  A    between atoms: C_11  and  C_12 
REMARK   11  A    between atoms: C_12  and  O_13 
ROOT
HETATM    1  C   UNL     1     -35.103  -1.400 -12.630  1.00  0.00     0.000 C 
ENDROOT
BRANCH   1   2
HETATM    2  C   UNL     1     -34.903  -1.844 -11.187  1.00  0.00     0.000 C 
BRANCH   2   3
HETATM    3  C   UNL     1     -33.438  -2.171 -10.917  1.00  0.00     0.000 C 
BRANCH   3   4
HETATM    4  C   UNL     1     -33.110  -3.580 -11.395  1.00  0.00     0.002 C 
BRANCH   4   5
HETATM    5  C   UNL     1     -34.016  -4.608 -10.729  1.00  0.00     0.026 C 
BRANCH   5   6
HETATM    6  C   UNL     1     -34.621  -5.548 -11.761  1.00  0.00     0.164 C 
BRANCH   6   7
HETATM    7  O   UNL     1     -34.670  -4.906 -13.026  1.00  0.00    -0.401 OA
HETATM    8  H   UNL     1     -35.119  -5.510 -13.641  1.00  0.00     0.209 HD
ENDBRANCH   6   7
ENDBRANCH   5   6
ENDBRANCH   4   5
ENDBRANCH   3   4
ENDBRANCH   2   3
ENDBRANCH   1   2
BRANCH   1   9
HETATM    9  C   UNL     1     -34.949   0.112 -12.761  1.00  0.00     0.001 C 
BRANCH   9  10
HETATM   10  C   UNL     1     -34.882   0.510 -14.232  1.00  0.00     0.010 C 
BRANCH  10  11
HETATM   11  C   UNL     1     -36.223   0.345 -14.940  1.00  0.00     0.110 C 
BRANCH  11  12
HETATM   12  C   UNL     1     -36.076  -0.551 -16.148  1.00  0.00     0.139 C 
HETATM   13  O   UNL     1     -36.914  -0.697 -17.024  1.00  0.00    -0.650 OA
BRANCH  12  14
HETATM   14  O   UNL     1     -34.891  -1.195 -16.176  1.00  0.00    -0.776 OA
HETATM   15  H   UNL     1     -34.907  -2.036 -16.673  1.00  0.00     0.167 HD
ENDBRANCH  12  14
ENDBRANCH  11  12
ENDBRANCH  10  11
ENDBRANCH   9  10
ENDBRANCH   1   9
TORSDOF 11
ENDMDL
MODEL 2
REMARK VINA RESULT:      -5.5     11.024     12.785
REMARK  11 active torsions:
REMARK  status: ('A' for Active; 'I' for Inactive)
REMARK    1  A    between atoms: C_1  and  C_2 
REMARK    2  A    between atoms: C_1  and  C_9 
REMARK    3  A    between atoms: C_2  and  C_3 
REMARK    4  A    between atoms: C_3  and  C_4 
REMARK    5  A    between atoms: C_4  and  C_5 
REMARK    6  A    between atoms: C_5  and  C_6 
REMARK    7  A    between atoms: C_6  and  O_8 
REMARK    8  A    between atoms: C_9  and  C_10 
REMARK    9  A    between atoms: C_10  and  C_11 
REMARK   10  A    between atoms: C_11  and  C_12 
REMARK   11  A    between atoms: C_12  and  O_13 
ROOT
HETATM    1  C   UNL     1     -20.229  -4.586 -10.344  1.00  0.00     0.000 C 
ENDROOT
BRANCH   1   2
HETATM    2  C   UNL     1     -20.667  -4.100  -8.968  1.00  0.00     0.000 C 
BRANCH   2   3
HETATM    3  C   UNL     1     -21.576  -5.123  -8.295  1.00  0.00     0.000 C 
BRANCH   3   4
HETATM    4  C   UNL     1     -22.835  -4.449  -7.763  1.00  0.00     0.002 C 
BRANCH   4   5
HETATM    5  C   UNL     1     -23.446  -3.527  -8.810  1.00  0.00     0.026 C 
BRANCH   5   6
HETATM    6  C   UNL     1     -24.567  -4.227  -9.562  1.00  0.00     0.164 C 
BRANCH   6   7
HETATM    7  O   UNL     1     -25.597  -3.298  -9.864  1.00  0.00    -0.401 OA
HETATM    8  H   UNL     1     -26.149  -3.693 -10.560  1.00  0.00     0.209 HD
ENDBRANCH   6   7
ENDBRANCH   5   6
ENDBRANCH   4   5
ENDBRANCH   3   4
ENDBRANCH   2   3
ENDBRANCH   1   2
BRANCH   1   9
HETATM    9  C   UNL     1     -20.518  -3.533 -11.410  1.00  0.00     0.001 C 
BRANCH   9  10
HETATM   10  C   UNL     1     -21.854  -3.819 -12.087  1.00  0.00     0.010 C 
BRANCH  10  11
HETATM   11  C   UNL     1     -22.686  -2.555 -12.286  1.00  0.00     0.110 C 
BRANCH  11  12
HETATM   12  C   UNL     1     -23.772  -2.793 -13.309  1.00  0.00     0.139 C 
HETATM   13  O   UNL     1     -23.589  -3.168 -14.458  1.00  0.00    -0.650 OA
BRANCH  12  14
HETATM   14  O   UNL     1     -25.006  -2.552 -12.822  1.00  0.00    -0.776 OA
HETATM   15  H   UNL     1     -25.690  -3.170 -13.148  1.00  0.00     0.167 HD
ENDBRANCH  12  14
ENDBRANCH  11  12
ENDBRANCH  10  11
ENDBRANCH   9  10
ENDBRANCH   1   9
TORSDOF 11
ENDMDL
MODEL 3
REMARK VINA RESULT:      -5.5     11.592     13.526
REMARK  11 active torsions:
REMARK  status: ('A' for Active; 'I' for Inactive)
REMARK    1  A    between atoms: C_1  and  C_2 
REMARK    2  A    between atoms: C_1  and  C_9 
REMARK    3  A    between atoms: C_2  and  C_3 
REMARK    4  A    between atoms: C_3  and  C_4 
REMARK    5  A    between atoms: C_4  and  C_5 
REMARK    6  A    between atoms: C_5  and  C_6 
REMARK    7  A    between atoms: C_6  and  O_8 
REMARK    8  A    between atoms: C_9  and  C_10 
REMARK    9  A    between atoms: C_10  and  C_11 
REMARK   10  A    between atoms: C_11  and  C_12 
REMARK   11  A    between atoms: C_12  and  O_13 
ROOT
HETATM    1  C   UNL     1     -20.523  -3.693 -11.003  1.00  0.00     0.000 C 
ENDROOT
BRANCH   1   2
HETATM    2  C   UNL     1     -20.756  -4.561  -9.773  1.00  0.00     0.000 C 
BRANCH   2   3
HETATM    3  C   UNL     1     -19.655  -4.345  -8.740  1.00  0.00     0.000 C 
BRANCH   3   4
HETATM    4  C   UNL     1     -20.246  -4.282  -7.337  1.00  0.00     0.002 C 
BRANCH   4   5
HETATM    5  C   UNL     1     -21.664  -3.726  -7.365  1.00  0.00     0.026 C 
BRANCH   5   6
HETATM    6  C   UNL     1     -22.657  -4.742  -6.824  1.00  0.00     0.164 C 
BRANCH   6   7
HETATM    7  O   UNL     1     -23.982  -4.296  -7.064  1.00  0.00    -0.401 OA
HETATM    8  H   UNL     1     -24.210  -4.539  -7.977  1.00  0.00     0.209 HD
ENDBRANCH   6   7
ENDBRANCH   5   6
ENDBRANCH   4   5
ENDBRANCH   3   4
ENDBRANCH   2   3
ENDBRANCH   1   2
BRANCH   1   9
HETATM    9  C   UNL     1     -21.681  -3.823 -11.989  1.00  0.00     0.001 C 
BRANCH   9  10
HETATM   10  C   UNL     1     -22.660  -2.667 -11.808  1.00  0.00     0.010 C 
BRANCH  10  11
HETATM   11  C   UNL     1     -24.106  -3.142 -11.709  1.00  0.00     0.110 C 
BRANCH  11  12
HETATM   12  C   UNL     1     -24.384  -3.706 -10.335  1.00  0.00     0.139 C 
HETATM   13  O   UNL     1     -24.264  -4.880 -10.017  1.00  0.00    -0.650 OA
BRANCH  12  14
HETATM   14  O   UNL     1     -24.786  -2.764  -9.458  1.00  0.00    -0.776 OA
HETATM   15  H   UNL     1     -24.290  -2.768  -8.616  1.00  0.00     0.167 HD
ENDBRANCH  12  14
ENDBRANCH  11  12
ENDBRANCH  10  11
ENDBRANCH   9  10
ENDBRANCH   1   9
TORSDOF 11
ENDMDL
MODEL 4
REMARK VINA RESULT:      -5.4     12.229     14.191
REMARK  11 active torsions:
REMARK  status: ('A' for Active; 'I' for Inactive)
REMARK    1  A    between atoms: C_1  and  C_2 
REMARK    2  A    between atoms: C_1  and  C_9 
REMARK    3  A    between atoms: C_2  and  C_3 
REMARK    4  A    between atoms: C_3  and  C_4 
REMARK    5  A    between atoms: C_4  and  C_5 
REMARK    6  A    between atoms: C_5  and  C_6 
REMARK    7  A    between atoms: C_6  and  O_8 
REMARK    8  A    between atoms: C_9  and  C_10 
REMARK    9  A    between atoms: C_10  and  C_11 
REMARK   10  A    between atoms: C_11  and  C_12 
REMARK   11  A    between atoms: C_12  and  O_13 
ROOT
HETATM    1  C   UNL     1     -20.394  -4.079 -10.875  1.00  0.00     0.000 C 
ENDROOT
BRANCH   1   2
HETATM    2  C   UNL     1     -20.153  -4.792  -9.550  1.00  0.00     0.000 C 
BRANCH   2   3
HETATM    3  C   UNL     1     -20.043  -3.788  -8.407  1.00  0.00     0.000 C 
BRANCH   3   4
HETATM    4  C   UNL     1     -20.918  -4.217  -7.235  1.00  0.00     0.002 C 
BRANCH   4   5
HETATM    5  C   UNL     1     -20.068  -4.696  -6.065  1.00  0.00     0.026 C 
BRANCH   5   6
HETATM    6  C   UNL     1     -20.501  -6.081  -5.610  1.00  0.00     0.164 C 
BRANCH   6   7
HETATM    7  O   UNL     1     -20.908  -6.850  -6.731  1.00  0.00    -0.401 OA
HETATM    8  H   UNL     1     -21.852  -7.055  -6.615  1.00  0.00     0.209 HD
ENDBRANCH   6   7
ENDBRANCH   5   6
ENDBRANCH   4   5
ENDBRANCH   3   4
ENDBRANCH   2   3
ENDBRANCH   1   2
BRANCH   1   9
HETATM    9  C   UNL     1     -21.756  -3.391 -10.883  1.00  0.00     0.001 C 
BRANCH   9  10
HETATM   10  C   UNL     1     -22.808  -4.311 -11.494  1.00  0.00     0.010 C 
BRANCH  10  11
HETATM   11  C   UNL     1     -23.719  -4.931 -10.439  1.00  0.00     0.110 C 
BRANCH  11  12
HETATM   12  C   UNL     1     -24.527  -3.861  -9.745  1.00  0.00     0.139 C 
HETATM   13  O   UNL     1     -25.374  -3.158 -10.277  1.00  0.00    -0.650 OA
BRANCH  12  14
HETATM   14  O   UNL     1     -24.224  -3.748  -8.435  1.00  0.00    -0.776 OA
HETATM   15  H   UNL     1     -23.784  -2.908  -8.200  1.00  0.00     0.167 HD
ENDBRANCH  12  14
ENDBRANCH  11  12
ENDBRANCH  10  11
ENDBRANCH   9  10
ENDBRANCH   1   9
TORSDOF 11
ENDMDL
MODEL 5
REMARK VINA RESULT:      -5.4     11.383     12.921
REMARK  11 active torsions:
REMARK  status: ('A' for Active; 'I' for Inactive)
REMARK    1  A    between atoms: C_1  and  C_2 
REMARK    2  A    between atoms: C_1  and  C_9 
REMARK    3  A    between atoms: C_2  and  C_3 
REMARK    4  A    between atoms: C_3  and  C_4 
REMARK    5  A    between atoms: C_4  and  C_5 
REMARK    6  A    between atoms: C_5  and  C_6 
REMARK    7  A    between atoms: C_6  and  O_8 
REMARK    8  A    between atoms: C_9  and  C_10 
REMARK    9  A    between atoms: C_10  and  C_11 
REMARK   10  A    between atoms: C_11  and  C_12 
REMARK   11  A    between atoms: C_12  and  O_13 
ROOT
HETATM    1  C   UNL     1     -22.392  -4.295 -11.233  1.00  0.00     0.000 C 
ENDROOT
BRANCH   1   2
HETATM    2  C   UNL     1     -21.233  -3.612 -10.518  1.00  0.00     0.000 C 
BRANCH   2   3
HETATM    3  C   UNL     1     -20.233  -4.640 -10.000  1.00  0.00     0.000 C 
BRANCH   3   4
HETATM    4  C   UNL     1     -20.331  -4.763  -8.484  1.00  0.00     0.002 C 
BRANCH   4   5
HETATM    5  C   UNL     1     -21.387  -3.816  -7.926  1.00  0.00     0.026 C 
BRANCH   5   6
HETATM    6  C   UNL     1     -22.431  -4.579  -7.126  1.00  0.00     0.164 C 
BRANCH   6   7
HETATM    7  O   UNL     1     -23.732  -4.191  -7.541  1.00  0.00    -0.401 OA
HETATM    8  H   UNL     1     -24.026  -4.831  -8.211  1.00  0.00     0.209 HD
ENDBRANCH   6   7
ENDBRANCH   5   6
ENDBRANCH   4   5
ENDBRANCH   3   4
ENDBRANCH   2   3
ENDBRANCH   1   2
BRANCH   1   9
HETATM    9  C   UNL     1     -23.690  -3.519 -11.029  1.00  0.00     0.001 C 
BRANCH   9  10
HETATM   10  C   UNL     1     -24.309  -3.163 -12.376  1.00  0.00     0.010 C 
BRANCH  10  11
HETATM   11  C   UNL     1     -23.401  -2.267 -13.213  1.00  0.00     0.110 C 
BRANCH  11  12
HETATM   12  C   UNL     1     -23.191  -2.862 -14.586  1.00  0.00     0.139 C 
HETATM   13  O   UNL     1     -22.464  -2.399 -15.452  1.00  0.00    -0.650 OA
BRANCH  12  14
HETATM   14  O   UNL     1     -23.900  -3.993 -14.776  1.00  0.00    -0.776 OA
HETATM   15  H   UNL     1     -24.549  -4.180 -14.069  1.00  0.00     0.167 HD
ENDBRANCH  12  14
ENDBRANCH  11  12
ENDBRANCH  10  11
ENDBRANCH   9  10
ENDBRANCH   1   9
TORSDOF 11
ENDMDL
MODEL 6
REMARK VINA RESULT:      -5.4      1.547      2.038
REMARK  11 active torsions:
REMARK  status: ('A' for Active; 'I' for Inactive)
REMARK    1  A    between atoms: C_1  and  C_2 
REMARK    2  A    between atoms: C_1  and  C_9 
REMARK    3  A    between atoms: C_2  and  C_3 
REMARK    4  A    between atoms: C_3  and  C_4 
REMARK    5  A    between atoms: C_4  and  C_5 
REMARK    6  A    between atoms: C_5  and  C_6 
REMARK    7  A    between atoms: C_6  and  O_8 
REMARK    8  A    between atoms: C_9  and  C_10 
REMARK    9  A    between atoms: C_10  and  C_11 
REMARK   10  A    between atoms: C_11  and  C_12 
REMARK   11  A    between atoms: C_12  and  O_13 
ROOT
HETATM    1  C   UNL     1     -34.763  -1.792 -11.215  1.00  0.00     0.000 C 
ENDROOT
BRANCH   1   2
HETATM    2  C   UNL     1     -33.344  -2.256 -10.909  1.00  0.00     0.000 C 
BRANCH   2   3
HETATM    3  C   UNL     1     -33.159  -3.722 -11.285  1.00  0.00     0.000 C 
BRANCH   3   4
HETATM    4  C   UNL     1     -34.070  -4.608 -10.444  1.00  0.00     0.002 C 
BRANCH   4   5
HETATM    5  C   UNL     1     -34.374  -5.917 -11.160  1.00  0.00     0.026 C 
BRANCH   5   6
HETATM    6  C   UNL     1     -34.701  -7.018 -10.164  1.00  0.00     0.164 C 
BRANCH   6   7
HETATM    7  O   UNL     1     -34.875  -8.250 -10.847  1.00  0.00    -0.401 OA
HETATM    8  H   UNL     1     -35.702  -8.187 -11.354  1.00  0.00     0.209 HD
ENDBRANCH   6   7
ENDBRANCH   5   6
ENDBRANCH   4   5
ENDBRANCH   3   4
ENDBRANCH   2   3
ENDBRANCH   1   2
BRANCH   1   9
HETATM    9  C   UNL     1     -35.022  -1.789 -12.719  1.00  0.00     0.001 C 
BRANCH   9  10
HETATM   10  C   UNL     1     -35.108  -0.356 -13.236  1.00  0.00     0.010 C 
BRANCH  10  11
HETATM   11  C   UNL     1     -36.522   0.021 -13.666  1.00  0.00     0.110 C 
BRANCH  11  12
HETATM   12  C   UNL     1     -36.645  -0.021 -15.171  1.00  0.00     0.139 C 
HETATM   13  O   UNL     1     -36.426  -0.999 -15.870  1.00  0.00    -0.650 OA
BRANCH  12  14
HETATM   14  O   UNL     1     -37.038   1.159 -15.694  1.00  0.00    -0.776 OA
HETATM   15  H   UNL     1     -36.724   1.939 -15.195  1.00  0.00     0.167 HD
ENDBRANCH  12  14
ENDBRANCH  11  12
ENDBRANCH  10  11
ENDBRANCH   9  10
ENDBRANCH   1   9
TORSDOF 11
ENDMDL
MODEL 7
REMARK VINA RESULT:      -5.4     11.113     13.402
REMARK  11 active torsions:
REMARK  status: ('A' for Active; 'I' for Inactive)
REMARK    1  A    between atoms: C_1  and  C_2 
REMARK    2  A    between atoms: C_1  and  C_9 
REMARK    3  A    between atoms: C_2  and  C_3 
REMARK    4  A    between atoms: C_3  and  C_4 
REMARK    5  A    between atoms: C_4  and  C_5 
REMARK    6  A    between atoms: C_5  and  C_6 
REMARK    7  A    between atoms: C_6  and  O_8 
REMARK    8  A    between atoms: C_9  and  C_10 
REMARK    9  A    between atoms: C_10  and  C_11 
REMARK   10  A    between atoms: C_11  and  C_12 
REMARK   11  A    between atoms: C_12  and  O_13 
ROOT
HETATM    1  C   UNL     1     -19.992  -4.287  -9.171  1.00  0.00     0.000 C 
ENDROOT
BRANCH   1   2
HETATM    2  C   UNL     1     -20.511  -4.457 -10.593  1.00  0.00     0.000 C 
BRANCH   2   3
HETATM    3  C   UNL     1     -20.474  -3.131 -11.346  1.00  0.00     0.000 C 
BRANCH   3   4
HETATM    4  C   UNL     1     -21.889  -2.641 -11.632  1.00  0.00     0.002 C 
BRANCH   4   5
HETATM    5  C   UNL     1     -22.443  -3.282 -12.898  1.00  0.00     0.026 C 
BRANCH   5   6
HETATM    6  C   UNL     1     -23.626  -2.490 -13.434  1.00  0.00     0.164 C 
BRANCH   6   7
HETATM    7  O   UNL     1     -24.838  -3.051 -12.955  1.00  0.00    -0.401 OA
HETATM    8  H   UNL     1     -24.604  -3.805 -12.386  1.00  0.00     0.209 HD
ENDBRANCH   6   7
ENDBRANCH   5   6
ENDBRANCH   4   5
ENDBRANCH   3   4
ENDBRANCH   2   3
ENDBRANCH   1   2
BRANCH   1   9
HETATM    9  C   UNL     1     -21.138  -4.001  -8.204  1.00  0.00     0.001 C 
BRANCH   9  10
HETATM   10  C   UNL     1     -22.379  -4.789  -8.609  1.00  0.00     0.010 C 
BRANCH  10  11
HETATM   11  C   UNL     1     -23.659  -3.973  -8.460  1.00  0.00     0.110 C 
BRANCH  11  12
HETATM   12  C   UNL     1     -24.475  -4.034  -9.730  1.00  0.00     0.139 C 
HETATM   13  O   UNL     1     -25.366  -3.254 -10.034  1.00  0.00    -0.650 OA
BRANCH  12  14
HETATM   14  O   UNL     1     -24.118  -5.059 -10.529  1.00  0.00    -0.776 OA
HETATM   15  H   UNL     1     -23.160  -5.254 -10.521  1.00  0.00     0.167 HD
ENDBRANCH  12  14
ENDBRANCH  11  12
ENDBRANCH  10  11
ENDBRANCH   9  10
ENDBRANCH   1   9
TORSDOF 11
ENDMDL
MODEL 8
REMARK VINA RESULT:      -5.2      0.933      5.224
REMARK  11 active torsions:
REMARK  status: ('A' for Active; 'I' for Inactive)
REMARK    1  A    between atoms: C_1  and  C_2 
REMARK    2  A    between atoms: C_1  and  C_9 
REMARK    3  A    between atoms: C_2  and  C_3 
REMARK    4  A    between atoms: C_3  and  C_4 
REMARK    5  A    between atoms: C_4  and  C_5 
REMARK    6  A    between atoms: C_5  and  C_6 
REMARK    7  A    between atoms: C_6  and  O_8 
REMARK    8  A    between atoms: C_9  and  C_10 
REMARK    9  A    between atoms: C_10  and  C_11 
REMARK   10  A    between atoms: C_11  and  C_12 
REMARK   11  A    between atoms: C_12  and  O_13 
ROOT
HETATM    1  C   UNL     1     -35.313  -1.508 -11.169  1.00  0.00     0.000 C 
ENDROOT
BRANCH   1   2
HETATM    2  C   UNL     1     -34.671  -0.825 -12.370  1.00  0.00     0.000 C 
BRANCH   2   3
HETATM    3  C   UNL     1     -35.675   0.071 -13.087  1.00  0.00     0.000 C 
BRANCH   3   4
HETATM    4  C   UNL     1     -34.992   0.851 -14.204  1.00  0.00     0.002 C 
BRANCH   4   5
HETATM    5  C   UNL     1     -35.811   0.799 -15.487  1.00  0.00     0.026 C 
BRANCH   5   6
HETATM    6  C   UNL     1     -35.981  -0.635 -15.965  1.00  0.00     0.164 C 
BRANCH   6   7
HETATM    7  O   UNL     1     -36.418  -0.644 -17.314  1.00  0.00    -0.401 OA
HETATM    8  H   UNL     1     -35.980  -1.391 -17.757  1.00  0.00     0.209 HD
ENDBRANCH   6   7
ENDBRANCH   5   6
ENDBRANCH   4   5
ENDBRANCH   3   4
ENDBRANCH   2   3
ENDBRANCH   1   2
BRANCH   1   9
HETATM    9  C   UNL     1     -34.266  -2.238 -10.333  1.00  0.00     0.001 C 
BRANCH   9  10
HETATM   10  C   UNL     1     -33.187  -2.826 -11.237  1.00  0.00     0.010 C 
BRANCH  10  11
HETATM   11  C   UNL     1     -33.363  -4.326 -11.451  1.00  0.00     0.110 C 
BRANCH  11  12
HETATM   12  C   UNL     1     -34.160  -4.590 -12.707  1.00  0.00     0.139 C 
HETATM   13  O   UNL     1     -35.175  -5.268 -12.769  1.00  0.00    -0.650 OA
BRANCH  12  14
HETATM   14  O   UNL     1     -33.636  -3.985 -13.792  1.00  0.00    -0.776 OA
HETATM   15  H   UNL     1     -32.874  -3.406 -13.595  1.00  0.00     0.167 HD
ENDBRANCH  12  14
ENDBRANCH  11  12
ENDBRANCH  10  11
ENDBRANCH   9  10
ENDBRANCH   1   9
TORSDOF 11
ENDMDL
MODEL 9
REMARK VINA RESULT:      -5.2     12.309     15.007
REMARK  11 active torsions:
REMARK  status: ('A' for Active; 'I' for Inactive)
REMARK    1  A    between atoms: C_1  and  C_2 
REMARK    2  A    between atoms: C_1  and  C_9 
REMARK    3  A    between atoms: C_2  and  C_3 
REMARK    4  A    between atoms: C_3  and  C_4 
REMARK    5  A    between atoms: C_4  and  C_5 
REMARK    6  A    between atoms: C_5  and  C_6 
REMARK    7  A    between atoms: C_6  and  O_8 
REMARK    8  A    between atoms: C_9  and  C_10 
REMARK    9  A    between atoms: C_10  and  C_11 
REMARK   10  A    between atoms: C_11  and  C_12 
REMARK   11  A    between atoms: C_12  and  O_13 
ROOT
HETATM    1  C   UNL     1     -20.234  -4.528 -10.032  1.00  0.00     0.000 C 
ENDROOT
BRANCH   1   2
HETATM    2  C   UNL     1     -20.638  -3.439 -11.018  1.00  0.00     0.000 C 
BRANCH   2   3
HETATM    3  C   UNL     1     -21.752  -3.926 -11.938  1.00  0.00     0.000 C 
BRANCH   3   4
HETATM    4  C   UNL     1     -23.071  -3.251 -11.582  1.00  0.00     0.002 C 
BRANCH   4   5
HETATM    5  C   UNL     1     -23.931  -4.159 -10.711  1.00  0.00     0.026 C 
BRANCH   5   6
HETATM    6  C   UNL     1     -24.534  -3.384  -9.550  1.00  0.00     0.164 C 
BRANCH   6   7
HETATM    7  O   UNL     1     -25.932  -3.234  -9.745  1.00  0.00    -0.401 OA
HETATM    8  H   UNL     1     -26.226  -2.494  -9.187  1.00  0.00     0.209 HD
ENDBRANCH   6   7
ENDBRANCH   5   6
ENDBRANCH   4   5
ENDBRANCH   3   4
ENDBRANCH   2   3
ENDBRANCH   1   2
BRANCH   1   9
HETATM    9  C   UNL     1     -20.784  -4.233  -8.640  1.00  0.00     0.001 C 
BRANCH   9  10
HETATM   10  C   UNL     1     -19.908  -4.888  -7.577  1.00  0.00     0.010 C 
BRANCH  10  11
HETATM   11  C   UNL     1     -20.491  -4.745  -6.175  1.00  0.00     0.110 C 
BRANCH  11  12
HETATM   12  C   UNL     1     -21.369  -5.929  -5.844  1.00  0.00     0.139 C 
HETATM   13  O   UNL     1     -22.306  -5.916  -5.060  1.00  0.00    -0.650 OA
BRANCH  12  14
HETATM   14  O   UNL     1     -21.017  -7.042  -6.520  1.00  0.00    -0.776 OA
HETATM   15  H   UNL     1     -20.371  -7.605  -6.050  1.00  0.00     0.167 HD
ENDBRANCH  12  14
ENDBRANCH  11  12
ENDBRANCH  10  11
ENDBRANCH   9  10
ENDBRANCH   1   9
TORSDOF 11
ENDMDL
