MODEL 1
REMARK VINA RESULT:      -1.3      0.000      0.000
REMARK  7 active torsions:
REMARK  status: ('A' for Active; 'I' for Inactive)
REMARK    1  A    between atoms: C_3  and  S_31 
REMARK    2  A    between atoms: C_6  and  N_7 
REMARK    3  A    between atoms: N_9  and  C_11 
REMARK    4  A    between atoms: C_12  and  C_28 
REMARK    5  A    between atoms: N_15  and  C_18 
REMARK    6  A    between atoms: C_21  and  S_24 
REMARK    7  A    between atoms: S_31  and  O_32 
ROOT
HETATM    1 NA   UNL     3     -32.324  -8.576   4.529  1.00  0.00     0.000 Na
ENDROOT
TORSDOF 7
ENDMDL
MODEL 2
REMARK VINA RESULT:      -1.3     23.494     23.494
REMARK  7 active torsions:
REMARK  status: ('A' for Active; 'I' for Inactive)
REMARK    1  A    between atoms: C_3  and  S_31 
REMARK    2  A    between atoms: C_6  and  N_7 
REMARK    3  A    between atoms: N_9  and  C_11 
REMARK    4  A    between atoms: C_12  and  C_28 
REMARK    5  A    between atoms: N_15  and  C_18 
REMARK    6  A    between atoms: C_21  and  S_24 
REMARK    7  A    between atoms: S_31  and  O_32 
ROOT
HETATM    1 NA   UNL     3     -11.257   1.620   2.468  1.00  0.00     0.000 Na
ENDROOT
TORSDOF 7
ENDMDL
MODEL 3
REMARK VINA RESULT:      -1.2     19.033     19.033
REMARK  7 active torsions:
REMARK  status: ('A' for Active; 'I' for Inactive)
REMARK    1  A    between atoms: C_3  and  S_31 
REMARK    2  A    between atoms: C_6  and  N_7 
REMARK    3  A    between atoms: N_9  and  C_11 
REMARK    4  A    between atoms: C_12  and  C_28 
REMARK    5  A    between atoms: N_15  and  C_18 
REMARK    6  A    between atoms: C_21  and  S_24 
REMARK    7  A    between atoms: S_31  and  O_32 
ROOT
HETATM    1 NA   UNL     3     -27.015 -13.665 -13.026  1.00  0.00     0.000 Na
ENDROOT
TORSDOF 7
ENDMDL
MODEL 4
REMARK VINA RESULT:      -1.2     22.209     22.209
REMARK  7 active torsions:
REMARK  status: ('A' for Active; 'I' for Inactive)
REMARK    1  A    between atoms: C_3  and  S_31 
REMARK    2  A    between atoms: C_6  and  N_7 
REMARK    3  A    between atoms: N_9  and  C_11 
REMARK    4  A    between atoms: C_12  and  C_28 
REMARK    5  A    between atoms: N_15  and  C_18 
REMARK    6  A    between atoms: C_21  and  S_24 
REMARK    7  A    between atoms: S_31  and  O_32 
ROOT
HETATM    1 NA   UNL     3     -25.113   0.407 -14.459  1.00  0.00     0.000 Na
ENDROOT
TORSDOF 7
ENDMDL
MODEL 5
REMARK VINA RESULT:      -1.2     14.854     14.854
REMARK  7 active torsions:
REMARK  status: ('A' for Active; 'I' for Inactive)
REMARK    1  A    between atoms: C_3  and  S_31 
REMARK    2  A    between atoms: C_6  and  N_7 
REMARK    3  A    between atoms: N_9  and  C_11 
REMARK    4  A    between atoms: C_12  and  C_28 
REMARK    5  A    between atoms: N_15  and  C_18 
REMARK    6  A    between atoms: C_21  and  S_24 
REMARK    7  A    between atoms: S_31  and  O_32 
ROOT
HETATM    1 NA   UNL     3     -27.327  -5.622  -9.145  1.00  0.00     0.000 Na
ENDROOT
TORSDOF 7
ENDMDL
MODEL 6
REMARK VINA RESULT:      -1.2     34.910     34.910
REMARK  7 active torsions:
REMARK  status: ('A' for Active; 'I' for Inactive)
REMARK    1  A    between atoms: C_3  and  S_31 
REMARK    2  A    between atoms: C_6  and  N_7 
REMARK    3  A    between atoms: N_9  and  C_11 
REMARK    4  A    between atoms: C_12  and  C_28 
REMARK    5  A    between atoms: N_15  and  C_18 
REMARK    6  A    between atoms: C_21  and  S_24 
REMARK    7  A    between atoms: S_31  and  O_32 
ROOT
HETATM    1 NA   UNL     3      -9.118   5.886 -17.175  1.00  0.00     0.000 Na
ENDROOT
TORSDOF 7
ENDMDL
MODEL 7
REMARK VINA RESULT:      -1.1     10.385     10.385
REMARK  7 active torsions:
REMARK  status: ('A' for Active; 'I' for Inactive)
REMARK    1  A    between atoms: C_3  and  S_31 
REMARK    2  A    between atoms: C_6  and  N_7 
REMARK    3  A    between atoms: N_9  and  C_11 
REMARK    4  A    between atoms: C_12  and  C_28 
REMARK    5  A    between atoms: N_15  and  C_18 
REMARK    6  A    between atoms: C_21  and  S_24 
REMARK    7  A    between atoms: S_31  and  O_32 
ROOT
HETATM    1 NA   UNL     3     -36.646   0.747   6.028  1.00  0.00     0.000 Na
ENDROOT
TORSDOF 7
ENDMDL
MODEL 8
REMARK VINA RESULT:      -1.1     12.328     12.328
REMARK  7 active torsions:
REMARK  status: ('A' for Active; 'I' for Inactive)
REMARK    1  A    between atoms: C_3  and  S_31 
REMARK    2  A    between atoms: C_6  and  N_7 
REMARK    3  A    between atoms: N_9  and  C_11 
REMARK    4  A    between atoms: C_12  and  C_28 
REMARK    5  A    between atoms: N_15  and  C_18 
REMARK    6  A    between atoms: C_21  and  S_24 
REMARK    7  A    between atoms: S_31  and  O_32 
ROOT
HETATM    1 NA   UNL     3     -25.223  -5.220  -4.974  1.00  0.00     0.000 Na
ENDROOT
TORSDOF 7
ENDMDL
MODEL 9
REMARK VINA RESULT:      -1.1     27.173     27.173
REMARK  7 active torsions:
REMARK  status: ('A' for Active; 'I' for Inactive)
REMARK    1  A    between atoms: C_3  and  S_31 
REMARK    2  A    between atoms: C_6  and  N_7 
REMARK    3  A    between atoms: N_9  and  C_11 
REMARK    4  A    between atoms: C_12  and  C_28 
REMARK    5  A    between atoms: N_15  and  C_18 
REMARK    6  A    between atoms: C_21  and  S_24 
REMARK    7  A    between atoms: S_31  and  O_32 
ROOT
HETATM    1 NA   UNL     3     -11.561   1.297  -9.956  1.00  0.00     0.000 Na
ENDROOT
TORSDOF 7
ENDMDL
