MODEL 1
REMARK VINA RESULT:      -6.8      0.000      0.000
REMARK WARNING: 32 MAX_TORS EXCEEDED!!!
REMARK  37 active torsions:
REMARK  status: ('A' for Active; 'I' for Inactive)
REMARK    1  A    between atoms: C_2  and  C_3 
REMARK    2  A    between atoms: C_3  and  C_4 
REMARK    3  A    between atoms: C_4  and  C_5 
REMARK    4  A    between atoms: C_5  and  C_6 
REMARK    5  A    between atoms: C_6  and  C_7 
REMARK    6  A    between atoms: C_7  and  C_8 
REMARK    7  A    between atoms: C_8  and  C_9 
REMARK    8  A    between atoms: C_9  and  C_10 
REMARK    9  A    between atoms: C_10  and  C_11 
REMARK   10  A    between atoms: C_11  and  C_12 
REMARK   11  A    between atoms: C_12  and  C_13 
REMARK   12  A    between atoms: C_13  and  C_14 
REMARK   13  A    between atoms: C_14  and  C_15 
REMARK   14  A    between atoms: C_15  and  C_16 
REMARK   15  A    between atoms: C_16  and  C_17 
REMARK   16  A    between atoms: C_17  and  C_18 
REMARK       I    between atoms: C_18  and  N_20 
REMARK   17  A    between atoms: N_20  and  C_21 
REMARK   18  A    between atoms: C_21  and  C_22 
REMARK   19  A    between atoms: C_22  and  C_23 
REMARK   20  A    between atoms: C_23  and  N_24 
REMARK   21  A    between atoms: C_29  and  C_30 
REMARK   22  A    between atoms: C_30  and  C_31 
REMARK   23  A    between atoms: C_31  and  C_32 
REMARK   24  A    between atoms: C_32  and  C_33 
REMARK   25  A    between atoms: C_33  and  C_34 
REMARK   26  A    between atoms: C_34  and  C_35 
REMARK   27  A    between atoms: C_35  and  C_36 
REMARK   28  A    between atoms: C_36  and  C_37 
REMARK   29  A    between atoms: C_37  and  C_38 
REMARK   30  A    between atoms: C_38  and  C_39 
REMARK   31  A    between atoms: C_39  and  C_40 
REMARK   32  A    between atoms: C_40  and  C_41 
REMARK   33  A    between atoms: C_41  and  C_42 
REMARK   34  A    between atoms: C_42  and  C_43 
REMARK   35  A    between atoms: C_43  and  C_44 
REMARK   36  A    between atoms: C_44  and  C_45 
REMARK   37  A    between atoms: C_45  and  O_47 
ROOT
HETATM    1  C   UNL     2     -19.996  -5.134  -6.369  1.00  0.00     0.000 C 
ENDROOT
BRANCH   1   2
HETATM    2  C   UNL     2     -20.803  -5.507  -5.140  1.00  0.00     0.000 C 
BRANCH   2   3
HETATM    3  C   UNL     2     -20.841  -7.011  -5.011  1.00  0.00     0.000 C 
BRANCH   3   4
HETATM    4  C   UNL     2     -21.400  -7.414  -3.659  1.00  0.00     0.000 C 
BRANCH   4   5
HETATM    5  C   UNL     2     -21.493  -6.152  -2.839  1.00  0.00     0.000 C 
BRANCH   5   6
HETATM    6  C   UNL     2     -22.260  -6.341  -1.551  1.00  0.00     0.000 C 
BRANCH   6   7
HETATM    7  C   UNL     2     -21.652  -7.570  -0.899  1.00  0.00     0.000 C 
BRANCH   7   8
HETATM    8  C   UNL     2     -22.643  -8.269  -0.010  1.00  0.00     0.000 C 
BRANCH   8   9
HETATM    9  C   UNL     2     -22.359  -9.753  -0.014  1.00  0.00    -0.000 C 
BRANCH   9  10
HETATM   10  C   UNL     2     -23.570 -10.521  -0.486  1.00  0.00    -0.005 C 
HETATM   11  C   UNL     2     -23.774 -11.896   0.122  1.00  0.00     0.005 C 
ENDBRANCH   9  10
ENDBRANCH   8   9
ENDBRANCH   7   8
ENDBRANCH   6   7
ENDBRANCH   5   6
ENDBRANCH   4   5
ENDBRANCH   3   4
ENDBRANCH   2   3
ENDBRANCH   1   2
BRANCH   1  12
HETATM   12  C   UNL     2     -20.724  -4.048  -7.134  1.00  0.00     0.000 C 
BRANCH  12  13
HETATM   13  C   UNL     2     -22.179  -4.431  -7.340  1.00  0.00     0.000 C 
BRANCH  13  14
HETATM   14  C   UNL     2     -22.669  -3.883  -8.672  1.00  0.00     0.000 C 
BRANCH  14  15
HETATM   15  C   UNL     2     -21.623  -4.093  -9.758  1.00  0.00     0.001 C 
BRANCH  15  16
HETATM   16  C   UNL     2     -22.294  -4.319 -11.108  1.00  0.00     0.010 C 
BRANCH  16  17
HETATM   17  C   UNL     2     -22.781  -3.002 -11.700  1.00  0.00     0.110 C 
BRANCH  17  18
HETATM   18  C   UNL     2     -24.245  -3.092 -12.107  1.00  0.00     0.139 C 
HETATM   19  O   UNL     2     -24.662  -3.100 -13.245  1.00  0.00    -0.650 OA
BRANCH  18  20
HETATM   20  O   UNL     2     -25.048  -3.166 -11.009  1.00  0.00    -0.776 OA
HETATM   21  H   UNL     2     -25.384  -4.064 -10.811  1.00  0.00     0.167 HD
ENDBRANCH  18  20
ENDBRANCH  17  18
ENDBRANCH  16  17
ENDBRANCH  15  16
ENDBRANCH  14  15
ENDBRANCH  13  14
ENDBRANCH  12  13
ENDBRANCH   1  12
TORSDOF 37
ENDMDL
MODEL 2
REMARK VINA RESULT:      -6.8      1.867      2.923
REMARK WARNING: 32 MAX_TORS EXCEEDED!!!
REMARK  37 active torsions:
REMARK  status: ('A' for Active; 'I' for Inactive)
REMARK    1  A    between atoms: C_2  and  C_3 
REMARK    2  A    between atoms: C_3  and  C_4 
REMARK    3  A    between atoms: C_4  and  C_5 
REMARK    4  A    between atoms: C_5  and  C_6 
REMARK    5  A    between atoms: C_6  and  C_7 
REMARK    6  A    between atoms: C_7  and  C_8 
REMARK    7  A    between atoms: C_8  and  C_9 
REMARK    8  A    between atoms: C_9  and  C_10 
REMARK    9  A    between atoms: C_10  and  C_11 
REMARK   10  A    between atoms: C_11  and  C_12 
REMARK   11  A    between atoms: C_12  and  C_13 
REMARK   12  A    between atoms: C_13  and  C_14 
REMARK   13  A    between atoms: C_14  and  C_15 
REMARK   14  A    between atoms: C_15  and  C_16 
REMARK   15  A    between atoms: C_16  and  C_17 
REMARK   16  A    between atoms: C_17  and  C_18 
REMARK       I    between atoms: C_18  and  N_20 
REMARK   17  A    between atoms: N_20  and  C_21 
REMARK   18  A    between atoms: C_21  and  C_22 
REMARK   19  A    between atoms: C_22  and  C_23 
REMARK   20  A    between atoms: C_23  and  N_24 
REMARK   21  A    between atoms: C_29  and  C_30 
REMARK   22  A    between atoms: C_30  and  C_31 
REMARK   23  A    between atoms: C_31  and  C_32 
REMARK   24  A    between atoms: C_32  and  C_33 
REMARK   25  A    between atoms: C_33  and  C_34 
REMARK   26  A    between atoms: C_34  and  C_35 
REMARK   27  A    between atoms: C_35  and  C_36 
REMARK   28  A    between atoms: C_36  and  C_37 
REMARK   29  A    between atoms: C_37  and  C_38 
REMARK   30  A    between atoms: C_38  and  C_39 
REMARK   31  A    between atoms: C_39  and  C_40 
REMARK   32  A    between atoms: C_40  and  C_41 
REMARK   33  A    between atoms: C_41  and  C_42 
REMARK   34  A    between atoms: C_42  and  C_43 
REMARK   35  A    between atoms: C_43  and  C_44 
REMARK   36  A    between atoms: C_44  and  C_45 
REMARK   37  A    between atoms: C_45  and  O_47 
ROOT
HETATM    1  C   UNL     2     -21.700  -4.200  -7.560  1.00  0.00     0.000 C 
ENDROOT
BRANCH   1   2
HETATM    2  C   UNL     2     -20.207  -4.041  -7.341  1.00  0.00     0.000 C 
BRANCH   2   3
HETATM    3  C   UNL     2     -19.752  -5.035  -6.300  1.00  0.00     0.000 C 
BRANCH   3   4
HETATM    4  C   UNL     2     -20.928  -5.848  -5.792  1.00  0.00     0.000 C 
BRANCH   4   5
HETATM    5  C   UNL     2     -20.361  -7.139  -5.258  1.00  0.00     0.000 C 
BRANCH   5   6
HETATM    6  C   UNL     2     -21.100  -7.650  -4.044  1.00  0.00     0.000 C 
BRANCH   6   7
HETATM    7  C   UNL     2     -21.847  -6.448  -3.494  1.00  0.00     0.000 C 
BRANCH   7   8
HETATM    8  C   UNL     2     -21.798  -6.410  -1.991  1.00  0.00     0.000 C 
BRANCH   8   9
HETATM    9  C   UNL     2     -22.066  -7.793  -1.447  1.00  0.00    -0.000 C 
BRANCH   9  10
HETATM   10  C   UNL     2     -21.364  -7.986  -0.124  1.00  0.00    -0.005 C 
HETATM   11  C   UNL     2     -22.254  -8.122   1.097  1.00  0.00     0.005 C 
ENDBRANCH   9  10
ENDBRANCH   8   9
ENDBRANCH   7   8
ENDBRANCH   6   7
ENDBRANCH   5   6
ENDBRANCH   4   5
ENDBRANCH   3   4
ENDBRANCH   2   3
ENDBRANCH   1   2
BRANCH   1  12
HETATM   12  C   UNL     2     -22.003  -4.077  -9.040  1.00  0.00     0.000 C 
BRANCH  12  13
HETATM   13  C   UNL     2     -20.718  -4.103  -9.847  1.00  0.00     0.000 C 
BRANCH  13  14
HETATM   14  C   UNL     2     -21.044  -4.039 -11.331  1.00  0.00     0.000 C 
BRANCH  14  15
HETATM   15  C   UNL     2     -22.300  -3.214 -11.572  1.00  0.00     0.001 C 
BRANCH  15  16
HETATM   16  C   UNL     2     -22.664  -3.217 -13.052  1.00  0.00     0.010 C 
BRANCH  16  17
HETATM   17  C   UNL     2     -23.903  -2.367 -13.309  1.00  0.00     0.110 C 
BRANCH  17  18
HETATM   18  C   UNL     2     -23.775  -1.592 -14.614  1.00  0.00     0.139 C 
HETATM   19  O   UNL     2     -22.935  -1.783 -15.466  1.00  0.00    -0.650 OA
BRANCH  18  20
HETATM   20  O   UNL     2     -24.741  -0.638 -14.707  1.00  0.00    -0.776 OA
HETATM   21  H   UNL     2     -25.501  -0.769 -14.104  1.00  0.00     0.167 HD
ENDBRANCH  18  20
ENDBRANCH  17  18
ENDBRANCH  16  17
ENDBRANCH  15  16
ENDBRANCH  14  15
ENDBRANCH  13  14
ENDBRANCH  12  13
ENDBRANCH   1  12
TORSDOF 37
ENDMDL
MODEL 3
REMARK VINA RESULT:      -6.8      1.111      1.438
REMARK WARNING: 32 MAX_TORS EXCEEDED!!!
REMARK  37 active torsions:
REMARK  status: ('A' for Active; 'I' for Inactive)
REMARK    1  A    between atoms: C_2  and  C_3 
REMARK    2  A    between atoms: C_3  and  C_4 
REMARK    3  A    between atoms: C_4  and  C_5 
REMARK    4  A    between atoms: C_5  and  C_6 
REMARK    5  A    between atoms: C_6  and  C_7 
REMARK    6  A    between atoms: C_7  and  C_8 
REMARK    7  A    between atoms: C_8  and  C_9 
REMARK    8  A    between atoms: C_9  and  C_10 
REMARK    9  A    between atoms: C_10  and  C_11 
REMARK   10  A    between atoms: C_11  and  C_12 
REMARK   11  A    between atoms: C_12  and  C_13 
REMARK   12  A    between atoms: C_13  and  C_14 
REMARK   13  A    between atoms: C_14  and  C_15 
REMARK   14  A    between atoms: C_15  and  C_16 
REMARK   15  A    between atoms: C_16  and  C_17 
REMARK   16  A    between atoms: C_17  and  C_18 
REMARK       I    between atoms: C_18  and  N_20 
REMARK   17  A    between atoms: N_20  and  C_21 
REMARK   18  A    between atoms: C_21  and  C_22 
REMARK   19  A    between atoms: C_22  and  C_23 
REMARK   20  A    between atoms: C_23  and  N_24 
REMARK   21  A    between atoms: C_29  and  C_30 
REMARK   22  A    between atoms: C_30  and  C_31 
REMARK   23  A    between atoms: C_31  and  C_32 
REMARK   24  A    between atoms: C_32  and  C_33 
REMARK   25  A    between atoms: C_33  and  C_34 
REMARK   26  A    between atoms: C_34  and  C_35 
REMARK   27  A    between atoms: C_35  and  C_36 
REMARK   28  A    between atoms: C_36  and  C_37 
REMARK   29  A    between atoms: C_37  and  C_38 
REMARK   30  A    between atoms: C_38  and  C_39 
REMARK   31  A    between atoms: C_39  and  C_40 
REMARK   32  A    between atoms: C_40  and  C_41 
REMARK   33  A    between atoms: C_41  and  C_42 
REMARK   34  A    between atoms: C_42  and  C_43 
REMARK   35  A    between atoms: C_43  and  C_44 
REMARK   36  A    between atoms: C_44  and  C_45 
REMARK   37  A    between atoms: C_45  and  O_47 
ROOT
HETATM    1  C   UNL     2     -21.071  -6.412  -6.662  1.00  0.00     0.000 C 
ENDROOT
BRANCH   1   2
HETATM    2  C   UNL     2     -21.299  -7.226  -5.403  1.00  0.00     0.000 C 
BRANCH   2   3
HETATM    3  C   UNL     2     -21.849  -6.325  -4.324  1.00  0.00     0.000 C 
BRANCH   3   4
HETATM    4  C   UNL     2     -21.212  -6.649  -2.986  1.00  0.00     0.000 C 
BRANCH   4   5
HETATM    5  C   UNL     2     -22.143  -6.116  -1.926  1.00  0.00     0.000 C 
BRANCH   5   6
HETATM    6  C   UNL     2     -22.332  -7.072  -0.772  1.00  0.00     0.000 C 
BRANCH   6   7
HETATM    7  C   UNL     2     -21.455  -8.269  -1.095  1.00  0.00     0.000 C 
BRANCH   7   8
HETATM    8  C   UNL     2     -22.262  -9.535  -1.181  1.00  0.00     0.000 C 
BRANCH   8   9
HETATM    9  C   UNL     2     -23.176  -9.627   0.018  1.00  0.00    -0.000 C 
BRANCH   9  10
HETATM   10  C   UNL     2     -24.139 -10.780  -0.138  1.00  0.00    -0.005 C 
HETATM   11  C   UNL     2     -23.771 -11.830  -1.168  1.00  0.00     0.005 C 
ENDBRANCH   9  10
ENDBRANCH   8   9
ENDBRANCH   7   8
ENDBRANCH   6   7
ENDBRANCH   5   6
ENDBRANCH   4   5
ENDBRANCH   3   4
ENDBRANCH   2   3
ENDBRANCH   1   2
BRANCH   1  12
HETATM   12  C   UNL     2     -20.086  -5.299  -6.366  1.00  0.00     0.000 C 
BRANCH  12  13
HETATM   13  C   UNL     2     -20.079  -4.284  -7.494  1.00  0.00     0.000 C 
BRANCH  13  14
HETATM   14  C   UNL     2     -21.201  -4.596  -8.472  1.00  0.00     0.000 C 
BRANCH  14  15
HETATM   15  C   UNL     2     -20.774  -4.285  -9.899  1.00  0.00     0.001 C 
BRANCH  15  16
HETATM   16  C   UNL     2     -21.893  -3.567 -10.646  1.00  0.00     0.010 C 
BRANCH  16  17
HETATM   17  C   UNL     2     -23.211  -4.320 -10.505  1.00  0.00     0.110 C 
BRANCH  17  18
HETATM   18  C   UNL     2     -24.396  -3.365 -10.571  1.00  0.00     0.139 C 
HETATM   19  O   UNL     2     -25.034  -3.103 -11.568  1.00  0.00    -0.650 OA
BRANCH  18  20
HETATM   20  O   UNL     2     -24.655  -2.832  -9.346  1.00  0.00    -0.776 OA
HETATM   21  H   UNL     2     -24.742  -1.857  -9.338  1.00  0.00     0.167 HD
ENDBRANCH  18  20
ENDBRANCH  17  18
ENDBRANCH  16  17
ENDBRANCH  15  16
ENDBRANCH  14  15
ENDBRANCH  13  14
ENDBRANCH  12  13
ENDBRANCH   1  12
TORSDOF 37
ENDMDL
MODEL 4
REMARK VINA RESULT:      -6.1      1.566      2.334
REMARK WARNING: 32 MAX_TORS EXCEEDED!!!
REMARK  37 active torsions:
REMARK  status: ('A' for Active; 'I' for Inactive)
REMARK    1  A    between atoms: C_2  and  C_3 
REMARK    2  A    between atoms: C_3  and  C_4 
REMARK    3  A    between atoms: C_4  and  C_5 
REMARK    4  A    between atoms: C_5  and  C_6 
REMARK    5  A    between atoms: C_6  and  C_7 
REMARK    6  A    between atoms: C_7  and  C_8 
REMARK    7  A    between atoms: C_8  and  C_9 
REMARK    8  A    between atoms: C_9  and  C_10 
REMARK    9  A    between atoms: C_10  and  C_11 
REMARK   10  A    between atoms: C_11  and  C_12 
REMARK   11  A    between atoms: C_12  and  C_13 
REMARK   12  A    between atoms: C_13  and  C_14 
REMARK   13  A    between atoms: C_14  and  C_15 
REMARK   14  A    between atoms: C_15  and  C_16 
REMARK   15  A    between atoms: C_16  and  C_17 
REMARK   16  A    between atoms: C_17  and  C_18 
REMARK       I    between atoms: C_18  and  N_20 
REMARK   17  A    between atoms: N_20  and  C_21 
REMARK   18  A    between atoms: C_21  and  C_22 
REMARK   19  A    between atoms: C_22  and  C_23 
REMARK   20  A    between atoms: C_23  and  N_24 
REMARK   21  A    between atoms: C_29  and  C_30 
REMARK   22  A    between atoms: C_30  and  C_31 
REMARK   23  A    between atoms: C_31  and  C_32 
REMARK   24  A    between atoms: C_32  and  C_33 
REMARK   25  A    between atoms: C_33  and  C_34 
REMARK   26  A    between atoms: C_34  and  C_35 
REMARK   27  A    between atoms: C_35  and  C_36 
REMARK   28  A    between atoms: C_36  and  C_37 
REMARK   29  A    between atoms: C_37  and  C_38 
REMARK   30  A    between atoms: C_38  and  C_39 
REMARK   31  A    between atoms: C_39  and  C_40 
REMARK   32  A    between atoms: C_40  and  C_41 
REMARK   33  A    between atoms: C_41  and  C_42 
REMARK   34  A    between atoms: C_42  and  C_43 
REMARK   35  A    between atoms: C_43  and  C_44 
REMARK   36  A    between atoms: C_44  and  C_45 
REMARK   37  A    between atoms: C_45  and  O_47 
ROOT
HETATM    1  C   UNL     2     -21.029  -5.223  -5.608  1.00  0.00     0.000 C 
ENDROOT
BRANCH   1   2
HETATM    2  C   UNL     2     -20.381  -6.436  -4.968  1.00  0.00     0.000 C 
BRANCH   2   3
HETATM    3  C   UNL     2     -20.946  -7.687  -5.594  1.00  0.00     0.000 C 
BRANCH   3   4
HETATM    4  C   UNL     2     -21.905  -8.372  -4.639  1.00  0.00     0.000 C 
BRANCH   4   5
HETATM    5  C   UNL     2     -21.238  -9.652  -4.204  1.00  0.00     0.000 C 
BRANCH   5   6
HETATM    6  C   UNL     2     -21.192  -9.812  -2.702  1.00  0.00     0.000 C 
BRANCH   6   7
HETATM    7  C   UNL     2     -20.206  -8.765  -2.217  1.00  0.00     0.000 C 
BRANCH   7   8
HETATM    8  C   UNL     2     -20.657  -8.140  -0.926  1.00  0.00     0.000 C 
BRANCH   8   9
HETATM    9  C   UNL     2     -22.009  -7.495  -1.129  1.00  0.00    -0.000 C 
BRANCH   9  10
HETATM   10  C   UNL     2     -22.884  -7.709   0.083  1.00  0.00    -0.005 C 
HETATM   11  C   UNL     2     -23.417  -9.113   0.290  1.00  0.00     0.005 C 
ENDBRANCH   9  10
ENDBRANCH   8   9
ENDBRANCH   7   8
ENDBRANCH   6   7
ENDBRANCH   5   6
ENDBRANCH   4   5
ENDBRANCH   3   4
ENDBRANCH   2   3
ENDBRANCH   1   2
BRANCH   1  12
HETATM   12  C   UNL     2     -20.055  -4.592  -6.581  1.00  0.00     0.000 C 
BRANCH  12  13
HETATM   13  C   UNL     2     -20.803  -3.924  -7.721  1.00  0.00     0.000 C 
BRANCH  13  14
HETATM   14  C   UNL     2     -20.046  -4.133  -9.023  1.00  0.00     0.000 C 
BRANCH  14  15
HETATM   15  C   UNL     2     -21.009  -4.223 -10.198  1.00  0.00     0.001 C 
BRANCH  15  16
HETATM   16  C   UNL     2     -22.364  -4.748  -9.737  1.00  0.00     0.010 C 
BRANCH  16  17
HETATM   17  C   UNL     2     -23.492  -4.150 -10.570  1.00  0.00     0.110 C 
BRANCH  17  18
HETATM   18  C   UNL     2     -24.601  -3.608  -9.679  1.00  0.00     0.139 C 
HETATM   19  O   UNL     2     -25.631  -3.100 -10.068  1.00  0.00    -0.650 OA
BRANCH  18  20
HETATM   20  O   UNL     2     -24.288  -3.767  -8.364  1.00  0.00    -0.776 OA
HETATM   21  H   UNL     2     -25.051  -3.967  -7.786  1.00  0.00     0.167 HD
ENDBRANCH  18  20
ENDBRANCH  17  18
ENDBRANCH  16  17
ENDBRANCH  15  16
ENDBRANCH  14  15
ENDBRANCH  13  14
ENDBRANCH  12  13
ENDBRANCH   1  12
TORSDOF 37
ENDMDL
MODEL 5
REMARK VINA RESULT:      -6.1      1.734      3.727
REMARK WARNING: 32 MAX_TORS EXCEEDED!!!
REMARK  37 active torsions:
REMARK  status: ('A' for Active; 'I' for Inactive)
REMARK    1  A    between atoms: C_2  and  C_3 
REMARK    2  A    between atoms: C_3  and  C_4 
REMARK    3  A    between atoms: C_4  and  C_5 
REMARK    4  A    between atoms: C_5  and  C_6 
REMARK    5  A    between atoms: C_6  and  C_7 
REMARK    6  A    between atoms: C_7  and  C_8 
REMARK    7  A    between atoms: C_8  and  C_9 
REMARK    8  A    between atoms: C_9  and  C_10 
REMARK    9  A    between atoms: C_10  and  C_11 
REMARK   10  A    between atoms: C_11  and  C_12 
REMARK   11  A    between atoms: C_12  and  C_13 
REMARK   12  A    between atoms: C_13  and  C_14 
REMARK   13  A    between atoms: C_14  and  C_15 
REMARK   14  A    between atoms: C_15  and  C_16 
REMARK   15  A    between atoms: C_16  and  C_17 
REMARK   16  A    between atoms: C_17  and  C_18 
REMARK       I    between atoms: C_18  and  N_20 
REMARK   17  A    between atoms: N_20  and  C_21 
REMARK   18  A    between atoms: C_21  and  C_22 
REMARK   19  A    between atoms: C_22  and  C_23 
REMARK   20  A    between atoms: C_23  and  N_24 
REMARK   21  A    between atoms: C_29  and  C_30 
REMARK   22  A    between atoms: C_30  and  C_31 
REMARK   23  A    between atoms: C_31  and  C_32 
REMARK   24  A    between atoms: C_32  and  C_33 
REMARK   25  A    between atoms: C_33  and  C_34 
REMARK   26  A    between atoms: C_34  and  C_35 
REMARK   27  A    between atoms: C_35  and  C_36 
REMARK   28  A    between atoms: C_36  and  C_37 
REMARK   29  A    between atoms: C_37  and  C_38 
REMARK   30  A    between atoms: C_38  and  C_39 
REMARK   31  A    between atoms: C_39  and  C_40 
REMARK   32  A    between atoms: C_40  and  C_41 
REMARK   33  A    between atoms: C_41  and  C_42 
REMARK   34  A    between atoms: C_42  and  C_43 
REMARK   35  A    between atoms: C_43  and  C_44 
REMARK   36  A    between atoms: C_44  and  C_45 
REMARK   37  A    between atoms: C_45  and  O_47 
ROOT
HETATM    1  C   UNL     2     -21.602  -7.234  -2.915  1.00  0.00     0.000 C 
ENDROOT
BRANCH   1   2
HETATM    2  C   UNL     2     -22.145  -6.401  -1.770  1.00  0.00     0.000 C 
BRANCH   2   3
HETATM    3  C   UNL     2     -22.511  -7.315  -0.625  1.00  0.00     0.000 C 
BRANCH   3   4
HETATM    4  C   UNL     2     -21.352  -8.233  -0.287  1.00  0.00     0.000 C 
BRANCH   4   5
HETATM    5  C   UNL     2     -21.945  -9.443   0.390  1.00  0.00     0.000 C 
BRANCH   5   6
HETATM    6  C   UNL     2     -23.334  -9.774  -0.105  1.00  0.00     0.000 C 
BRANCH   6   7
HETATM    7  C   UNL     2     -23.137 -10.838  -1.169  1.00  0.00     0.000 C 
BRANCH   7   8
HETATM    8  C   UNL     2     -22.665 -12.134  -0.571  1.00  0.00     0.000 C 
BRANCH   8   9
HETATM    9  C   UNL     2     -23.547 -12.493   0.602  1.00  0.00    -0.000 C 
BRANCH   9  10
HETATM   10  C   UNL     2     -22.838 -13.462   1.519  1.00  0.00    -0.005 C 
HETATM   11  C   UNL     2     -23.700 -14.173   2.544  1.00  0.00     0.005 C 
ENDBRANCH   9  10
ENDBRANCH   8   9
ENDBRANCH   7   8
ENDBRANCH   6   7
ENDBRANCH   5   6
ENDBRANCH   4   5
ENDBRANCH   3   4
ENDBRANCH   2   3
ENDBRANCH   1   2
BRANCH   1  12
HETATM   12  C   UNL     2     -21.120  -6.313  -4.018  1.00  0.00     0.000 C 
BRANCH  12  13
HETATM   13  C   UNL     2     -21.975  -6.482  -5.261  1.00  0.00     0.000 C 
BRANCH  13  14
HETATM   14  C   UNL     2     -21.177  -6.079  -6.490  1.00  0.00     0.000 C 
BRANCH  14  15
HETATM   15  C   UNL     2     -20.663  -4.653  -6.355  1.00  0.00     0.001 C 
BRANCH  15  16
HETATM   16  C   UNL     2     -21.375  -3.734  -7.341  1.00  0.00     0.010 C 
BRANCH  16  17
HETATM   17  C   UNL     2     -22.779  -4.245  -7.645  1.00  0.00     0.110 C 
BRANCH  17  18
HETATM   18  C   UNL     2     -23.281  -3.706  -8.978  1.00  0.00     0.139 C 
HETATM   19  O   UNL     2     -22.600  -3.516  -9.962  1.00  0.00    -0.650 OA
BRANCH  18  20
HETATM   20  O   UNL     2     -24.619  -3.460  -8.926  1.00  0.00    -0.776 OA
HETATM   21  H   UNL     2     -24.968  -2.950  -9.685  1.00  0.00     0.167 HD
ENDBRANCH  18  20
ENDBRANCH  17  18
ENDBRANCH  16  17
ENDBRANCH  15  16
ENDBRANCH  14  15
ENDBRANCH  13  14
ENDBRANCH  12  13
ENDBRANCH   1  12
TORSDOF 37
ENDMDL
MODEL 6
REMARK VINA RESULT:      -6.0      5.050     10.376
REMARK WARNING: 32 MAX_TORS EXCEEDED!!!
REMARK  37 active torsions:
REMARK  status: ('A' for Active; 'I' for Inactive)
REMARK    1  A    between atoms: C_2  and  C_3 
REMARK    2  A    between atoms: C_3  and  C_4 
REMARK    3  A    between atoms: C_4  and  C_5 
REMARK    4  A    between atoms: C_5  and  C_6 
REMARK    5  A    between atoms: C_6  and  C_7 
REMARK    6  A    between atoms: C_7  and  C_8 
REMARK    7  A    between atoms: C_8  and  C_9 
REMARK    8  A    between atoms: C_9  and  C_10 
REMARK    9  A    between atoms: C_10  and  C_11 
REMARK   10  A    between atoms: C_11  and  C_12 
REMARK   11  A    between atoms: C_12  and  C_13 
REMARK   12  A    between atoms: C_13  and  C_14 
REMARK   13  A    between atoms: C_14  and  C_15 
REMARK   14  A    between atoms: C_15  and  C_16 
REMARK   15  A    between atoms: C_16  and  C_17 
REMARK   16  A    between atoms: C_17  and  C_18 
REMARK       I    between atoms: C_18  and  N_20 
REMARK   17  A    between atoms: N_20  and  C_21 
REMARK   18  A    between atoms: C_21  and  C_22 
REMARK   19  A    between atoms: C_22  and  C_23 
REMARK   20  A    between atoms: C_23  and  N_24 
REMARK   21  A    between atoms: C_29  and  C_30 
REMARK   22  A    between atoms: C_30  and  C_31 
REMARK   23  A    between atoms: C_31  and  C_32 
REMARK   24  A    between atoms: C_32  and  C_33 
REMARK   25  A    between atoms: C_33  and  C_34 
REMARK   26  A    between atoms: C_34  and  C_35 
REMARK   27  A    between atoms: C_35  and  C_36 
REMARK   28  A    between atoms: C_36  and  C_37 
REMARK   29  A    between atoms: C_37  and  C_38 
REMARK   30  A    between atoms: C_38  and  C_39 
REMARK   31  A    between atoms: C_39  and  C_40 
REMARK   32  A    between atoms: C_40  and  C_41 
REMARK   33  A    between atoms: C_41  and  C_42 
REMARK   34  A    between atoms: C_42  and  C_43 
REMARK   35  A    between atoms: C_43  and  C_44 
REMARK   36  A    between atoms: C_44  and  C_45 
REMARK   37  A    between atoms: C_45  and  O_47 
ROOT
HETATM    1  C   UNL     2     -21.476  -7.986  -2.901  1.00  0.00     0.000 C 
ENDROOT
BRANCH   1   2
HETATM    2  C   UNL     2     -20.836  -7.965  -4.276  1.00  0.00     0.000 C 
BRANCH   2   3
HETATM    3  C   UNL     2     -21.401  -6.811  -5.067  1.00  0.00     0.000 C 
BRANCH   3   4
HETATM    4  C   UNL     2     -20.464  -6.433  -6.199  1.00  0.00     0.000 C 
BRANCH   4   5
HETATM    5  C   UNL     2     -20.076  -4.993  -5.974  1.00  0.00     0.000 C 
BRANCH   5   6
HETATM    6  C   UNL     2     -19.955  -4.208  -7.259  1.00  0.00     0.000 C 
BRANCH   6   7
HETATM    7  C   UNL     2     -21.379  -3.864  -7.655  1.00  0.00     0.000 C 
BRANCH   7   8
HETATM    8  C   UNL     2     -21.690  -4.327  -9.051  1.00  0.00     0.000 C 
BRANCH   8   9
HETATM    9  C   UNL     2     -20.400  -4.500  -9.819  1.00  0.00    -0.000 C 
BRANCH   9  10
HETATM   10  C   UNL     2     -20.511  -3.872 -11.187  1.00  0.00    -0.005 C 
HETATM   11  C   UNL     2     -21.726  -2.998 -11.431  1.00  0.00     0.005 C 
ENDBRANCH   9  10
ENDBRANCH   8   9
ENDBRANCH   7   8
ENDBRANCH   6   7
ENDBRANCH   5   6
ENDBRANCH   4   5
ENDBRANCH   3   4
ENDBRANCH   2   3
ENDBRANCH   1   2
BRANCH   1  12
HETATM   12  C   UNL     2     -21.690  -6.563  -2.428  1.00  0.00     0.000 C 
BRANCH  12  13
HETATM   13  C   UNL     2     -22.281  -6.554  -1.030  1.00  0.00     0.000 C 
BRANCH  13  14
HETATM   14  C   UNL     2     -22.515  -7.982  -0.562  1.00  0.00     0.000 C 
BRANCH  14  15
HETATM   15  C   UNL     2     -21.978  -8.182   0.847  1.00  0.00     0.001 C 
BRANCH  15  16
HETATM   16  C   UNL     2     -21.024  -9.371   0.891  1.00  0.00     0.010 C 
BRANCH  16  17
HETATM   17  C   UNL     2     -21.682 -10.617   0.310  1.00  0.00     0.110 C 
BRANCH  17  18
HETATM   18  C   UNL     2     -20.644 -11.683  -0.013  1.00  0.00     0.139 C 
HETATM   19  O   UNL     2     -20.842 -12.682  -0.672  1.00  0.00    -0.650 OA
BRANCH  18  20
HETATM   20  O   UNL     2     -19.440 -11.370   0.540  1.00  0.00    -0.776 OA
HETATM   21  H   UNL     2     -19.226 -10.415   0.533  1.00  0.00     0.167 HD
ENDBRANCH  18  20
ENDBRANCH  17  18
ENDBRANCH  16  17
ENDBRANCH  15  16
ENDBRANCH  14  15
ENDBRANCH  13  14
ENDBRANCH  12  13
ENDBRANCH   1  12
TORSDOF 37
ENDMDL
MODEL 7
REMARK VINA RESULT:      -5.9      1.632      2.553
REMARK WARNING: 32 MAX_TORS EXCEEDED!!!
REMARK  37 active torsions:
REMARK  status: ('A' for Active; 'I' for Inactive)
REMARK    1  A    between atoms: C_2  and  C_3 
REMARK    2  A    between atoms: C_3  and  C_4 
REMARK    3  A    between atoms: C_4  and  C_5 
REMARK    4  A    between atoms: C_5  and  C_6 
REMARK    5  A    between atoms: C_6  and  C_7 
REMARK    6  A    between atoms: C_7  and  C_8 
REMARK    7  A    between atoms: C_8  and  C_9 
REMARK    8  A    between atoms: C_9  and  C_10 
REMARK    9  A    between atoms: C_10  and  C_11 
REMARK   10  A    between atoms: C_11  and  C_12 
REMARK   11  A    between atoms: C_12  and  C_13 
REMARK   12  A    between atoms: C_13  and  C_14 
REMARK   13  A    between atoms: C_14  and  C_15 
REMARK   14  A    between atoms: C_15  and  C_16 
REMARK   15  A    between atoms: C_16  and  C_17 
REMARK   16  A    between atoms: C_17  and  C_18 
REMARK       I    between atoms: C_18  and  N_20 
REMARK   17  A    between atoms: N_20  and  C_21 
REMARK   18  A    between atoms: C_21  and  C_22 
REMARK   19  A    between atoms: C_22  and  C_23 
REMARK   20  A    between atoms: C_23  and  N_24 
REMARK   21  A    between atoms: C_29  and  C_30 
REMARK   22  A    between atoms: C_30  and  C_31 
REMARK   23  A    between atoms: C_31  and  C_32 
REMARK   24  A    between atoms: C_32  and  C_33 
REMARK   25  A    between atoms: C_33  and  C_34 
REMARK   26  A    between atoms: C_34  and  C_35 
REMARK   27  A    between atoms: C_35  and  C_36 
REMARK   28  A    between atoms: C_36  and  C_37 
REMARK   29  A    between atoms: C_37  and  C_38 
REMARK   30  A    between atoms: C_38  and  C_39 
REMARK   31  A    between atoms: C_39  and  C_40 
REMARK   32  A    between atoms: C_40  and  C_41 
REMARK   33  A    between atoms: C_41  and  C_42 
REMARK   34  A    between atoms: C_42  and  C_43 
REMARK   35  A    between atoms: C_43  and  C_44 
REMARK   36  A    between atoms: C_44  and  C_45 
REMARK   37  A    between atoms: C_45  and  O_47 
ROOT
HETATM    1  C   UNL     2     -20.511  -7.011  -5.158  1.00  0.00     0.000 C 
ENDROOT
BRANCH   1   2
HETATM    2  C   UNL     2     -21.372  -6.232  -4.183  1.00  0.00     0.000 C 
BRANCH   2   3
HETATM    3  C   UNL     2     -21.572  -7.055  -2.933  1.00  0.00     0.000 C 
BRANCH   3   4
HETATM    4  C   UNL     2     -21.991  -6.169  -1.775  1.00  0.00     0.000 C 
BRANCH   4   5
HETATM    5  C   UNL     2     -22.588  -7.079  -0.732  1.00  0.00     0.000 C 
BRANCH   5   6
HETATM    6  C   UNL     2     -21.549  -7.887   0.011  1.00  0.00     0.000 C 
BRANCH   6   7
HETATM    7  C   UNL     2     -22.171  -9.258   0.205  1.00  0.00     0.000 C 
BRANCH   7   8
HETATM    8  C   UNL     2     -21.170 -10.355  -0.035  1.00  0.00     0.000 C 
BRANCH   8   9
HETATM    9  C   UNL     2     -20.632 -10.242  -1.442  1.00  0.00    -0.000 C 
BRANCH   9  10
HETATM   10  C   UNL     2     -21.390 -11.159  -2.373  1.00  0.00    -0.005 C 
HETATM   11  C   UNL     2     -22.269 -10.488  -3.411  1.00  0.00     0.005 C 
ENDBRANCH   9  10
ENDBRANCH   8   9
ENDBRANCH   7   8
ENDBRANCH   6   7
ENDBRANCH   5   6
ENDBRANCH   4   5
ENDBRANCH   3   4
ENDBRANCH   2   3
ENDBRANCH   1   2
BRANCH   1  12
HETATM   12  C   UNL     2     -20.319  -6.192  -6.419  1.00  0.00     0.000 C 
BRANCH  12  13
HETATM   13  C   UNL     2     -20.728  -4.750  -6.180  1.00  0.00     0.000 C 
BRANCH  13  14
HETATM   14  C   UNL     2     -20.858  -4.028  -7.512  1.00  0.00     0.000 C 
BRANCH  14  15
HETATM   15  C   UNL     2     -19.672  -4.342  -8.414  1.00  0.00     0.001 C 
BRANCH  15  16
HETATM   16  C   UNL     2     -20.151  -4.736  -9.806  1.00  0.00     0.010 C 
BRANCH  16  17
HETATM   17  C   UNL     2     -20.856  -3.570 -10.489  1.00  0.00     0.110 C 
BRANCH  17  18
HETATM   18  C   UNL     2     -22.225  -3.987 -11.010  1.00  0.00     0.139 C 
HETATM   19  O   UNL     2     -23.276  -3.843 -10.423  1.00  0.00    -0.650 OA
BRANCH  18  20
HETATM   20  O   UNL     2     -22.120  -4.555 -12.242  1.00  0.00    -0.776 OA
HETATM   21  H   UNL     2     -22.269  -3.939 -12.988  1.00  0.00     0.167 HD
ENDBRANCH  18  20
ENDBRANCH  17  18
ENDBRANCH  16  17
ENDBRANCH  15  16
ENDBRANCH  14  15
ENDBRANCH  13  14
ENDBRANCH  12  13
ENDBRANCH   1  12
TORSDOF 37
ENDMDL
MODEL 8
REMARK VINA RESULT:      -5.9      2.250      3.236
REMARK WARNING: 32 MAX_TORS EXCEEDED!!!
REMARK  37 active torsions:
REMARK  status: ('A' for Active; 'I' for Inactive)
REMARK    1  A    between atoms: C_2  and  C_3 
REMARK    2  A    between atoms: C_3  and  C_4 
REMARK    3  A    between atoms: C_4  and  C_5 
REMARK    4  A    between atoms: C_5  and  C_6 
REMARK    5  A    between atoms: C_6  and  C_7 
REMARK    6  A    between atoms: C_7  and  C_8 
REMARK    7  A    between atoms: C_8  and  C_9 
REMARK    8  A    between atoms: C_9  and  C_10 
REMARK    9  A    between atoms: C_10  and  C_11 
REMARK   10  A    between atoms: C_11  and  C_12 
REMARK   11  A    between atoms: C_12  and  C_13 
REMARK   12  A    between atoms: C_13  and  C_14 
REMARK   13  A    between atoms: C_14  and  C_15 
REMARK   14  A    between atoms: C_15  and  C_16 
REMARK   15  A    between atoms: C_16  and  C_17 
REMARK   16  A    between atoms: C_17  and  C_18 
REMARK       I    between atoms: C_18  and  N_20 
REMARK   17  A    between atoms: N_20  and  C_21 
REMARK   18  A    between atoms: C_21  and  C_22 
REMARK   19  A    between atoms: C_22  and  C_23 
REMARK   20  A    between atoms: C_23  and  N_24 
REMARK   21  A    between atoms: C_29  and  C_30 
REMARK   22  A    between atoms: C_30  and  C_31 
REMARK   23  A    between atoms: C_31  and  C_32 
REMARK   24  A    between atoms: C_32  and  C_33 
REMARK   25  A    between atoms: C_33  and  C_34 
REMARK   26  A    between atoms: C_34  and  C_35 
REMARK   27  A    between atoms: C_35  and  C_36 
REMARK   28  A    between atoms: C_36  and  C_37 
REMARK   29  A    between atoms: C_37  and  C_38 
REMARK   30  A    between atoms: C_38  and  C_39 
REMARK   31  A    between atoms: C_39  and  C_40 
REMARK   32  A    between atoms: C_40  and  C_41 
REMARK   33  A    between atoms: C_41  and  C_42 
REMARK   34  A    between atoms: C_42  and  C_43 
REMARK   35  A    between atoms: C_43  and  C_44 
REMARK   36  A    between atoms: C_44  and  C_45 
REMARK   37  A    between atoms: C_45  and  O_47 
ROOT
HETATM    1  C   UNL     2     -20.676  -5.201  -5.762  1.00  0.00     0.000 C 
ENDROOT
BRANCH   1   2
HETATM    2  C   UNL     2     -20.485  -6.675  -5.461  1.00  0.00     0.000 C 
BRANCH   2   3
HETATM    3  C   UNL     2     -21.581  -7.137  -4.532  1.00  0.00     0.000 C 
BRANCH   3   4
HETATM    4  C   UNL     2     -21.568  -6.325  -3.251  1.00  0.00     0.000 C 
BRANCH   4   5
HETATM    5  C   UNL     2     -21.595  -7.316  -2.114  1.00  0.00     0.000 C 
BRANCH   5   6
HETATM    6  C   UNL     2     -20.236  -7.901  -1.810  1.00  0.00     0.000 C 
BRANCH   6   7
HETATM    7  C   UNL     2     -20.464  -9.395  -1.672  1.00  0.00     0.000 C 
BRANCH   7   8
HETATM    8  C   UNL     2     -19.481 -10.181  -2.494  1.00  0.00     0.000 C 
BRANCH   8   9
HETATM    9  C   UNL     2     -18.733  -9.241  -3.411  1.00  0.00    -0.000 C 
BRANCH   9  10
HETATM   10  C   UNL     2     -17.384  -9.816  -3.771  1.00  0.00    -0.005 C 
HETATM   11  C   UNL     2     -16.247  -9.516  -2.814  1.00  0.00     0.005 C 
ENDBRANCH   9  10
ENDBRANCH   8   9
ENDBRANCH   7   8
ENDBRANCH   6   7
ENDBRANCH   5   6
ENDBRANCH   4   5
ENDBRANCH   3   4
ENDBRANCH   2   3
ENDBRANCH   1   2
BRANCH   1  12
HETATM   12  C   UNL     2     -19.648  -4.762  -6.784  1.00  0.00     0.000 C 
BRANCH  12  13
HETATM   13  C   UNL     2     -20.330  -4.118  -7.978  1.00  0.00     0.000 C 
BRANCH  13  14
HETATM   14  C   UNL     2     -21.827  -4.383  -7.918  1.00  0.00     0.000 C 
BRANCH  14  15
HETATM   15  C   UNL     2     -22.549  -3.651  -9.040  1.00  0.00     0.001 C 
BRANCH  15  16
HETATM   16  C   UNL     2     -22.250  -4.307 -10.383  1.00  0.00     0.010 C 
BRANCH  16  17
HETATM   17  C   UNL     2     -23.503  -4.369 -11.249  1.00  0.00     0.110 C 
BRANCH  17  18
HETATM   18  C   UNL     2     -23.292  -3.640 -12.569  1.00  0.00     0.139 C 
HETATM   19  O   UNL     2     -24.129  -3.491 -13.433  1.00  0.00    -0.650 OA
BRANCH  18  20
HETATM   20  O   UNL     2     -22.019  -3.166 -12.662  1.00  0.00    -0.776 OA
HETATM   21  H   UNL     2     -21.742  -2.597 -11.916  1.00  0.00     0.167 HD
ENDBRANCH  18  20
ENDBRANCH  17  18
ENDBRANCH  16  17
ENDBRANCH  15  16
ENDBRANCH  14  15
ENDBRANCH  13  14
ENDBRANCH  12  13
ENDBRANCH   1  12
TORSDOF 37
ENDMDL
MODEL 9
REMARK VINA RESULT:      -5.8      4.040      9.750
REMARK WARNING: 32 MAX_TORS EXCEEDED!!!
REMARK  37 active torsions:
REMARK  status: ('A' for Active; 'I' for Inactive)
REMARK    1  A    between atoms: C_2  and  C_3 
REMARK    2  A    between atoms: C_3  and  C_4 
REMARK    3  A    between atoms: C_4  and  C_5 
REMARK    4  A    between atoms: C_5  and  C_6 
REMARK    5  A    between atoms: C_6  and  C_7 
REMARK    6  A    between atoms: C_7  and  C_8 
REMARK    7  A    between atoms: C_8  and  C_9 
REMARK    8  A    between atoms: C_9  and  C_10 
REMARK    9  A    between atoms: C_10  and  C_11 
REMARK   10  A    between atoms: C_11  and  C_12 
REMARK   11  A    between atoms: C_12  and  C_13 
REMARK   12  A    between atoms: C_13  and  C_14 
REMARK   13  A    between atoms: C_14  and  C_15 
REMARK   14  A    between atoms: C_15  and  C_16 
REMARK   15  A    between atoms: C_16  and  C_17 
REMARK   16  A    between atoms: C_17  and  C_18 
REMARK       I    between atoms: C_18  and  N_20 
REMARK   17  A    between atoms: N_20  and  C_21 
REMARK   18  A    between atoms: C_21  and  C_22 
REMARK   19  A    between atoms: C_22  and  C_23 
REMARK   20  A    between atoms: C_23  and  N_24 
REMARK   21  A    between atoms: C_29  and  C_30 
REMARK   22  A    between atoms: C_30  and  C_31 
REMARK   23  A    between atoms: C_31  and  C_32 
REMARK   24  A    between atoms: C_32  and  C_33 
REMARK   25  A    between atoms: C_33  and  C_34 
REMARK   26  A    between atoms: C_34  and  C_35 
REMARK   27  A    between atoms: C_35  and  C_36 
REMARK   28  A    between atoms: C_36  and  C_37 
REMARK   29  A    between atoms: C_37  and  C_38 
REMARK   30  A    between atoms: C_38  and  C_39 
REMARK   31  A    between atoms: C_39  and  C_40 
REMARK   32  A    between atoms: C_40  and  C_41 
REMARK   33  A    between atoms: C_41  and  C_42 
REMARK   34  A    between atoms: C_42  and  C_43 
REMARK   35  A    between atoms: C_43  and  C_44 
REMARK   36  A    between atoms: C_44  and  C_45 
REMARK   37  A    between atoms: C_45  and  O_47 
ROOT
HETATM    1  C   UNL     2     -20.030  -7.560  -5.472  1.00  0.00     0.000 C 
ENDROOT
BRANCH   1   2
HETATM    2  C   UNL     2     -21.052  -6.547  -4.992  1.00  0.00     0.000 C 
BRANCH   2   3
HETATM    3  C   UNL     2     -20.614  -5.165  -5.412  1.00  0.00     0.000 C 
BRANCH   3   4
HETATM    4  C   UNL     2     -19.681  -5.244  -6.606  1.00  0.00     0.000 C 
BRANCH   4   5
HETATM    5  C   UNL     2     -20.441  -4.687  -7.783  1.00  0.00     0.000 C 
BRANCH   5   6
HETATM    6  C   UNL     2     -21.503  -3.691  -7.382  1.00  0.00     0.000 C 
BRANCH   6   7
HETATM    7  C   UNL     2     -22.409  -3.561  -8.593  1.00  0.00     0.000 C 
BRANCH   7   8
HETATM    8  C   UNL     2     -22.354  -4.791  -9.456  1.00  0.00     0.000 C 
BRANCH   8   9
HETATM    9  C   UNL     2     -23.221  -4.585 -10.676  1.00  0.00    -0.000 C 
BRANCH   9  10
HETATM   10  C   UNL     2     -22.427  -3.938 -11.786  1.00  0.00    -0.005 C 
HETATM   11  C   UNL     2     -22.948  -2.611 -12.302  1.00  0.00     0.005 C 
ENDBRANCH   9  10
ENDBRANCH   8   9
ENDBRANCH   7   8
ENDBRANCH   6   7
ENDBRANCH   5   6
ENDBRANCH   4   5
ENDBRANCH   3   4
ENDBRANCH   2   3
ENDBRANCH   1   2
BRANCH   1  12
HETATM   12  C   UNL     2     -19.856  -8.632  -4.417  1.00  0.00     0.000 C 
BRANCH  12  13
HETATM   13  C   UNL     2     -20.796  -8.385  -3.250  1.00  0.00     0.000 C 
BRANCH  13  14
HETATM   14  C   UNL     2     -20.073  -8.663  -1.942  1.00  0.00     0.000 C 
BRANCH  14  15
HETATM   15  C   UNL     2     -20.552  -9.971  -1.329  1.00  0.00     0.001 C 
BRANCH  15  16
HETATM   16  C   UNL     2     -21.306  -9.707  -0.030  1.00  0.00     0.010 C 
BRANCH  16  17
HETATM   17  C   UNL     2     -21.297  -8.222   0.311  1.00  0.00     0.110 C 
BRANCH  17  18
HETATM   18  C   UNL     2     -22.625  -7.570  -0.049  1.00  0.00     0.139 C 
HETATM   19  O   UNL     2     -22.784  -6.718  -0.897  1.00  0.00    -0.650 OA
BRANCH  18  20
HETATM   20  O   UNL     2     -23.634  -8.072   0.715  1.00  0.00    -0.776 OA
HETATM   21  H   UNL     2     -23.342  -8.680   1.424  1.00  0.00     0.167 HD
ENDBRANCH  18  20
ENDBRANCH  17  18
ENDBRANCH  16  17
ENDBRANCH  15  16
ENDBRANCH  14  15
ENDBRANCH  13  14
ENDBRANCH  12  13
ENDBRANCH   1  12
TORSDOF 37
ENDMDL
