MODEL 1
REMARK VINA RESULT:      -7.7      0.000      0.000
REMARK  6 active torsions:
REMARK  status: ('A' for Active; 'I' for Inactive)
REMARK    1  A    between atoms: C_3  and  C_10 
REMARK    2  A    between atoms: C_11  and  C_12 
REMARK    3  A    between atoms: C_13  and  C_14 
REMARK    4  A    between atoms: C_15  and  C_16 
REMARK    5  A    between atoms: C_17  and  C_18 
REMARK    6  A    between atoms: C_18  and  O_20 
ROOT
HETATM    1  C   UNL     1     -18.566  -9.289  -3.990  1.00  0.00    -0.062 C 
HETATM    2  C   UNL     1     -18.887  -8.898  -5.246  1.00  0.00     0.007 C 
HETATM    3  C   UNL     1     -17.318 -10.116  -3.784  1.00  0.00     0.048 C 
ENDROOT
BRANCH   1   4
HETATM    4  C   UNL     1     -19.377  -9.012  -2.792  1.00  0.00     0.007 C 
HETATM    5  C   UNL     1     -20.723  -9.085  -2.744  1.00  0.00     0.009 C 
BRANCH   5   6
HETATM    6  C   UNL     1     -21.595  -8.801  -1.584  1.00  0.00    -0.048 C 
HETATM    7  C   UNL     1     -21.974  -7.542  -1.246  1.00  0.00    -0.077 C 
HETATM    8  C   UNL     1     -21.612  -6.289  -2.005  1.00  0.00     0.044 C 
HETATM    9  C   UNL     1     -22.894  -7.234  -0.076  1.00  0.00     0.034 C 
HETATM   10  C   UNL     1     -23.173  -8.395   0.866  1.00  0.00     0.005 C 
HETATM   11  C   UNL     1     -23.388  -9.666   0.067  1.00  0.00     0.014 C 
HETATM   12  C   UNL     1     -22.157 -10.030  -0.815  1.00  0.00    -0.020 C 
HETATM   13  C   UNL     1     -22.661 -11.141  -1.765  1.00  0.00     0.020 C 
HETATM   14  C   UNL     1     -21.056 -10.605   0.103  1.00  0.00     0.020 C 
ENDBRANCH   5   6
ENDBRANCH   1   4
BRANCH   2  15
HETATM   15  C   UNL     1     -20.051  -8.111  -5.605  1.00  0.00     0.001 C 
HETATM   16  C   UNL     1     -20.135  -6.774  -5.753  1.00  0.00     0.007 C 
BRANCH  16  17
HETATM   17  C   UNL     1     -21.374  -6.059  -6.088  1.00  0.00    -0.056 C 
HETATM   18  C   UNL     1     -21.532  -5.125  -7.053  1.00  0.00     0.087 C 
HETATM   19  C   UNL     1     -22.639  -6.337  -5.299  1.00  0.00     0.048 C 
BRANCH  18  20
HETATM   20  C   UNL     1     -20.594  -4.545  -8.026  1.00  0.00     0.165 C 
HETATM   21  O   UNL     1     -19.509  -4.042  -7.839  1.00  0.00    -0.647 OA
BRANCH  20  22
HETATM   22  O   UNL     1     -21.137  -4.657  -9.259  1.00  0.00    -0.773 OA
HETATM   23  H   UNL     1     -22.053  -4.329  -9.169  1.00  0.00     0.167 HD
ENDBRANCH  20  22
ENDBRANCH  18  20
ENDBRANCH  16  17
ENDBRANCH   2  15
TORSDOF 6
ENDMDL
MODEL 2
REMARK VINA RESULT:      -7.6      1.729      4.392
REMARK  6 active torsions:
REMARK  status: ('A' for Active; 'I' for Inactive)
REMARK    1  A    between atoms: C_3  and  C_10 
REMARK    2  A    between atoms: C_11  and  C_12 
REMARK    3  A    between atoms: C_13  and  C_14 
REMARK    4  A    between atoms: C_15  and  C_16 
REMARK    5  A    between atoms: C_17  and  C_18 
REMARK    6  A    between atoms: C_18  and  O_20 
ROOT
HETATM    1  C   UNL     1     -22.050  -7.361  -0.961  1.00  0.00    -0.062 C 
HETATM    2  C   UNL     1     -22.315  -6.439  -1.916  1.00  0.00     0.007 C 
HETATM    3  C   UNL     1     -22.933  -7.410   0.265  1.00  0.00     0.048 C 
ENDROOT
BRANCH   1   4
HETATM    4  C   UNL     1     -20.919  -8.304  -0.996  1.00  0.00     0.007 C 
HETATM    5  C   UNL     1     -20.963  -9.533  -1.551  1.00  0.00     0.009 C 
BRANCH   5   6
HETATM    6  C   UNL     1     -19.874 -10.532  -1.602  1.00  0.00    -0.048 C 
HETATM    7  C   UNL     1     -19.645 -11.413  -0.595  1.00  0.00    -0.077 C 
HETATM    8  C   UNL     1     -20.466 -11.530   0.665  1.00  0.00     0.044 C 
HETATM    9  C   UNL     1     -18.550 -12.467  -0.643  1.00  0.00     0.034 C 
HETATM   10  C   UNL     1     -17.548 -12.325  -1.779  1.00  0.00     0.005 C 
HETATM   11  C   UNL     1     -18.269 -11.944  -3.057  1.00  0.00     0.014 C 
HETATM   12  C   UNL     1     -19.055 -10.606  -2.922  1.00  0.00    -0.020 C 
HETATM   13  C   UNL     1     -19.954 -10.543  -4.179  1.00  0.00     0.020 C 
HETATM   14  C   UNL     1     -18.041  -9.443  -2.960  1.00  0.00     0.020 C 
ENDBRANCH   5   6
ENDBRANCH   1   4
BRANCH   2  15
HETATM   15  C   UNL     1     -21.558  -6.262  -3.141  1.00  0.00     0.001 C 
HETATM   16  C   UNL     1     -21.928  -6.580  -4.397  1.00  0.00     0.007 C 
BRANCH  16  17
HETATM   17  C   UNL     1     -21.074  -6.393  -5.579  1.00  0.00    -0.056 C 
HETATM   18  C   UNL     1     -21.272  -5.516  -6.588  1.00  0.00     0.087 C 
HETATM   19  C   UNL     1     -19.837  -7.252  -5.754  1.00  0.00     0.048 C 
BRANCH  18  20
HETATM   20  C   UNL     1     -22.327  -4.521  -6.836  1.00  0.00     0.165 C 
HETATM   21  O   UNL     1     -23.529  -4.640  -6.751  1.00  0.00    -0.647 OA
BRANCH  20  22
HETATM   22  O   UNL     1     -21.739  -3.359  -7.197  1.00  0.00    -0.773 OA
HETATM   23  H   UNL     1     -21.112  -3.595  -7.908  1.00  0.00     0.167 HD
ENDBRANCH  20  22
ENDBRANCH  18  20
ENDBRANCH  16  17
ENDBRANCH   2  15
TORSDOF 6
ENDMDL
MODEL 3
REMARK VINA RESULT:      -7.3      1.848      4.225
REMARK  6 active torsions:
REMARK  status: ('A' for Active; 'I' for Inactive)
REMARK    1  A    between atoms: C_3  and  C_10 
REMARK    2  A    between atoms: C_11  and  C_12 
REMARK    3  A    between atoms: C_13  and  C_14 
REMARK    4  A    between atoms: C_15  and  C_16 
REMARK    5  A    between atoms: C_17  and  C_18 
REMARK    6  A    between atoms: C_18  and  O_20 
ROOT
HETATM    1  C   UNL     1     -22.395  -7.699  -0.729  1.00  0.00    -0.062 C 
HETATM    2  C   UNL     1     -22.093  -6.613  -1.480  1.00  0.00     0.007 C 
HETATM    3  C   UNL     1     -23.128  -7.496   0.577  1.00  0.00     0.048 C 
ENDROOT
BRANCH   1   4
HETATM    4  C   UNL     1     -22.018  -9.082  -1.065  1.00  0.00     0.007 C 
HETATM    5  C   UNL     1     -22.835 -10.150  -0.951  1.00  0.00     0.009 C 
BRANCH   5   6
HETATM    6  C   UNL     1     -22.513 -11.561  -1.250  1.00  0.00    -0.048 C 
HETATM    7  C   UNL     1     -22.500 -12.056  -2.514  1.00  0.00    -0.077 C 
HETATM    8  C   UNL     1     -22.762 -11.255  -3.765  1.00  0.00     0.044 C 
HETATM    9  C   UNL     1     -22.142 -13.496  -2.841  1.00  0.00     0.034 C 
HETATM   10  C   UNL     1     -22.039 -14.438  -1.651  1.00  0.00     0.005 C 
HETATM   11  C   UNL     1     -21.336 -13.740  -0.503  1.00  0.00     0.014 C 
HETATM   12  C   UNL     1     -22.076 -12.447  -0.048  1.00  0.00    -0.020 C 
HETATM   13  C   UNL     1     -21.080 -11.724   0.888  1.00  0.00     0.020 C 
HETATM   14  C   UNL     1     -23.325 -12.863   0.760  1.00  0.00     0.020 C 
ENDBRANCH   5   6
ENDBRANCH   1   4
BRANCH   2  15
HETATM   15  C   UNL     1     -21.389  -6.643  -2.748  1.00  0.00     0.001 C 
HETATM   16  C   UNL     1     -21.917  -6.659  -3.988  1.00  0.00     0.007 C 
BRANCH  16  17
HETATM   17  C   UNL     1     -21.119  -6.724  -5.221  1.00  0.00    -0.056 C 
HETATM   18  C   UNL     1     -21.251  -5.934  -6.311  1.00  0.00     0.087 C 
HETATM   19  C   UNL     1     -20.031  -7.770  -5.357  1.00  0.00     0.048 C 
BRANCH  18  20
HETATM   20  C   UNL     1     -22.166  -4.825  -6.619  1.00  0.00     0.165 C 
HETATM   21  O   UNL     1     -23.372  -4.777  -6.527  1.00  0.00    -0.647 OA
BRANCH  20  22
HETATM   22  O   UNL     1     -21.431  -3.775  -7.048  1.00  0.00    -0.773 OA
HETATM   23  H   UNL     1     -21.882  -3.455  -7.854  1.00  0.00     0.167 HD
ENDBRANCH  20  22
ENDBRANCH  18  20
ENDBRANCH  16  17
ENDBRANCH   2  15
TORSDOF 6
ENDMDL
MODEL 4
REMARK VINA RESULT:      -7.3     15.122     17.613
REMARK  6 active torsions:
REMARK  status: ('A' for Active; 'I' for Inactive)
REMARK    1  A    between atoms: C_3  and  C_10 
REMARK    2  A    between atoms: C_11  and  C_12 
REMARK    3  A    between atoms: C_13  and  C_14 
REMARK    4  A    between atoms: C_15  and  C_16 
REMARK    5  A    between atoms: C_17  and  C_18 
REMARK    6  A    between atoms: C_18  and  O_20 
ROOT
HETATM    1  C   UNL     1     -26.657  10.460  -6.643  1.00  0.00    -0.062 C 
HETATM    2  C   UNL     1     -26.582  10.560  -7.991  1.00  0.00     0.007 C 
HETATM    3  C   UNL     1     -27.506  11.458  -5.888  1.00  0.00     0.048 C 
ENDROOT
BRANCH   1   4
HETATM    4  C   UNL     1     -25.927   9.472  -5.832  1.00  0.00     0.007 C 
HETATM    5  C   UNL     1     -25.586   9.642  -4.538  1.00  0.00     0.009 C 
BRANCH   5   6
HETATM    6  C   UNL     1     -24.838   8.701  -3.677  1.00  0.00    -0.048 C 
HETATM    7  C   UNL     1     -23.492   8.770  -3.517  1.00  0.00    -0.077 C 
HETATM    8  C   UNL     1     -22.592   9.810  -4.139  1.00  0.00     0.044 C 
HETATM    9  C   UNL     1     -22.710   7.830  -2.613  1.00  0.00     0.034 C 
HETATM   10  C   UNL     1     -23.483   6.633  -2.081  1.00  0.00     0.005 C 
HETATM   11  C   UNL     1     -24.881   7.061  -1.678  1.00  0.00     0.014 C 
HETATM   12  C   UNL     1     -25.681   7.678  -2.864  1.00  0.00    -0.020 C 
HETATM   13  C   UNL     1     -26.926   8.323  -2.212  1.00  0.00     0.020 C 
HETATM   14  C   UNL     1     -26.129   6.531  -3.794  1.00  0.00     0.020 C 
ENDBRANCH   5   6
ENDBRANCH   1   4
BRANCH   2  15
HETATM   15  C   UNL     1     -25.807   9.687  -8.852  1.00  0.00     0.001 C 
HETATM   16  C   UNL     1     -25.759   9.681 -10.199  1.00  0.00     0.007 C 
BRANCH  16  17
HETATM   17  C   UNL     1     -24.965   8.729 -10.990  1.00  0.00    -0.056 C 
HETATM   18  C   UNL     1     -25.241   7.421 -11.193  1.00  0.00     0.087 C 
HETATM   19  C   UNL     1     -23.687   9.192 -11.659  1.00  0.00     0.048 C 
BRANCH  18  20
HETATM   20  C   UNL     1     -26.342   6.563 -10.731  1.00  0.00     0.165 C 
HETATM   21  O   UNL     1     -26.317   5.635  -9.954  1.00  0.00    -0.647 OA
BRANCH  20  22
HETATM   22  O   UNL     1     -27.482   6.975 -11.329  1.00  0.00    -0.773 OA
HETATM   23  H   UNL     1     -27.207   7.661 -11.967  1.00  0.00     0.167 HD
ENDBRANCH  20  22
ENDBRANCH  18  20
ENDBRANCH  16  17
ENDBRANCH   2  15
TORSDOF 6
ENDMDL
MODEL 5
REMARK VINA RESULT:      -7.2      2.504      4.705
REMARK  6 active torsions:
REMARK  status: ('A' for Active; 'I' for Inactive)
REMARK    1  A    between atoms: C_3  and  C_10 
REMARK    2  A    between atoms: C_11  and  C_12 
REMARK    3  A    between atoms: C_13  and  C_14 
REMARK    4  A    between atoms: C_15  and  C_16 
REMARK    5  A    between atoms: C_17  and  C_18 
REMARK    6  A    between atoms: C_18  and  O_20 
ROOT
HETATM    1  C   UNL     1     -22.468  -7.709  -0.557  1.00  0.00    -0.062 C 
HETATM    2  C   UNL     1     -22.201  -6.560  -1.221  1.00  0.00     0.007 C 
HETATM    3  C   UNL     1     -23.186  -7.628   0.771  1.00  0.00     0.048 C 
ENDROOT
BRANCH   1   4
HETATM    4  C   UNL     1     -22.064  -9.052  -1.006  1.00  0.00     0.007 C 
HETATM    5  C   UNL     1     -22.842 -10.152  -0.933  1.00  0.00     0.009 C 
BRANCH   5   6
HETATM    6  C   UNL     1     -22.490 -11.527  -1.346  1.00  0.00    -0.048 C 
HETATM    7  C   UNL     1     -22.427 -11.905  -2.648  1.00  0.00    -0.077 C 
HETATM    8  C   UNL     1     -22.656 -10.997  -3.831  1.00  0.00     0.044 C 
HETATM    9  C   UNL     1     -22.039 -13.306  -3.091  1.00  0.00     0.034 C 
HETATM   10  C   UNL     1     -21.965 -14.350  -1.988  1.00  0.00     0.005 C 
HETATM   11  C   UNL     1     -21.311 -13.752  -0.757  1.00  0.00     0.014 C 
HETATM   12  C   UNL     1     -22.084 -12.513  -0.214  1.00  0.00    -0.020 C 
HETATM   13  C   UNL     1     -21.130 -11.868   0.818  1.00  0.00     0.020 C 
HETATM   14  C   UNL     1     -23.354 -13.013   0.508  1.00  0.00     0.020 C 
ENDBRANCH   5   6
ENDBRANCH   1   4
BRANCH   2  15
HETATM   15  C   UNL     1     -21.515  -6.471  -2.497  1.00  0.00     0.001 C 
HETATM   16  C   UNL     1     -22.003  -6.753  -3.721  1.00  0.00     0.007 C 
BRANCH  16  17
HETATM   17  C   UNL     1     -21.216  -6.666  -4.960  1.00  0.00    -0.056 C 
HETATM   18  C   UNL     1     -20.256  -7.525  -5.370  1.00  0.00     0.087 C 
HETATM   19  C   UNL     1     -21.444  -5.509  -5.913  1.00  0.00     0.048 C 
BRANCH  18  20
HETATM   20  C   UNL     1     -19.707  -8.749  -4.767  1.00  0.00     0.165 C 
HETATM   21  O   UNL     1     -19.241  -8.917  -3.663  1.00  0.00    -0.647 OA
BRANCH  20  22
HETATM   22  O   UNL     1     -19.799  -9.747  -5.673  1.00  0.00    -0.773 OA
HETATM   23  H   UNL     1     -18.882  -9.924  -5.959  1.00  0.00     0.167 HD
ENDBRANCH  20  22
ENDBRANCH  18  20
ENDBRANCH  16  17
ENDBRANCH   2  15
TORSDOF 6
ENDMDL
MODEL 6
REMARK VINA RESULT:      -7.2      3.467      5.439
REMARK  6 active torsions:
REMARK  status: ('A' for Active; 'I' for Inactive)
REMARK    1  A    between atoms: C_3  and  C_10 
REMARK    2  A    between atoms: C_11  and  C_12 
REMARK    3  A    between atoms: C_13  and  C_14 
REMARK    4  A    between atoms: C_15  and  C_16 
REMARK    5  A    between atoms: C_17  and  C_18 
REMARK    6  A    between atoms: C_18  and  O_20 
ROOT
HETATM    1  C   UNL     1     -19.368  -8.565  -4.936  1.00  0.00    -0.062 C 
HETATM    2  C   UNL     1     -18.309  -9.299  -5.352  1.00  0.00     0.007 C 
HETATM    3  C   UNL     1     -20.027  -7.624  -5.918  1.00  0.00     0.048 C 
ENDROOT
BRANCH   1   4
HETATM    4  C   UNL     1     -19.907  -8.571  -3.566  1.00  0.00     0.007 C 
HETATM    5  C   UNL     1     -21.221  -8.596  -3.259  1.00  0.00     0.009 C 
BRANCH   5   6
HETATM    6  C   UNL     1     -21.826  -8.582  -1.910  1.00  0.00    -0.048 C 
HETATM    7  C   UNL     1     -22.170  -7.433  -1.275  1.00  0.00    -0.077 C 
HETATM    8  C   UNL     1     -22.032  -6.045  -1.849  1.00  0.00     0.044 C 
HETATM    9  C   UNL     1     -22.820  -7.403   0.099  1.00  0.00     0.034 C 
HETATM   10  C   UNL     1     -22.841  -8.726   0.848  1.00  0.00     0.005 C 
HETATM   11  C   UNL     1     -23.177  -9.854  -0.108  1.00  0.00     0.014 C 
HETATM   12  C   UNL     1     -22.157  -9.966  -1.280  1.00  0.00    -0.020 C 
HETATM   13  C   UNL     1     -22.814 -10.933  -2.291  1.00  0.00     0.020 C 
HETATM   14  C   UNL     1     -20.860 -10.602  -0.734  1.00  0.00     0.020 C 
ENDBRANCH   5   6
ENDBRANCH   1   4
BRANCH   2  15
HETATM   15  C   UNL     1     -17.567 -10.237  -4.530  1.00  0.00     0.001 C 
HETATM   16  C   UNL     1     -16.380 -10.047  -3.921  1.00  0.00     0.007 C 
BRANCH  16  17
HETATM   17  C   UNL     1     -15.685 -11.075  -3.132  1.00  0.00    -0.056 C 
HETATM   18  C   UNL     1     -14.830 -12.011  -3.601  1.00  0.00     0.087 C 
HETATM   19  C   UNL     1     -15.920 -11.160  -1.637  1.00  0.00     0.048 C 
BRANCH  18  20
HETATM   20  C   UNL     1     -14.335 -12.305  -4.954  1.00  0.00     0.165 C 
HETATM   21  O   UNL     1     -13.270 -12.029  -5.458  1.00  0.00    -0.647 OA
BRANCH  20  22
HETATM   22  O   UNL     1     -15.297 -12.981  -5.621  1.00  0.00    -0.773 OA
HETATM   23  H   UNL     1     -14.975 -13.901  -5.679  1.00  0.00     0.167 HD
ENDBRANCH  20  22
ENDBRANCH  18  20
ENDBRANCH  16  17
ENDBRANCH   2  15
TORSDOF 6
ENDMDL
MODEL 7
REMARK VINA RESULT:      -7.1     15.171     17.598
REMARK  6 active torsions:
REMARK  status: ('A' for Active; 'I' for Inactive)
REMARK    1  A    between atoms: C_3  and  C_10 
REMARK    2  A    between atoms: C_11  and  C_12 
REMARK    3  A    between atoms: C_13  and  C_14 
REMARK    4  A    between atoms: C_15  and  C_16 
REMARK    5  A    between atoms: C_17  and  C_18 
REMARK    6  A    between atoms: C_18  and  O_20 
ROOT
HETATM    1  C   UNL     1     -26.454  10.406  -6.628  1.00  0.00    -0.062 C 
HETATM    2  C   UNL     1     -26.436  10.389  -7.981  1.00  0.00     0.007 C 
HETATM    3  C   UNL     1     -27.082  11.588  -5.926  1.00  0.00     0.048 C 
ENDROOT
BRANCH   1   4
HETATM    4  C   UNL     1     -25.855   9.372  -5.767  1.00  0.00     0.007 C 
HETATM    5  C   UNL     1     -25.368   9.591  -4.528  1.00  0.00     0.009 C 
BRANCH   5   6
HETATM    6  C   UNL     1     -24.739   8.605  -3.625  1.00  0.00    -0.048 C 
HETATM    7  C   UNL     1     -23.396   8.540  -3.437  1.00  0.00    -0.077 C 
HETATM    8  C   UNL     1     -22.382   9.463  -4.066  1.00  0.00     0.044 C 
HETATM    9  C   UNL     1     -22.734   7.552  -2.489  1.00  0.00     0.034 C 
HETATM   10  C   UNL     1     -23.637   6.457  -1.942  1.00  0.00     0.005 C 
HETATM   11  C   UNL     1     -24.991   7.039  -1.582  1.00  0.00     0.014 C 
HETATM   12  C   UNL     1     -25.699   7.699  -2.803  1.00  0.00    -0.020 C 
HETATM   13  C   UNL     1     -26.883   8.488  -2.198  1.00  0.00     0.020 C 
HETATM   14  C   UNL     1     -26.245   6.576  -3.712  1.00  0.00     0.020 C 
ENDBRANCH   5   6
ENDBRANCH   1   4
BRANCH   2  15
HETATM   15  C   UNL     1     -25.865   9.334  -8.797  1.00  0.00     0.001 C 
HETATM   16  C   UNL     1     -26.155   9.027 -10.077  1.00  0.00     0.007 C 
BRANCH  16  17
HETATM   17  C   UNL     1     -25.545   7.911 -10.814  1.00  0.00    -0.056 C 
HETATM   18  C   UNL     1     -24.476   7.976 -11.640  1.00  0.00     0.087 C 
HETATM   19  C   UNL     1     -26.136   6.520 -10.694  1.00  0.00     0.048 C 
BRANCH  18  20
HETATM   20  C   UNL     1     -23.619   9.097 -12.055  1.00  0.00     0.165 C 
HETATM   21  O   UNL     1     -23.736   9.842 -13.002  1.00  0.00    -0.647 OA
BRANCH  20  22
HETATM   22  O   UNL     1     -22.601   9.203 -11.172  1.00  0.00    -0.773 OA
HETATM   23  H   UNL     1     -21.836   9.515 -11.694  1.00  0.00     0.167 HD
ENDBRANCH  20  22
ENDBRANCH  18  20
ENDBRANCH  16  17
ENDBRANCH   2  15
TORSDOF 6
ENDMDL
MODEL 8
REMARK VINA RESULT:      -7.1      2.010      4.586
REMARK  6 active torsions:
REMARK  status: ('A' for Active; 'I' for Inactive)
REMARK    1  A    between atoms: C_3  and  C_10 
REMARK    2  A    between atoms: C_11  and  C_12 
REMARK    3  A    between atoms: C_13  and  C_14 
REMARK    4  A    between atoms: C_15  and  C_16 
REMARK    5  A    between atoms: C_17  and  C_18 
REMARK    6  A    between atoms: C_18  and  O_20 
ROOT
HETATM    1  C   UNL     1     -22.406  -8.072  -0.454  1.00  0.00    -0.062 C 
HETATM    2  C   UNL     1     -22.058  -6.993  -1.195  1.00  0.00     0.007 C 
HETATM    3  C   UNL     1     -23.239  -7.860   0.788  1.00  0.00     0.048 C 
ENDROOT
BRANCH   1   4
HETATM    4  C   UNL     1     -21.987  -9.455  -0.738  1.00  0.00     0.007 C 
HETATM    5  C   UNL     1     -22.816 -10.439  -1.145  1.00  0.00     0.009 C 
BRANCH   5   6
HETATM    6  C   UNL     1     -22.464 -11.847  -1.426  1.00  0.00    -0.048 C 
HETATM    7  C   UNL     1     -22.727 -12.854  -0.554  1.00  0.00    -0.077 C 
HETATM    8  C   UNL     1     -23.434 -12.698   0.770  1.00  0.00     0.044 C 
HETATM    9  C   UNL     1     -22.400 -14.311  -0.840  1.00  0.00     0.034 C 
HETATM   10  C   UNL     1     -21.525 -14.564  -2.057  1.00  0.00     0.005 C 
HETATM   11  C   UNL     1     -21.958 -13.662  -3.197  1.00  0.00     0.014 C 
HETATM   12  C   UNL     1     -21.867 -12.151  -2.830  1.00  0.00    -0.020 C 
HETATM   13  C   UNL     1     -22.621 -11.419  -3.963  1.00  0.00     0.020 C 
HETATM   14  C   UNL     1     -20.381 -11.735  -2.854  1.00  0.00     0.020 C 
ENDBRANCH   5   6
ENDBRANCH   1   4
BRANCH   2  15
HETATM   15  C   UNL     1     -21.258  -7.032  -2.405  1.00  0.00     0.001 C 
HETATM   16  C   UNL     1     -21.527  -7.679  -3.556  1.00  0.00     0.007 C 
BRANCH  16  17
HETATM   17  C   UNL     1     -20.633  -7.687  -4.723  1.00  0.00    -0.056 C 
HETATM   18  C   UNL     1     -20.534  -6.728  -5.671  1.00  0.00     0.087 C 
HETATM   19  C   UNL     1     -19.714  -8.870  -4.957  1.00  0.00     0.048 C 
BRANCH  18  20
HETATM   20  C   UNL     1     -21.229  -5.444  -5.850  1.00  0.00     0.165 C 
HETATM   21  O   UNL     1     -22.388  -5.232  -6.131  1.00  0.00    -0.647 OA
BRANCH  20  22
HETATM   22  O   UNL     1     -20.341  -4.447  -5.642  1.00  0.00    -0.773 OA
HETATM   23  H   UNL     1     -19.674  -4.817  -5.032  1.00  0.00     0.167 HD
ENDBRANCH  20  22
ENDBRANCH  18  20
ENDBRANCH  16  17
ENDBRANCH   2  15
TORSDOF 6
ENDMDL
MODEL 9
REMARK VINA RESULT:      -7.1     14.952     17.674
REMARK  6 active torsions:
REMARK  status: ('A' for Active; 'I' for Inactive)
REMARK    1  A    between atoms: C_3  and  C_10 
REMARK    2  A    between atoms: C_11  and  C_12 
REMARK    3  A    between atoms: C_13  and  C_14 
REMARK    4  A    between atoms: C_15  and  C_16 
REMARK    5  A    between atoms: C_17  and  C_18 
REMARK    6  A    between atoms: C_18  and  O_20 
ROOT
HETATM    1  C   UNL     1     -26.536  10.482  -6.585  1.00  0.00    -0.062 C 
HETATM    2  C   UNL     1     -26.494  10.611  -7.933  1.00  0.00     0.007 C 
HETATM    3  C   UNL     1     -27.350  11.474  -5.787  1.00  0.00     0.048 C 
ENDROOT
BRANCH   1   4
HETATM    4  C   UNL     1     -25.798   9.466  -5.816  1.00  0.00     0.007 C 
HETATM    5  C   UNL     1     -25.641   9.482  -4.476  1.00  0.00     0.009 C 
BRANCH   5   6
HETATM    6  C   UNL     1     -24.898   8.508  -3.650  1.00  0.00    -0.048 C 
HETATM    7  C   UNL     1     -25.358   7.254  -3.408  1.00  0.00    -0.077 C 
HETATM    8  C   UNL     1     -26.633   6.671  -3.965  1.00  0.00     0.044 C 
HETATM    9  C   UNL     1     -24.593   6.229  -2.585  1.00  0.00     0.034 C 
HETATM   10  C   UNL     1     -23.388   6.761  -1.825  1.00  0.00     0.005 C 
HETATM   11  C   UNL     1     -22.621   7.737  -2.695  1.00  0.00     0.014 C 
HETATM   12  C   UNL     1     -23.493   8.947  -3.146  1.00  0.00    -0.020 C 
HETATM   13  C   UNL     1     -22.664   9.649  -4.247  1.00  0.00     0.020 C 
HETATM   14  C   UNL     1     -23.657   9.901  -1.944  1.00  0.00     0.020 C 
ENDBRANCH   5   6
ENDBRANCH   1   4
BRANCH   2  15
HETATM   15  C   UNL     1     -25.755   9.747  -8.833  1.00  0.00     0.001 C 
HETATM   16  C   UNL     1     -25.819   9.702 -10.178  1.00  0.00     0.007 C 
BRANCH  16  17
HETATM   17  C   UNL     1     -25.051   8.763 -11.008  1.00  0.00    -0.056 C 
HETATM   18  C   UNL     1     -25.326   7.455 -11.212  1.00  0.00     0.087 C 
HETATM   19  C   UNL     1     -23.803   9.240 -11.724  1.00  0.00     0.048 C 
BRANCH  18  20
HETATM   20  C   UNL     1     -26.403   6.585 -10.714  1.00  0.00     0.165 C 
HETATM   21  O   UNL     1     -26.354   5.699  -9.891  1.00  0.00    -0.647 OA
BRANCH  20  22
HETATM   22  O   UNL     1     -27.551   6.929 -11.340  1.00  0.00    -0.773 OA
HETATM   23  H   UNL     1     -27.364   7.784 -11.773  1.00  0.00     0.167 HD
ENDBRANCH  20  22
ENDBRANCH  18  20
ENDBRANCH  16  17
ENDBRANCH   2  15
TORSDOF 6
ENDMDL
