MODEL 1
REMARK VINA RESULT:      -6.8      0.000      0.000
REMARK  5 active torsions:
REMARK  status: ('A' for Active; 'I' for Inactive)
REMARK    1  A    between atoms: CG_4  and  CB_7 
REMARK    2  A    between atoms: CB_7  and  CA_8 
REMARK    3  A    between atoms: CA_8  and  C_9 
REMARK    4  A    between atoms: CA_8  and  N_12 
REMARK    5  A    between atoms: C_9  and  OXT_11 
ROOT
ATOM      1  CA  PHE A   1     -22.865  -3.459 -12.590  1.00  0.00     0.318 C 
ENDROOT
BRANCH   1   2
ATOM      2  CB  PHE A   1     -21.894  -2.802 -11.594  1.00  0.00     0.085 C 
BRANCH   2   3
ATOM      3  CG  PHE A   1     -21.622  -3.608 -10.345  1.00  0.00    -0.056 A 
ATOM      4  CD1 PHE A   1     -22.582  -3.727  -9.329  1.00  0.00     0.007 A 
ATOM      5  CE1 PHE A   1     -22.276  -4.408  -8.150  1.00  0.00     0.001 A 
ATOM      6  CZ  PHE A   1     -21.025  -5.001  -7.986  1.00  0.00     0.000 A 
ATOM      7  CE2 PHE A   1     -20.082  -4.925  -9.007  1.00  0.00     0.001 A 
ATOM      8  CD2 PHE A   1     -20.378  -4.232 -10.181  1.00  0.00     0.007 A 
ENDBRANCH   2   3
ENDBRANCH   1   2
BRANCH   1   9
ATOM      9  C   PHE A   1     -24.301  -2.892 -12.514  1.00  0.00     0.174 C 
ATOM     10  O   PHE A   1     -25.064  -3.116 -11.582  1.00  0.00    -0.648 OA
BRANCH   9  11
ATOM     11  OXT PHE A   1     -24.648  -2.058 -13.519  1.00  0.00    -0.775 OA
ATOM     12  HXT PHE A   1     -25.556  -2.170 -13.862  1.00  0.00     0.167 HD
ENDBRANCH   9  11
ENDBRANCH   1   9
BRANCH   1  13
ATOM     13  N   PHE A   1     -22.336  -3.236 -13.965  1.00  0.00     0.093 N 
ATOM     14  H1  PHE A   1     -22.915  -3.786 -14.610  1.00  0.00     0.314 HD
ATOM     15  H2  PHE A   1     -21.427  -3.706 -14.029  1.00  0.00     0.314 HD
ENDBRANCH   1  13
TORSDOF 5
ENDMDL
MODEL 2
REMARK VINA RESULT:      -6.6      1.603      2.260
REMARK  5 active torsions:
REMARK  status: ('A' for Active; 'I' for Inactive)
REMARK    1  A    between atoms: CG_4  and  CB_7 
REMARK    2  A    between atoms: CB_7  and  CA_8 
REMARK    3  A    between atoms: CA_8  and  C_9 
REMARK    4  A    between atoms: CA_8  and  N_12 
REMARK    5  A    between atoms: C_9  and  OXT_11 
ROOT
ATOM      1  CA  PHE A   1     -23.385  -3.142 -11.564  1.00  0.00     0.318 C 
ENDROOT
BRANCH   1   2
ATOM      2  CB  PHE A   1     -22.584  -4.376 -11.114  1.00  0.00     0.085 C 
BRANCH   2   3
ATOM      3  CG  PHE A   1     -21.858  -4.218  -9.797  1.00  0.00    -0.056 A 
ATOM      4  CD1 PHE A   1     -20.458  -4.224  -9.731  1.00  0.00     0.007 A 
ATOM      5  CE1 PHE A   1     -19.813  -4.159  -8.494  1.00  0.00     0.001 A 
ATOM      6  CZ  PHE A   1     -20.557  -4.060  -7.320  1.00  0.00     0.000 A 
ATOM      7  CE2 PHE A   1     -21.947  -4.011  -7.380  1.00  0.00     0.001 A 
ATOM      8  CD2 PHE A   1     -22.595  -4.090  -8.612  1.00  0.00     0.007 A 
ENDBRANCH   2   3
ENDBRANCH   1   2
BRANCH   1   9
ATOM      9  C   PHE A   1     -23.308  -2.881 -13.085  1.00  0.00     0.174 C 
ATOM     10  O   PHE A   1     -24.176  -2.282 -13.709  1.00  0.00    -0.648 OA
BRANCH   9  11
ATOM     11  OXT PHE A   1     -22.172  -3.297 -13.687  1.00  0.00    -0.775 OA
ATOM     12  HXT PHE A   1     -21.847  -2.725 -14.410  1.00  0.00     0.167 HD
ENDBRANCH   9  11
ENDBRANCH   1   9
BRANCH   1  13
ATOM     13  N   PHE A   1     -24.810  -3.354 -11.187  1.00  0.00     0.093 N 
ATOM     14  H1  PHE A   1     -25.322  -2.497 -11.425  1.00  0.00     0.314 HD
ATOM     15  H2  PHE A   1     -24.863  -3.367 -10.163  1.00  0.00     0.314 HD
ENDBRANCH   1  13
TORSDOF 5
ENDMDL
MODEL 3
REMARK VINA RESULT:      -6.6      1.631      1.821
REMARK  5 active torsions:
REMARK  status: ('A' for Active; 'I' for Inactive)
REMARK    1  A    between atoms: CG_4  and  CB_7 
REMARK    2  A    between atoms: CB_7  and  CA_8 
REMARK    3  A    between atoms: CA_8  and  C_9 
REMARK    4  A    between atoms: CA_8  and  N_12 
REMARK    5  A    between atoms: C_9  and  OXT_11 
ROOT
ATOM      1  CA  PHE A   1     -23.391  -3.179 -11.493  1.00  0.00     0.318 C 
ENDROOT
BRANCH   1   2
ATOM      2  CB  PHE A   1     -22.624  -4.439 -11.058  1.00  0.00     0.085 C 
BRANCH   2   3
ATOM      3  CG  PHE A   1     -21.925  -4.329  -9.723  1.00  0.00    -0.056 A 
ATOM      4  CD1 PHE A   1     -22.648  -4.286  -8.522  1.00  0.00     0.007 A 
ATOM      5  CE1 PHE A   1     -21.984  -4.103  -7.308  1.00  0.00     0.001 A 
ATOM      6  CZ  PHE A   1     -20.595  -3.990  -7.279  1.00  0.00     0.000 A 
ATOM      7  CE2 PHE A   1     -19.866  -4.075  -8.462  1.00  0.00     0.001 A 
ATOM      8  CD2 PHE A   1     -20.527  -4.243  -9.678  1.00  0.00     0.007 A 
ENDBRANCH   2   3
ENDBRANCH   1   2
BRANCH   1   9
ATOM      9  C   PHE A   1     -23.322  -2.911 -13.014  1.00  0.00     0.174 C 
ATOM     10  O   PHE A   1     -24.199  -2.322 -13.634  1.00  0.00    -0.648 OA
BRANCH   9  11
ATOM     11  OXT PHE A   1     -22.181  -3.308 -13.620  1.00  0.00    -0.775 OA
ATOM     12  HXT PHE A   1     -21.473  -3.615 -13.020  1.00  0.00     0.167 HD
ENDBRANCH   9  11
ENDBRANCH   1   9
BRANCH   1  13
ATOM     13  N   PHE A   1     -24.819  -3.349 -11.103  1.00  0.00     0.093 N 
ATOM     14  H1  PHE A   1     -24.860  -3.352 -10.078  1.00  0.00     0.314 HD
ATOM     15  H2  PHE A   1     -25.093  -4.309 -11.337  1.00  0.00     0.314 HD
ENDBRANCH   1  13
TORSDOF 5
ENDMDL
MODEL 4
REMARK VINA RESULT:      -6.4      1.867      2.476
REMARK  5 active torsions:
REMARK  status: ('A' for Active; 'I' for Inactive)
REMARK    1  A    between atoms: CG_4  and  CB_7 
REMARK    2  A    between atoms: CB_7  and  CA_8 
REMARK    3  A    between atoms: CA_8  and  C_9 
REMARK    4  A    between atoms: CA_8  and  N_12 
REMARK    5  A    between atoms: C_9  and  OXT_11 
ROOT
ATOM      1  CA  PHE A   1     -23.361  -2.402 -14.086  1.00  0.00     0.318 C 
ENDROOT
BRANCH   1   2
ATOM      2  CB  PHE A   1     -22.831  -1.927 -12.723  1.00  0.00     0.085 C 
BRANCH   2   3
ATOM      3  CG  PHE A   1     -22.814  -2.984 -11.643  1.00  0.00    -0.056 A 
ATOM      4  CD1 PHE A   1     -24.001  -3.546 -11.153  1.00  0.00     0.007 A 
ATOM      5  CE1 PHE A   1     -23.962  -4.460 -10.099  1.00  0.00     0.001 A 
ATOM      6  CZ  PHE A   1     -22.741  -4.842  -9.546  1.00  0.00     0.000 A 
ATOM      7  CE2 PHE A   1     -21.555  -4.321 -10.055  1.00  0.00     0.001 A 
ATOM      8  CD2 PHE A   1     -21.590  -3.396 -11.098  1.00  0.00     0.007 A 
ENDBRANCH   2   3
ENDBRANCH   1   2
BRANCH   1   9
ATOM      9  C   PHE A   1     -23.669  -1.245 -15.063  1.00  0.00     0.174 C 
ATOM     10  O   PHE A   1     -24.688  -0.567 -15.004  1.00  0.00    -0.648 OA
BRANCH   9  11
ATOM     11  OXT PHE A   1     -22.696  -0.970 -15.960  1.00  0.00    -0.775 OA
ATOM     12  HXT PHE A   1     -22.471  -0.024 -16.059  1.00  0.00     0.167 HD
ENDBRANCH   9  11
ENDBRANCH   1   9
BRANCH   1  13
ATOM     13  N   PHE A   1     -22.330  -3.284 -14.701  1.00  0.00     0.093 N 
ATOM     14  H1  PHE A   1     -21.410  -2.922 -14.424  1.00  0.00     0.314 HD
ATOM     15  H2  PHE A   1     -22.338  -3.115 -15.712  1.00  0.00     0.314 HD
ENDBRANCH   1  13
TORSDOF 5
ENDMDL
MODEL 5
REMARK VINA RESULT:      -6.4      1.533      2.429
REMARK  5 active torsions:
REMARK  status: ('A' for Active; 'I' for Inactive)
REMARK    1  A    between atoms: CG_4  and  CB_7 
REMARK    2  A    between atoms: CB_7  and  CA_8 
REMARK    3  A    between atoms: CA_8  and  C_9 
REMARK    4  A    between atoms: CA_8  and  N_12 
REMARK    5  A    between atoms: C_9  and  OXT_11 
ROOT
ATOM      1  CA  PHE A   1     -23.404  -4.374 -10.692  1.00  0.00     0.318 C 
ENDROOT
BRANCH   1   2
ATOM      2  CB  PHE A   1     -22.125  -3.617 -10.297  1.00  0.00     0.085 C 
BRANCH   2   3
ATOM      3  CG  PHE A   1     -21.513  -4.044  -8.983  1.00  0.00    -0.056 A 
ATOM      4  CD1 PHE A   1     -20.123  -4.135  -8.820  1.00  0.00     0.007 A 
ATOM      5  CE1 PHE A   1     -19.586  -4.611  -7.623  1.00  0.00     0.001 A 
ATOM      6  CZ  PHE A   1     -20.426  -4.970  -6.571  1.00  0.00     0.000 A 
ATOM      7  CE2 PHE A   1     -21.805  -4.843  -6.709  1.00  0.00     0.001 A 
ATOM      8  CD2 PHE A   1     -22.347  -4.383  -7.908  1.00  0.00     0.007 A 
ENDBRANCH   2   3
ENDBRANCH   1   2
BRANCH   1   9
ATOM      9  C   PHE A   1     -24.644  -3.460 -10.820  1.00  0.00     0.174 C 
ATOM     10  O   PHE A   1     -25.021  -2.982 -11.883  1.00  0.00    -0.648 OA
BRANCH   9  11
ATOM     11  OXT PHE A   1     -25.346  -3.274  -9.680  1.00  0.00    -0.775 OA
ATOM     12  HXT PHE A   1     -24.916  -3.601  -8.866  1.00  0.00     0.167 HD
ENDBRANCH   9  11
ENDBRANCH   1   9
BRANCH   1  13
ATOM     13  N   PHE A   1     -23.163  -5.036 -12.004  1.00  0.00     0.093 N 
ATOM     14  H1  PHE A   1     -23.014  -6.035 -11.822  1.00  0.00     0.314 HD
ATOM     15  H2  PHE A   1     -22.243  -4.734 -12.341  1.00  0.00     0.314 HD
ENDBRANCH   1  13
TORSDOF 5
ENDMDL
MODEL 6
REMARK VINA RESULT:      -6.0      2.536      3.214
REMARK  5 active torsions:
REMARK  status: ('A' for Active; 'I' for Inactive)
REMARK    1  A    between atoms: CG_4  and  CB_7 
REMARK    2  A    between atoms: CB_7  and  CA_8 
REMARK    3  A    between atoms: CA_8  and  C_9 
REMARK    4  A    between atoms: CA_8  and  N_12 
REMARK    5  A    between atoms: C_9  and  OXT_11 
ROOT
ATOM      1  CA  PHE A   1     -23.501  -3.593  -9.246  1.00  0.00     0.318 C 
ENDROOT
BRANCH   1   2
ATOM      2  CB  PHE A   1     -22.426  -4.626  -9.622  1.00  0.00     0.085 C 
BRANCH   2   3
ATOM      3  CG  PHE A   1     -21.296  -4.760  -8.628  1.00  0.00    -0.056 A 
ATOM      4  CD1 PHE A   1     -20.163  -3.936  -8.695  1.00  0.00     0.007 A 
ATOM      5  CE1 PHE A   1     -19.098  -4.134  -7.816  1.00  0.00     0.001 A 
ATOM      6  CZ  PHE A   1     -19.165  -5.132  -6.846  1.00  0.00     0.000 A 
ATOM      7  CE2 PHE A   1     -20.304  -5.926  -6.744  1.00  0.00     0.001 A 
ATOM      8  CD2 PHE A   1     -21.364  -5.742  -7.630  1.00  0.00     0.007 A 
ENDBRANCH   2   3
ENDBRANCH   1   2
BRANCH   1   9
ATOM      9  C   PHE A   1     -24.646  -3.493 -10.281  1.00  0.00     0.174 C 
ATOM     10  O   PHE A   1     -24.481  -3.656 -11.484  1.00  0.00    -0.648 OA
BRANCH   9  11
ATOM     11  OXT PHE A   1     -25.876  -3.283  -9.764  1.00  0.00    -0.775 OA
ATOM     12  HXT PHE A   1     -26.377  -2.544 -10.160  1.00  0.00     0.167 HD
ENDBRANCH   9  11
ENDBRANCH   1   9
BRANCH   1  13
ATOM     13  N   PHE A   1     -24.080  -3.986  -7.931  1.00  0.00     0.093 N 
ATOM     14  H1  PHE A   1     -24.751  -4.743  -8.104  1.00  0.00     0.314 HD
ATOM     15  H2  PHE A   1     -24.687  -3.221  -7.617  1.00  0.00     0.314 HD
ENDBRANCH   1  13
TORSDOF 5
ENDMDL
MODEL 7
REMARK VINA RESULT:      -5.8      3.888      5.430
REMARK  5 active torsions:
REMARK  status: ('A' for Active; 'I' for Inactive)
REMARK    1  A    between atoms: CG_4  and  CB_7 
REMARK    2  A    between atoms: CB_7  and  CA_8 
REMARK    3  A    between atoms: CA_8  and  C_9 
REMARK    4  A    between atoms: CA_8  and  N_12 
REMARK    5  A    between atoms: C_9  and  OXT_11 
ROOT
ATOM      1  CA  PHE A   1     -21.955  -4.455  -7.754  1.00  0.00     0.318 C 
ENDROOT
BRANCH   1   2
ATOM      2  CB  PHE A   1     -21.286  -4.489  -9.139  1.00  0.00     0.085 C 
BRANCH   2   3
ATOM      3  CG  PHE A   1     -22.146  -3.982 -10.273  1.00  0.00    -0.056 A 
ATOM      4  CD1 PHE A   1     -21.586  -3.615 -11.506  1.00  0.00     0.007 A 
ATOM      5  CE1 PHE A   1     -22.391  -3.073 -12.509  1.00  0.00     0.001 A 
ATOM      6  CZ  PHE A   1     -23.761  -2.921 -12.303  1.00  0.00     0.000 A 
ATOM      7  CE2 PHE A   1     -24.332  -3.323 -11.099  1.00  0.00     0.001 A 
ATOM      8  CD2 PHE A   1     -23.529  -3.851 -10.089  1.00  0.00     0.007 A 
ENDBRANCH   2   3
ENDBRANCH   1   2
BRANCH   1   9
ATOM      9  C   PHE A   1     -21.528  -5.624  -6.837  1.00  0.00     0.174 C 
ATOM     10  O   PHE A   1     -20.683  -6.453  -7.153  1.00  0.00    -0.648 OA
BRANCH   9  11
ATOM     11  OXT PHE A   1     -22.100  -5.637  -5.613  1.00  0.00    -0.775 OA
ATOM     12  HXT PHE A   1     -22.181  -4.765  -5.178  1.00  0.00     0.167 HD
ENDBRANCH   9  11
ENDBRANCH   1   9
BRANCH   1  13
ATOM     13  N   PHE A   1     -21.585  -3.171  -7.094  1.00  0.00     0.093 N 
ATOM     14  H1  PHE A   1     -20.830  -3.373  -6.429  1.00  0.00     0.314 HD
ATOM     15  H2  PHE A   1     -22.359  -2.905  -6.476  1.00  0.00     0.314 HD
ENDBRANCH   1  13
TORSDOF 5
ENDMDL
MODEL 8
REMARK VINA RESULT:      -5.7      4.559      5.776
REMARK  5 active torsions:
REMARK  status: ('A' for Active; 'I' for Inactive)
REMARK    1  A    between atoms: CG_4  and  CB_7 
REMARK    2  A    between atoms: CB_7  and  CA_8 
REMARK    3  A    between atoms: CA_8  and  C_9 
REMARK    4  A    between atoms: CA_8  and  N_12 
REMARK    5  A    between atoms: C_9  and  OXT_11 
ROOT
ATOM      1  CA  PHE A   1     -20.993  -5.070  -6.377  1.00  0.00     0.318 C 
ENDROOT
BRANCH   1   2
ATOM      2  CB  PHE A   1     -20.225  -5.244  -7.698  1.00  0.00     0.085 C 
BRANCH   2   3
ATOM      3  CG  PHE A   1     -20.877  -4.606  -8.903  1.00  0.00    -0.056 A 
ATOM      4  CD1 PHE A   1     -22.197  -4.135  -8.854  1.00  0.00     0.007 A 
ATOM      5  CE1 PHE A   1     -22.804  -3.625 -10.003  1.00  0.00     0.001 A 
ATOM      6  CZ  PHE A   1     -22.092  -3.555 -11.199  1.00  0.00     0.000 A 
ATOM      7  CE2 PHE A   1     -20.768  -3.980 -11.246  1.00  0.00     0.001 A 
ATOM      8  CD2 PHE A   1     -20.163  -4.504 -10.104  1.00  0.00     0.007 A 
ENDBRANCH   2   3
ENDBRANCH   1   2
BRANCH   1   9
ATOM      9  C   PHE A   1     -21.618  -6.383  -5.852  1.00  0.00     0.174 C 
ATOM     10  O   PHE A   1     -21.203  -7.494  -6.158  1.00  0.00    -0.648 OA
BRANCH   9  11
ATOM     11  OXT PHE A   1     -22.622  -6.230  -4.961  1.00  0.00    -0.775 OA
ATOM     12  HXT PHE A   1     -22.565  -6.792  -4.164  1.00  0.00     0.167 HD
ENDBRANCH   9  11
ENDBRANCH   1   9
BRANCH   1  13
ATOM     13  N   PHE A   1     -20.042  -4.551  -5.354  1.00  0.00     0.093 N 
ATOM     14  H1  PHE A   1     -19.823  -3.580  -5.602  1.00  0.00     0.314 HD
ATOM     15  H2  PHE A   1     -19.144  -5.024  -5.496  1.00  0.00     0.314 HD
ENDBRANCH   1  13
TORSDOF 5
ENDMDL
MODEL 9
REMARK VINA RESULT:      -5.6     11.905     13.227
REMARK  5 active torsions:
REMARK  status: ('A' for Active; 'I' for Inactive)
REMARK    1  A    between atoms: CG_4  and  CB_7 
REMARK    2  A    between atoms: CB_7  and  CA_8 
REMARK    3  A    between atoms: CA_8  and  C_9 
REMARK    4  A    between atoms: CA_8  and  N_12 
REMARK    5  A    between atoms: C_9  and  OXT_11 
ROOT
ATOM      1  CA  PHE A   1     -26.127   7.160 -10.869  1.00  0.00     0.318 C 
ENDROOT
BRANCH   1   2
ATOM      2  CB  PHE A   1     -25.985   8.601 -10.351  1.00  0.00     0.085 C 
BRANCH   2   3
ATOM      3  CG  PHE A   1     -25.257   9.543 -11.282  1.00  0.00    -0.056 A 
ATOM      4  CD1 PHE A   1     -25.692  10.862 -11.472  1.00  0.00     0.007 A 
ATOM      5  CE1 PHE A   1     -25.051  11.686 -12.399  1.00  0.00     0.001 A 
ATOM      6  CZ  PHE A   1     -23.956  11.213 -13.120  1.00  0.00     0.000 A 
ATOM      7  CE2 PHE A   1     -23.491   9.918 -12.906  1.00  0.00     0.001 A 
ATOM      8  CD2 PHE A   1     -24.137   9.087 -11.992  1.00  0.00     0.007 A 
ENDBRANCH   2   3
ENDBRANCH   1   2
BRANCH   1   9
ATOM      9  C   PHE A   1     -25.841   6.089  -9.791  1.00  0.00     0.174 C 
ATOM     10  O   PHE A   1     -25.942   6.301  -8.589  1.00  0.00    -0.648 OA
BRANCH   9  11
ATOM     11  OXT PHE A   1     -25.538   4.860 -10.264  1.00  0.00    -0.775 OA
ATOM     12  HXT PHE A   1     -25.408   4.170  -9.584  1.00  0.00     0.167 HD
ENDBRANCH   9  11
ENDBRANCH   1   9
BRANCH   1  13
ATOM     13  N   PHE A   1     -27.522   6.981 -11.360  1.00  0.00     0.093 N 
ATOM     14  H1  PHE A   1     -27.669   7.654 -12.121  1.00  0.00     0.314 HD
ATOM     15  H2  PHE A   1     -28.156   7.329 -10.633  1.00  0.00     0.314 HD
ENDBRANCH   1  13
TORSDOF 5
ENDMDL
