MODEL 1
REMARK VINA RESULT:      -3.8      0.000      0.000
REMARK  3 active torsions:
REMARK  status: ('A' for Active; 'I' for Inactive)
REMARK    1  A    between atoms: C_2  and  C_3 
REMARK    2  A    between atoms: C_3  and  O_4 
REMARK    3  A    between atoms: C_3  and  O_5 
ROOT
HETATM    1  C   UNL     1     -30.034 -14.562 -21.251  1.00  0.00     0.253 C 
ENDROOT
BRANCH   1   2
HETATM    2  C   UNL     1     -30.340 -14.583 -19.758  1.00  0.00     0.056 C 
HETATM    3  C   UNL     1     -29.211 -13.980 -18.942  1.00  0.00     0.010 C 
ENDBRANCH   1   2
BRANCH   1   4
HETATM    4  O   UNL     1     -31.143 -14.041 -21.955  1.00  0.00    -0.372 OA
HETATM    5  H   UNL     1     -31.233 -14.589 -22.750  1.00  0.00     0.212 HD
ENDBRANCH   1   4
BRANCH   1   6
HETATM    6  O   UNL     1     -28.909 -13.751 -21.523  1.00  0.00    -0.372 OA
HETATM    7  H   UNL     1     -28.907 -13.574 -22.477  1.00  0.00     0.212 HD
ENDBRANCH   1   6
TORSDOF 3
ENDMDL
MODEL 2
REMARK VINA RESULT:      -3.7     14.575     15.171
REMARK  3 active torsions:
REMARK  status: ('A' for Active; 'I' for Inactive)
REMARK    1  A    between atoms: C_2  and  C_3 
REMARK    2  A    between atoms: C_3  and  O_4 
REMARK    3  A    between atoms: C_3  and  O_5 
ROOT
HETATM    1  C   UNL     1     -23.395  -2.445 -13.915  1.00  0.00     0.253 C 
ENDROOT
BRANCH   1   2
HETATM    2  C   UNL     1     -23.464  -2.875 -12.454  1.00  0.00     0.056 C 
HETATM    3  C   UNL     1     -22.091  -2.890 -11.806  1.00  0.00     0.010 C 
ENDBRANCH   1   2
BRANCH   1   4
HETATM    4  O   UNL     1     -23.642  -3.559 -14.748  1.00  0.00    -0.372 OA
HETATM    5  H   UNL     1     -22.845  -4.109 -14.698  1.00  0.00     0.212 HD
ENDBRANCH   1   4
BRANCH   1   6
HETATM    6  O   UNL     1     -24.360  -1.452 -14.194  1.00  0.00    -0.372 OA
HETATM    7  H   UNL     1     -24.515  -0.963 -13.369  1.00  0.00     0.212 HD
ENDBRANCH   1   6
TORSDOF 3
ENDMDL
MODEL 3
REMARK VINA RESULT:      -3.7     15.664     16.141
REMARK  3 active torsions:
REMARK  status: ('A' for Active; 'I' for Inactive)
REMARK    1  A    between atoms: C_2  and  C_3 
REMARK    2  A    between atoms: C_3  and  O_4 
REMARK    3  A    between atoms: C_3  and  O_5 
ROOT
HETATM    1  C   UNL     1     -24.624  -3.241  -9.615  1.00  0.00     0.253 C 
ENDROOT
BRANCH   1   2
HETATM    2  C   UNL     1     -24.026  -3.956 -10.822  1.00  0.00     0.056 C 
HETATM    3  C   UNL     1     -24.035  -3.076 -12.060  1.00  0.00     0.010 C 
ENDBRANCH   1   2
BRANCH   1   4
HETATM    4  O   UNL     1     -26.034  -3.289  -9.688  1.00  0.00    -0.372 OA
HETATM    5  H   UNL     1     -26.281  -2.717 -10.431  1.00  0.00     0.212 HD
ENDBRANCH   1   4
BRANCH   1   6
HETATM    6  O   UNL     1     -24.214  -3.856  -8.411  1.00  0.00    -0.372 OA
HETATM    7  H   UNL     1     -23.390  -3.424  -8.135  1.00  0.00     0.212 HD
ENDBRANCH   1   6
TORSDOF 3
ENDMDL
MODEL 4
REMARK VINA RESULT:      -3.6      1.459      2.396
REMARK  3 active torsions:
REMARK  status: ('A' for Active; 'I' for Inactive)
REMARK    1  A    between atoms: C_2  and  C_3 
REMARK    2  A    between atoms: C_3  and  O_4 
REMARK    3  A    between atoms: C_3  and  O_5 
ROOT
HETATM    1  C   UNL     1     -29.547 -14.409 -20.311  1.00  0.00     0.253 C 
ENDROOT
BRANCH   1   2
HETATM    2  C   UNL     1     -30.624 -15.344 -20.850  1.00  0.00     0.056 C 
HETATM    3  C   UNL     1     -31.446 -14.686 -21.943  1.00  0.00     0.010 C 
ENDBRANCH   1   2
BRANCH   1   4
HETATM    4  O   UNL     1     -28.973 -13.683 -21.379  1.00  0.00    -0.372 OA
HETATM    5  H   UNL     1     -29.444 -12.836 -21.406  1.00  0.00     0.212 HD
ENDBRANCH   1   4
BRANCH   1   6
HETATM    6  O   UNL     1     -30.094 -13.492 -19.386  1.00  0.00    -0.372 OA
HETATM    7  H   UNL     1     -30.021 -12.608 -19.781  1.00  0.00     0.212 HD
ENDBRANCH   1   6
TORSDOF 3
ENDMDL
MODEL 5
REMARK VINA RESULT:      -3.6     15.266     15.789
REMARK  3 active torsions:
REMARK  status: ('A' for Active; 'I' for Inactive)
REMARK    1  A    between atoms: C_2  and  C_3 
REMARK    2  A    between atoms: C_3  and  O_4 
REMARK    3  A    between atoms: C_3  and  O_5 
ROOT
HETATM    1  C   UNL     1     -24.640  -3.341 -10.345  1.00  0.00     0.253 C 
ENDROOT
BRANCH   1   2
HETATM    2  C   UNL     1     -24.001  -4.714 -10.177  1.00  0.00     0.056 C 
HETATM    3  C   UNL     1     -22.628  -4.622  -9.535  1.00  0.00     0.010 C 
ENDBRANCH   1   2
BRANCH   1   4
HETATM    4  O   UNL     1     -24.873  -3.091 -11.716  1.00  0.00    -0.372 OA
HETATM    5  H   UNL     1     -24.211  -3.612 -12.196  1.00  0.00     0.212 HD
ENDBRANCH   1   4
BRANCH   1   6
HETATM    6  O   UNL     1     -25.874  -3.271  -9.659  1.00  0.00    -0.372 OA
HETATM    7  H   UNL     1     -25.705  -3.528  -8.738  1.00  0.00     0.212 HD
ENDBRANCH   1   6
TORSDOF 3
ENDMDL
MODEL 6
REMARK VINA RESULT:      -3.3     27.044     27.875
REMARK  3 active torsions:
REMARK  status: ('A' for Active; 'I' for Inactive)
REMARK    1  A    between atoms: C_2  and  C_3 
REMARK    2  A    between atoms: C_3  and  O_4 
REMARK    3  A    between atoms: C_3  and  O_5 
ROOT
HETATM    1  C   UNL     1      -9.656   5.312 -19.150  1.00  0.00     0.253 C 
ENDROOT
BRANCH   1   2
HETATM    2  C   UNL     1     -11.104   5.226 -19.619  1.00  0.00     0.056 C 
HETATM    3  C   UNL     1     -11.485   3.811 -20.016  1.00  0.00     0.010 C 
ENDBRANCH   1   2
BRANCH   1   4
HETATM    4  O   UNL     1      -8.927   6.155 -20.018  1.00  0.00    -0.372 OA
HETATM    5  H   UNL     1      -9.122   7.061 -19.732  1.00  0.00     0.212 HD
ENDBRANCH   1   4
BRANCH   1   6
HETATM    6  O   UNL     1      -9.580   5.839 -17.842  1.00  0.00    -0.372 OA
HETATM    7  H   UNL     1      -9.275   5.123 -17.261  1.00  0.00     0.212 HD
ENDBRANCH   1   6
TORSDOF 3
ENDMDL
MODEL 7
REMARK VINA RESULT:      -3.2     15.067     15.668
REMARK  3 active torsions:
REMARK  status: ('A' for Active; 'I' for Inactive)
REMARK    1  A    between atoms: C_2  and  C_3 
REMARK    2  A    between atoms: C_3  and  O_4 
REMARK    3  A    between atoms: C_3  and  O_5 
ROOT
HETATM    1  C   UNL     1     -22.360  -2.896 -12.077  1.00  0.00     0.253 C 
ENDROOT
BRANCH   1   2
HETATM    2  C   UNL     1     -22.359  -3.917 -10.944  1.00  0.00     0.056 C 
HETATM    3  C   UNL     1     -23.608  -4.781 -10.963  1.00  0.00     0.010 C 
ENDBRANCH   1   2
BRANCH   1   4
HETATM    4  O   UNL     1     -21.907  -3.509 -13.266  1.00  0.00    -0.372 OA
HETATM    5  H   UNL     1     -22.588  -3.328 -13.933  1.00  0.00     0.212 HD
ENDBRANCH   1   4
BRANCH   1   6
HETATM    6  O   UNL     1     -23.661  -2.391 -12.298  1.00  0.00    -0.372 OA
HETATM    7  H   UNL     1     -23.888  -2.578 -13.223  1.00  0.00     0.212 HD
ENDBRANCH   1   6
TORSDOF 3
ENDMDL
MODEL 8
REMARK VINA RESULT:      -3.2     27.618     28.452
REMARK  3 active torsions:
REMARK  status: ('A' for Active; 'I' for Inactive)
REMARK    1  A    between atoms: C_2  and  C_3 
REMARK    2  A    between atoms: C_3  and  O_4 
REMARK    3  A    between atoms: C_3  and  O_5 
ROOT
HETATM    1  C   UNL     1     -10.175   5.381 -19.199  1.00  0.00     0.253 C 
ENDROOT
BRANCH   1   2
HETATM    2  C   UNL     1      -9.572   6.129 -20.383  1.00  0.00     0.056 C 
HETATM    3  C   UNL     1     -10.068   7.562 -20.455  1.00  0.00     0.010 C 
ENDBRANCH   1   2
BRANCH   1   4
HETATM    4  O   UNL     1      -9.560   5.814 -18.003  1.00  0.00    -0.372 OA
HETATM    5  H   UNL     1      -8.605   5.748 -18.157  1.00  0.00     0.212 HD
ENDBRANCH   1   4
BRANCH   1   6
HETATM    6  O   UNL     1     -11.564   5.623 -19.104  1.00  0.00    -0.372 OA
HETATM    7  H   UNL     1     -11.691   6.584 -19.159  1.00  0.00     0.212 HD
ENDBRANCH   1   6
TORSDOF 3
ENDMDL
MODEL 9
REMARK VINA RESULT:      -3.2     17.060     17.674
REMARK  3 active torsions:
REMARK  status: ('A' for Active; 'I' for Inactive)
REMARK    1  A    between atoms: C_2  and  C_3 
REMARK    2  A    between atoms: C_3  and  O_4 
REMARK    3  A    between atoms: C_3  and  O_5 
ROOT
HETATM    1  C   UNL     1     -22.725  -4.178  -8.333  1.00  0.00     0.253 C 
ENDROOT
BRANCH   1   2
HETATM    2  C   UNL     1     -22.218  -3.967  -9.755  1.00  0.00     0.056 C 
HETATM    3  C   UNL     1     -20.724  -4.217  -9.864  1.00  0.00     0.010 C 
ENDBRANCH   1   2
BRANCH   1   4
HETATM    4  O   UNL     1     -22.025  -3.325  -7.450  1.00  0.00    -0.372 OA
HETATM    5  H   UNL     1     -22.589  -2.544  -7.334  1.00  0.00     0.212 HD
ENDBRANCH   1   4
BRANCH   1   6
HETATM    6  O   UNL     1     -24.104  -3.887  -8.241  1.00  0.00    -0.372 OA
HETATM    7  H   UNL     1     -24.574  -4.555  -8.767  1.00  0.00     0.212 HD
ENDBRANCH   1   6
TORSDOF 3
ENDMDL
