MODEL 1
REMARK VINA RESULT:      -6.9      0.000      0.000
REMARK  5 active torsions:
REMARK  status: ('A' for Active; 'I' for Inactive)
REMARK    1  A    between atoms: C_4  and  N_11 
REMARK    2  A    between atoms: C_5  and  N_7 
REMARK    3  A    between atoms: N_7  and  C_8 
REMARK    4  A    between atoms: C_8  and  C_9 
REMARK    5  A    between atoms: C_9  and  O_10 
ROOT
HETATM    1  C   UNL     1     -20.386  -3.715 -10.877  1.00  0.00     0.002 A 
HETATM    2  C   UNL     1     -20.812  -4.408  -9.754  1.00  0.00     0.003 A 
HETATM    3  C   UNL     1     -22.164  -4.415  -9.429  1.00  0.00     0.038 A 
HETATM    4  C   UNL     1     -23.100  -3.729 -10.237  1.00  0.00     0.123 A 
HETATM    5  C   UNL     1     -22.692  -3.024 -11.400  1.00  0.00     0.041 A 
HETATM    6  C   UNL     1     -21.308  -3.025 -11.673  1.00  0.00     0.026 A 
ENDROOT
BRANCH   5   7
HETATM    7  N   UNL     1     -23.564  -2.227 -12.178  1.00  0.00    -0.289 NA
HETATM    8  H   UNL     1     -24.384  -1.935 -11.628  1.00  0.00     0.127 HD
BRANCH   7   9
HETATM    9  C   UNL     1     -23.926  -2.700 -13.526  1.00  0.00     0.118 C 
BRANCH   9  10
HETATM   10  C   UNL     1     -23.709  -1.597 -14.568  1.00  0.00     0.178 C 
BRANCH  10  11
HETATM   11  O   UNL     1     -24.805  -0.685 -14.567  1.00  0.00    -0.400 OA
HETATM   12  H   UNL     1     -25.383  -0.962 -13.833  1.00  0.00     0.209 HD
ENDBRANCH  10  11
ENDBRANCH   9  10
ENDBRANCH   7   9
ENDBRANCH   5   7
BRANCH   4  13
HETATM   13  N   UNL     1     -24.517  -3.828  -9.841  1.00  0.00    -0.114 N 
HETATM   14  O   UNL     1     -25.017  -4.959  -9.758  1.00  0.00    -0.532 OA
HETATM   15  O   UNL     1     -25.150  -2.776  -9.642  1.00  0.00    -0.532 OA
ENDBRANCH   4  13
TORSDOF 5
ENDMDL
MODEL 2
REMARK VINA RESULT:      -6.3      1.535      2.237
REMARK  5 active torsions:
REMARK  status: ('A' for Active; 'I' for Inactive)
REMARK    1  A    between atoms: C_4  and  N_11 
REMARK    2  A    between atoms: C_5  and  N_7 
REMARK    3  A    between atoms: N_7  and  C_8 
REMARK    4  A    between atoms: C_8  and  C_9 
REMARK    5  A    between atoms: C_9  and  O_10 
ROOT
HETATM    1  C   UNL     1     -20.156  -4.165  -8.146  1.00  0.00     0.002 A 
HETATM    2  C   UNL     1     -21.210  -3.944  -7.273  1.00  0.00     0.003 A 
HETATM    3  C   UNL     1     -22.505  -3.865  -7.773  1.00  0.00     0.038 A 
HETATM    4  C   UNL     1     -22.750  -4.014  -9.157  1.00  0.00     0.123 A 
HETATM    5  C   UNL     1     -21.690  -4.256 -10.071  1.00  0.00     0.041 A 
HETATM    6  C   UNL     1     -20.393  -4.302  -9.519  1.00  0.00     0.026 A 
ENDROOT
BRANCH   5   7
HETATM    7  N   UNL     1     -21.861  -4.298 -11.474  1.00  0.00    -0.289 NA
HETATM    8  H   UNL     1     -21.113  -4.851 -11.919  1.00  0.00     0.127 HD
BRANCH   7   9
HETATM    9  C   UNL     1     -22.128  -3.035 -12.183  1.00  0.00     0.118 C 
BRANCH   9  10
HETATM   10  C   UNL     1     -23.362  -3.163 -13.083  1.00  0.00     0.178 C 
BRANCH  10  11
HETATM   11  O   UNL     1     -24.454  -2.424 -12.542  1.00  0.00    -0.400 OA
HETATM   12  H   UNL     1     -24.648  -1.720 -13.187  1.00  0.00     0.209 HD
ENDBRANCH  10  11
ENDBRANCH   9  10
ENDBRANCH   7   9
ENDBRANCH   5   7
BRANCH   4  13
HETATM   13  N   UNL     1     -24.158  -3.960  -9.592  1.00  0.00    -0.114 N 
HETATM   14  O   UNL     1     -24.748  -2.873  -9.511  1.00  0.00    -0.532 OA
HETATM   15  O   UNL     1     -24.695  -5.009  -9.988  1.00  0.00    -0.532 OA
ENDBRANCH   4  13
TORSDOF 5
ENDMDL
MODEL 3
REMARK VINA RESULT:      -6.0      2.022      4.313
REMARK  5 active torsions:
REMARK  status: ('A' for Active; 'I' for Inactive)
REMARK    1  A    between atoms: C_4  and  N_11 
REMARK    2  A    between atoms: C_5  and  N_7 
REMARK    3  A    between atoms: N_7  and  C_8 
REMARK    4  A    between atoms: C_8  and  C_9 
REMARK    5  A    between atoms: C_9  and  O_10 
ROOT
HETATM    1  C   UNL     1     -22.203  -3.036 -13.069  1.00  0.00     0.002 A 
HETATM    2  C   UNL     1     -23.545  -2.742 -13.258  1.00  0.00     0.003 A 
HETATM    3  C   UNL     1     -24.457  -3.037 -12.251  1.00  0.00     0.038 A 
HETATM    4  C   UNL     1     -24.023  -3.627 -11.041  1.00  0.00     0.123 A 
HETATM    5  C   UNL     1     -22.653  -3.924 -10.816  1.00  0.00     0.041 A 
HETATM    6  C   UNL     1     -21.772  -3.630 -11.877  1.00  0.00     0.026 A 
ENDROOT
BRANCH   5   7
HETATM    7  N   UNL     1     -22.179  -4.616  -9.677  1.00  0.00    -0.289 NA
HETATM    8  H   UNL     1     -22.756  -5.448  -9.486  1.00  0.00     0.127 HD
BRANCH   7   9
HETATM    9  C   UNL     1     -21.887  -3.840  -8.459  1.00  0.00     0.118 C 
BRANCH   9  10
HETATM   10  C   UNL     1     -22.350  -4.592  -7.207  1.00  0.00     0.178 C 
BRANCH  10  11
HETATM   11  O   UNL     1     -23.739  -4.373  -6.977  1.00  0.00    -0.400 OA
HETATM   12  H   UNL     1     -24.060  -5.159  -6.499  1.00  0.00     0.209 HD
ENDBRANCH  10  11
ENDBRANCH   9  10
ENDBRANCH   7   9
ENDBRANCH   5   7
BRANCH   4  13
HETATM   13  N   UNL     1     -25.053  -3.864 -10.012  1.00  0.00    -0.114 N 
HETATM   14  O   UNL     1     -25.778  -2.912  -9.688  1.00  0.00    -0.532 OA
HETATM   15  O   UNL     1     -25.123  -4.993  -9.496  1.00  0.00    -0.532 OA
ENDBRANCH   4  13
TORSDOF 5
ENDMDL
MODEL 4
REMARK VINA RESULT:      -5.9      2.025      4.693
REMARK  5 active torsions:
REMARK  status: ('A' for Active; 'I' for Inactive)
REMARK    1  A    between atoms: C_4  and  N_11 
REMARK    2  A    between atoms: C_5  and  N_7 
REMARK    3  A    between atoms: N_7  and  C_8 
REMARK    4  A    between atoms: C_8  and  C_9 
REMARK    5  A    between atoms: C_9  and  O_10 
ROOT
HETATM    1  C   UNL     1     -20.339  -4.019 -11.025  1.00  0.00     0.002 A 
HETATM    2  C   UNL     1     -21.136  -3.672 -12.106  1.00  0.00     0.003 A 
HETATM    3  C   UNL     1     -22.488  -3.421 -11.904  1.00  0.00     0.038 A 
HETATM    4  C   UNL     1     -23.049  -3.510 -10.609  1.00  0.00     0.123 A 
HETATM    5  C   UNL     1     -22.252  -3.847  -9.482  1.00  0.00     0.041 A 
HETATM    6  C   UNL     1     -20.893  -4.119  -9.743  1.00  0.00     0.026 A 
ENDROOT
BRANCH   5   7
HETATM    7  N   UNL     1     -22.778  -4.063  -8.188  1.00  0.00    -0.289 NA
HETATM    8  H   UNL     1     -23.605  -3.471  -8.024  1.00  0.00     0.127 HD
BRANCH   7   9
HETATM    9  C   UNL     1     -21.847  -4.063  -7.046  1.00  0.00     0.118 C 
BRANCH   9  10
HETATM   10  C   UNL     1     -21.840  -5.426  -6.346  1.00  0.00     0.178 C 
BRANCH  10  11
HETATM   11  O   UNL     1     -21.086  -6.372  -7.099  1.00  0.00    -0.400 OA
HETATM   12  H   UNL     1     -20.243  -5.935  -7.313  1.00  0.00     0.209 HD
ENDBRANCH  10  11
ENDBRANCH   9  10
ENDBRANCH   7   9
ENDBRANCH   5   7
BRANCH   4  13
HETATM   13  N   UNL     1     -24.481  -3.183 -10.481  1.00  0.00    -0.114 N 
HETATM   14  O   UNL     1     -25.172  -3.194 -11.511  1.00  0.00    -0.532 OA
HETATM   15  O   UNL     1     -24.921  -2.881  -9.358  1.00  0.00    -0.532 OA
ENDBRANCH   4  13
TORSDOF 5
ENDMDL
MODEL 5
REMARK VINA RESULT:      -5.8      2.782      3.276
REMARK  5 active torsions:
REMARK  status: ('A' for Active; 'I' for Inactive)
REMARK    1  A    between atoms: C_4  and  N_11 
REMARK    2  A    between atoms: C_5  and  N_7 
REMARK    3  A    between atoms: N_7  and  C_8 
REMARK    4  A    between atoms: C_8  and  C_9 
REMARK    5  A    between atoms: C_9  and  O_10 
ROOT
HETATM    1  C   UNL     1     -23.591  -4.242  -7.982  1.00  0.00     0.002 A 
HETATM    2  C   UNL     1     -22.271  -4.199  -7.558  1.00  0.00     0.003 A 
HETATM    3  C   UNL     1     -21.254  -4.122  -8.502  1.00  0.00     0.038 A 
HETATM    4  C   UNL     1     -21.558  -4.079  -9.883  1.00  0.00     0.123 A 
HETATM    5  C   UNL     1     -22.901  -4.105 -10.342  1.00  0.00     0.041 A 
HETATM    6  C   UNL     1     -23.895  -4.211  -9.347  1.00  0.00     0.026 A 
ENDROOT
BRANCH   5   7
HETATM    7  N   UNL     1     -23.260  -4.182 -11.708  1.00  0.00    -0.289 NA
HETATM    8  H   UNL     1     -22.506  -4.615 -12.262  1.00  0.00     0.127 HD
BRANCH   7   9
HETATM    9  C   UNL     1     -23.816  -2.979 -12.353  1.00  0.00     0.118 C 
BRANCH   9  10
HETATM   10  C   UNL     1     -23.196  -2.765 -13.738  1.00  0.00     0.178 C 
BRANCH  10  11
HETATM   11  O   UNL     1     -23.713  -3.712 -14.669  1.00  0.00    -0.400 OA
HETATM   12  H   UNL     1     -23.632  -3.298 -15.547  1.00  0.00     0.209 HD
ENDBRANCH  10  11
ENDBRANCH   9  10
ENDBRANCH   7   9
ENDBRANCH   5   7
BRANCH   4  13
HETATM   13  N   UNL     1     -20.418  -3.952 -10.810  1.00  0.00    -0.114 N 
HETATM   14  O   UNL     1     -19.603  -4.886 -10.857  1.00  0.00    -0.532 OA
HETATM   15  O   UNL     1     -20.310  -2.907 -11.474  1.00  0.00    -0.532 OA
ENDBRANCH   4  13
TORSDOF 5
ENDMDL
MODEL 6
REMARK VINA RESULT:      -5.7      2.646      3.596
REMARK  5 active torsions:
REMARK  status: ('A' for Active; 'I' for Inactive)
REMARK    1  A    between atoms: C_4  and  N_11 
REMARK    2  A    between atoms: C_5  and  N_7 
REMARK    3  A    between atoms: N_7  and  C_8 
REMARK    4  A    between atoms: C_8  and  C_9 
REMARK    5  A    between atoms: C_9  and  O_10 
ROOT
HETATM    1  C   UNL     1     -21.337  -4.459  -6.672  1.00  0.00     0.002 A 
HETATM    2  C   UNL     1     -20.092  -4.233  -7.240  1.00  0.00     0.003 A 
HETATM    3  C   UNL     1     -19.991  -4.062  -8.617  1.00  0.00     0.038 A 
HETATM    4  C   UNL     1     -21.145  -4.112  -9.432  1.00  0.00     0.123 A 
HETATM    5  C   UNL     1     -22.433  -4.327  -8.874  1.00  0.00     0.041 A 
HETATM    6  C   UNL     1     -22.480  -4.520  -7.478  1.00  0.00     0.026 A 
ENDROOT
BRANCH   5   7
HETATM    7  N   UNL     1     -23.603  -4.501  -9.649  1.00  0.00    -0.289 NA
HETATM    8  H   UNL     1     -23.440  -5.170 -10.416  1.00  0.00     0.127 HD
BRANCH   7   9
HETATM    9  C   UNL     1     -24.332  -3.300 -10.093  1.00  0.00     0.118 C 
BRANCH   9  10
HETATM   10  C   UNL     1     -24.399  -3.234 -11.623  1.00  0.00     0.178 C 
BRANCH  10  11
HETATM   11  O   UNL     1     -23.411  -2.340 -12.129  1.00  0.00    -0.400 OA
HETATM   12  H   UNL     1     -22.553  -2.688 -11.826  1.00  0.00     0.209 HD
ENDBRANCH  10  11
ENDBRANCH   9  10
ENDBRANCH   7   9
ENDBRANCH   5   7
BRANCH   4  13
HETATM   13  N   UNL     1     -20.950  -3.876 -10.875  1.00  0.00    -0.114 N 
HETATM   14  O   UNL     1     -21.326  -4.758 -11.662  1.00  0.00    -0.532 OA
HETATM   15  O   UNL     1     -20.390  -2.825 -11.232  1.00  0.00    -0.532 OA
ENDBRANCH   4  13
TORSDOF 5
ENDMDL
MODEL 7
REMARK VINA RESULT:      -5.4      3.066      4.550
REMARK  5 active torsions:
REMARK  status: ('A' for Active; 'I' for Inactive)
REMARK    1  A    between atoms: C_4  and  N_11 
REMARK    2  A    between atoms: C_5  and  N_7 
REMARK    3  A    between atoms: N_7  and  C_8 
REMARK    4  A    between atoms: C_8  and  C_9 
REMARK    5  A    between atoms: C_9  and  O_10 
ROOT
HETATM    1  C   UNL     1     -21.380  -5.696  -5.952  1.00  0.00     0.002 A 
HETATM    2  C   UNL     1     -20.169  -6.048  -6.527  1.00  0.00     0.003 A 
HETATM    3  C   UNL     1     -19.862  -5.593  -7.804  1.00  0.00     0.038 A 
HETATM    4  C   UNL     1     -20.772  -4.773  -8.511  1.00  0.00     0.123 A 
HETATM    5  C   UNL     1     -22.012  -4.385  -7.939  1.00  0.00     0.041 A 
HETATM    6  C   UNL     1     -22.288  -4.893  -6.653  1.00  0.00     0.026 A 
ENDROOT
BRANCH   5   7
HETATM    7  N   UNL     1     -23.007  -3.665  -8.641  1.00  0.00    -0.289 NA
HETATM    8  H   UNL     1     -23.498  -3.011  -8.014  1.00  0.00     0.127 HD
BRANCH   7   9
HETATM    9  C   UNL     1     -23.929  -4.415  -9.511  1.00  0.00     0.118 C 
BRANCH   9  10
HETATM   10  C   UNL     1     -24.785  -3.461 -10.351  1.00  0.00     0.178 C 
BRANCH  10  11
HETATM   11  O   UNL     1     -26.044  -3.233  -9.721  1.00  0.00    -0.400 OA
HETATM   12  H   UNL     1     -25.847  -2.772  -8.886  1.00  0.00     0.209 HD
ENDBRANCH  10  11
ENDBRANCH   9  10
ENDBRANCH   7   9
ENDBRANCH   5   7
BRANCH   4  13
HETATM   13  N   UNL     1     -20.344  -4.300  -9.842  1.00  0.00    -0.114 N 
HETATM   14  O   UNL     1     -20.652  -3.145 -10.171  1.00  0.00    -0.532 OA
HETATM   15  O   UNL     1     -19.728  -5.088 -10.579  1.00  0.00    -0.532 OA
ENDBRANCH   4  13
TORSDOF 5
ENDMDL
MODEL 8
REMARK VINA RESULT:      -5.2      9.998     11.961
REMARK  5 active torsions:
REMARK  status: ('A' for Active; 'I' for Inactive)
REMARK    1  A    between atoms: C_4  and  N_11 
REMARK    2  A    between atoms: C_5  and  N_7 
REMARK    3  A    between atoms: N_7  and  C_8 
REMARK    4  A    between atoms: C_8  and  C_9 
REMARK    5  A    between atoms: C_9  and  O_10 
ROOT
HETATM    1  C   UNL     1     -23.233 -11.665  -2.134  1.00  0.00     0.002 A 
HETATM    2  C   UNL     1     -23.898 -11.562  -0.921  1.00  0.00     0.003 A 
HETATM    3  C   UNL     1     -23.658 -10.463  -0.103  1.00  0.00     0.038 A 
HETATM    4  C   UNL     1     -22.751  -9.455  -0.503  1.00  0.00     0.123 A 
HETATM    5  C   UNL     1     -22.069  -9.529  -1.747  1.00  0.00     0.041 A 
HETATM    6  C   UNL     1     -22.326 -10.675  -2.528  1.00  0.00     0.026 A 
ENDROOT
BRANCH   5   7
HETATM    7  N   UNL     1     -21.068  -8.613  -2.146  1.00  0.00    -0.289 NA
HETATM    8  H   UNL     1     -20.631  -8.167  -1.327  1.00  0.00     0.127 HD
BRANCH   7   9
HETATM    9  C   UNL     1     -21.389  -7.648  -3.213  1.00  0.00     0.118 C 
BRANCH   9  10
HETATM   10  C   UNL     1     -21.402  -6.216  -2.668  1.00  0.00     0.178 C 
BRANCH  10  11
HETATM   11  O   UNL     1     -22.650  -5.932  -2.038  1.00  0.00    -0.400 OA
HETATM   12  H   UNL     1     -23.333  -6.342  -2.599  1.00  0.00     0.209 HD
ENDBRANCH  10  11
ENDBRANCH   9  10
ENDBRANCH   7   9
ENDBRANCH   5   7
BRANCH   4  13
HETATM   13  N   UNL     1     -22.592  -8.305   0.406  1.00  0.00    -0.114 N 
HETATM   14  O   UNL     1     -23.490  -7.450   0.420  1.00  0.00    -0.532 OA
HETATM   15  O   UNL     1     -21.556  -8.229   1.088  1.00  0.00    -0.532 OA
ENDBRANCH   4  13
TORSDOF 5
ENDMDL
MODEL 9
REMARK VINA RESULT:      -5.2      7.206      9.136
REMARK  5 active torsions:
REMARK  status: ('A' for Active; 'I' for Inactive)
REMARK    1  A    between atoms: C_4  and  N_11 
REMARK    2  A    between atoms: C_5  and  N_7 
REMARK    3  A    between atoms: N_7  and  C_8 
REMARK    4  A    between atoms: C_8  and  C_9 
REMARK    5  A    between atoms: C_9  and  O_10 
ROOT
HETATM    1  C   UNL     1     -22.092  -6.887  -1.066  1.00  0.00     0.002 A 
HETATM    2  C   UNL     1     -21.434  -8.107  -1.018  1.00  0.00     0.003 A 
HETATM    3  C   UNL     1     -20.870  -8.625  -2.178  1.00  0.00     0.038 A 
HETATM    4  C   UNL     1     -20.957  -7.914  -3.397  1.00  0.00     0.123 A 
HETATM    5  C   UNL     1     -21.612  -6.655  -3.471  1.00  0.00     0.041 A 
HETATM    6  C   UNL     1     -22.190  -6.186  -2.273  1.00  0.00     0.026 A 
ENDROOT
BRANCH   5   7
HETATM    7  N   UNL     1     -21.830  -5.956  -4.681  1.00  0.00    -0.289 NA
HETATM    8  H   UNL     1     -22.327  -6.548  -5.362  1.00  0.00     0.127 HD
BRANCH   7   9
HETATM    9  C   UNL     1     -20.697  -5.231  -5.282  1.00  0.00     0.118 C 
BRANCH   9  10
HETATM   10  C   UNL     1     -20.695  -5.388  -6.807  1.00  0.00     0.178 C 
BRANCH  10  11
HETATM   11  O   UNL     1     -19.816  -6.438  -7.200  1.00  0.00    -0.400 OA
HETATM   12  H   UNL     1     -20.300  -6.959  -7.866  1.00  0.00     0.209 HD
ENDBRANCH  10  11
ENDBRANCH   9  10
ENDBRANCH   7   9
ENDBRANCH   5   7
BRANCH   4  13
HETATM   13  N   UNL     1     -20.292  -8.517  -4.568  1.00  0.00    -0.114 N 
HETATM   14  O   UNL     1     -19.080  -8.766  -4.480  1.00  0.00    -0.532 OA
HETATM   15  O   UNL     1     -20.965  -8.716  -5.593  1.00  0.00    -0.532 OA
ENDBRANCH   4  13
TORSDOF 5
ENDMDL
