MODEL 1
REMARK VINA RESULT:      -4.9      0.000      0.000
REMARK  17 active torsions:
REMARK  status: ('A' for Active; 'I' for Inactive)
REMARK    1  A    between atoms: C_1  and  C_2 
REMARK    2  A    between atoms: C_1  and  O_24 
REMARK    3  A    between atoms: C_3  and  O_23 
REMARK    4  A    between atoms: C_4  and  O_22 
REMARK    5  A    between atoms: C_5  and  O_21 
REMARK    6  A    between atoms: C_6  and  O_8 
REMARK    7  A    between atoms: O_8  and  C_9 
REMARK    8  A    between atoms: C_9  and  C_10 
REMARK    9  A    between atoms: C_9  and  C_14 
REMARK   10  A    between atoms: C_10  and  C_11 
REMARK   11  A    between atoms: C_10  and  O_13 
REMARK   12  A    between atoms: C_11  and  O_12 
REMARK   13  A    between atoms: C_14  and  C_15 
REMARK   14  A    between atoms: C_14  and  O_20 
REMARK   15  A    between atoms: C_15  and  C_16 
REMARK   16  A    between atoms: C_15  and  O_19 
REMARK   17  A    between atoms: C_16  and  O_18 
ROOT
HETATM    1  C   UNL     1     -21.099  -7.276  -3.121  1.00  0.00     0.187 C 
ENDROOT
BRANCH   1   2
HETATM    2  O   UNL     1     -21.298  -8.642  -3.567  1.00  0.00    -0.348 OA
BRANCH   2   3
HETATM    3  C   UNL     1     -20.133  -9.480  -3.726  1.00  0.00     0.292 C 
HETATM    4  C   UNL     1     -20.572 -10.897  -3.287  1.00  0.00     0.204 C 
HETATM    5  C   UNL     1     -19.381 -11.856  -3.330  1.00  0.00     0.183 C 
HETATM    6  C   UNL     1     -18.240 -11.329  -2.446  1.00  0.00     0.180 C 
HETATM    7  C   UNL     1     -17.891  -9.884  -2.842  1.00  0.00     0.179 C 
HETATM    8  O   UNL     1     -19.055  -9.014  -2.912  1.00  0.00    -0.348 OA
BRANCH   4   9
HETATM    9  O   UNL     1     -21.080 -10.862  -1.930  1.00  0.00    -0.388 OA
HETATM   10  H   UNL     1     -21.953 -11.300  -1.979  1.00  0.00     0.210 HD
ENDBRANCH   4   9
BRANCH   5  11
HETATM   11  O   UNL     1     -19.794 -13.157  -2.904  1.00  0.00    -0.390 OA
HETATM   12  H   UNL     1     -20.640 -13.025  -2.428  1.00  0.00     0.210 HD
ENDBRANCH   5  11
BRANCH   6  13
HETATM   13  O   UNL     1     -18.606 -11.372  -1.057  1.00  0.00    -0.390 OA
HETATM   14  H   UNL     1     -18.804 -10.453  -0.779  1.00  0.00     0.210 HD
ENDBRANCH   6  13
BRANCH   7  15
HETATM   15  C   UNL     1     -17.089  -9.835  -4.154  1.00  0.00     0.198 C 
BRANCH  15  16
HETATM   16  O   UNL     1     -15.750 -10.263  -3.921  1.00  0.00    -0.398 OA
HETATM   17  H   UNL     1     -15.798 -10.876  -3.167  1.00  0.00     0.209 HD
ENDBRANCH  15  16
ENDBRANCH   7  15
ENDBRANCH   2   3
ENDBRANCH   1   2
BRANCH   1  18
HETATM   18  C   UNL     1     -21.209  -6.238  -4.287  1.00  0.00     0.173 C 
BRANCH  18  19
HETATM   19  C   UNL     1     -20.386  -6.539  -5.551  1.00  0.00     0.198 C 
BRANCH  19  20
HETATM   20  O   UNL     1     -21.102  -7.443  -6.396  1.00  0.00    -0.398 OA
HETATM   21  H   UNL     1     -21.806  -6.926  -6.833  1.00  0.00     0.209 HD
ENDBRANCH  19  20
ENDBRANCH  18  19
BRANCH  18  22
HETATM   22  O   UNL     1     -22.581  -6.163  -4.743  1.00  0.00    -0.391 OA
HETATM   23  H   UNL     1     -22.907  -5.265  -4.548  1.00  0.00     0.210 HD
ENDBRANCH  18  22
ENDBRANCH   1  18
BRANCH   1  24
HETATM   24  C   UNL     1     -22.167  -7.033  -1.999  1.00  0.00     0.189 C 
BRANCH  24  25
HETATM   25  C   UNL     1     -21.793  -7.547  -0.595  1.00  0.00     0.246 C 
BRANCH  25  26
HETATM   26  C   UNL     1     -22.870  -8.452   0.008  1.00  0.00     0.172 C 
HETATM   27  O   UNL     1     -22.879  -9.667  -0.048  1.00  0.00    -0.648 OA
BRANCH  26  28
HETATM   28  O   UNL     1     -23.807  -7.735   0.681  1.00  0.00    -0.774 OA
HETATM   29  H   UNL     1     -23.620  -7.800   1.650  1.00  0.00     0.167 HD
ENDBRANCH  26  28
ENDBRANCH  25  26
BRANCH  25  30
HETATM   30  O   UNL     1     -20.607  -8.379  -0.694  1.00  0.00    -0.382 OA
HETATM   31  H   UNL     1     -20.081  -7.997  -1.432  1.00  0.00     0.210 HD
ENDBRANCH  25  30
ENDBRANCH  24  25
BRANCH  24  32
HETATM   32  O   UNL     1     -22.567  -5.664  -1.856  1.00  0.00    -0.390 OA
HETATM   33  H   UNL     1     -23.426  -5.543  -2.305  1.00  0.00     0.210 HD
ENDBRANCH  24  32
ENDBRANCH   1  24
TORSDOF 17
ENDMDL
MODEL 2
REMARK VINA RESULT:      -4.7      2.689      5.333
REMARK  17 active torsions:
REMARK  status: ('A' for Active; 'I' for Inactive)
REMARK    1  A    between atoms: C_1  and  C_2 
REMARK    2  A    between atoms: C_1  and  O_24 
REMARK    3  A    between atoms: C_3  and  O_23 
REMARK    4  A    between atoms: C_4  and  O_22 
REMARK    5  A    between atoms: C_5  and  O_21 
REMARK    6  A    between atoms: C_6  and  O_8 
REMARK    7  A    between atoms: O_8  and  C_9 
REMARK    8  A    between atoms: C_9  and  C_10 
REMARK    9  A    between atoms: C_9  and  C_14 
REMARK   10  A    between atoms: C_10  and  C_11 
REMARK   11  A    between atoms: C_10  and  O_13 
REMARK   12  A    between atoms: C_11  and  O_12 
REMARK   13  A    between atoms: C_14  and  C_15 
REMARK   14  A    between atoms: C_14  and  O_20 
REMARK   15  A    between atoms: C_15  and  C_16 
REMARK   16  A    between atoms: C_15  and  O_19 
REMARK   17  A    between atoms: C_16  and  O_18 
ROOT
HETATM    1  C   UNL     1     -20.982  -7.264  -5.423  1.00  0.00     0.187 C 
ENDROOT
BRANCH   1   2
HETATM    2  O   UNL     1     -19.801  -7.948  -4.929  1.00  0.00    -0.348 OA
BRANCH   2   3
HETATM    3  C   UNL     1     -19.823  -9.390  -4.882  1.00  0.00     0.292 C 
HETATM    4  C   UNL     1     -18.382  -9.844  -5.214  1.00  0.00     0.204 C 
HETATM    5  C   UNL     1     -18.310 -11.370  -5.279  1.00  0.00     0.183 C 
HETATM    6  C   UNL     1     -19.313 -11.908  -6.313  1.00  0.00     0.180 C 
HETATM    7  C   UNL     1     -20.720 -11.362  -6.013  1.00  0.00     0.179 C 
HETATM    8  O   UNL     1     -20.748  -9.918  -5.835  1.00  0.00    -0.348 OA
BRANCH   4   9
HETATM    9  O   UNL     1     -17.979  -9.313  -6.501  1.00  0.00    -0.388 OA
HETATM   10  H   UNL     1     -17.026  -9.522  -6.569  1.00  0.00     0.210 HD
ENDBRANCH   4   9
BRANCH   5  11
HETATM   11  O   UNL     1     -16.979 -11.776  -5.607  1.00  0.00    -0.390 OA
HETATM   12  H   UNL     1     -16.440 -11.588  -4.811  1.00  0.00     0.210 HD
ENDBRANCH   5  11
BRANCH   6  13
HETATM   13  O   UNL     1     -18.927 -11.534  -7.645  1.00  0.00    -0.390 OA
HETATM   14  H   UNL     1     -18.812 -12.362  -8.159  1.00  0.00     0.210 HD
ENDBRANCH   6  13
BRANCH   7  15
HETATM   15  C   UNL     1     -21.359 -12.076  -4.808  1.00  0.00     0.198 C 
BRANCH  15  16
HETATM   16  O   UNL     1     -22.739 -12.322  -5.065  1.00  0.00    -0.398 OA
HETATM   17  H   UNL     1     -23.053 -12.860  -4.317  1.00  0.00     0.209 HD
ENDBRANCH  15  16
ENDBRANCH   7  15
ENDBRANCH   2   3
ENDBRANCH   1   2
BRANCH   1  18
HETATM   18  C   UNL     1     -22.040  -7.001  -4.302  1.00  0.00     0.173 C 
BRANCH  18  19
HETATM   19  C   UNL     1     -21.513  -6.392  -2.992  1.00  0.00     0.198 C 
BRANCH  19  20
HETATM   20  O   UNL     1     -22.600  -5.869  -2.224  1.00  0.00    -0.398 OA
HETATM   21  H   UNL     1     -22.231  -5.176  -1.644  1.00  0.00     0.209 HD
ENDBRANCH  19  20
ENDBRANCH  18  19
BRANCH  18  22
HETATM   22  O   UNL     1     -23.031  -6.059  -4.779  1.00  0.00    -0.391 OA
HETATM   23  H   UNL     1     -22.625  -5.173  -4.770  1.00  0.00     0.210 HD
ENDBRANCH  18  22
ENDBRANCH   1  18
BRANCH   1  24
HETATM   24  C   UNL     1     -20.463  -5.939  -6.083  1.00  0.00     0.189 C 
BRANCH  24  25
HETATM   25  C   UNL     1     -21.120  -5.555  -7.422  1.00  0.00     0.246 C 
BRANCH  25  26
HETATM   26  C   UNL     1     -21.847  -4.209  -7.359  1.00  0.00     0.172 C 
HETATM   27  O   UNL     1     -21.332  -3.123  -7.544  1.00  0.00    -0.648 OA
BRANCH  26  28
HETATM   28  O   UNL     1     -23.176  -4.370  -7.126  1.00  0.00    -0.774 OA
HETATM   29  H   UNL     1     -23.290  -4.905  -6.302  1.00  0.00     0.167 HD
ENDBRANCH  26  28
ENDBRANCH  25  26
BRANCH  25  30
HETATM   30  O   UNL     1     -20.086  -5.382  -8.427  1.00  0.00    -0.382 OA
HETATM   31  H   UNL     1     -20.453  -5.776  -9.250  1.00  0.00     0.210 HD
ENDBRANCH  25  30
ENDBRANCH  24  25
BRANCH  24  32
HETATM   32  O   UNL     1     -20.539  -4.791  -5.229  1.00  0.00    -0.390 OA
HETATM   33  H   UNL     1     -20.899  -4.043  -5.745  1.00  0.00     0.210 HD
ENDBRANCH  24  32
ENDBRANCH   1  24
TORSDOF 17
ENDMDL
MODEL 3
REMARK VINA RESULT:      -4.7      1.680      2.895
REMARK  17 active torsions:
REMARK  status: ('A' for Active; 'I' for Inactive)
REMARK    1  A    between atoms: C_1  and  C_2 
REMARK    2  A    between atoms: C_1  and  O_24 
REMARK    3  A    between atoms: C_3  and  O_23 
REMARK    4  A    between atoms: C_4  and  O_22 
REMARK    5  A    between atoms: C_5  and  O_21 
REMARK    6  A    between atoms: C_6  and  O_8 
REMARK    7  A    between atoms: O_8  and  C_9 
REMARK    8  A    between atoms: C_9  and  C_10 
REMARK    9  A    between atoms: C_9  and  C_14 
REMARK   10  A    between atoms: C_10  and  C_11 
REMARK   11  A    between atoms: C_10  and  O_13 
REMARK   12  A    between atoms: C_11  and  O_12 
REMARK   13  A    between atoms: C_14  and  C_15 
REMARK   14  A    between atoms: C_14  and  O_20 
REMARK   15  A    between atoms: C_15  and  C_16 
REMARK   16  A    between atoms: C_15  and  O_19 
REMARK   17  A    between atoms: C_16  and  O_18 
ROOT
HETATM    1  C   UNL     1     -21.077  -7.640  -2.010  1.00  0.00     0.187 C 
ENDROOT
BRANCH   1   2
HETATM    2  O   UNL     1     -21.005  -8.664  -3.035  1.00  0.00    -0.348 OA
BRANCH   2   3
HETATM    3  C   UNL     1     -19.717  -9.253  -3.315  1.00  0.00     0.292 C 
HETATM    4  C   UNL     1     -19.417  -8.927  -4.797  1.00  0.00     0.204 C 
HETATM    5  C   UNL     1     -18.106  -9.585  -5.229  1.00  0.00     0.183 C 
HETATM    6  C   UNL     1     -18.170 -11.103  -4.997  1.00  0.00     0.180 C 
HETATM    7  C   UNL     1     -18.564 -11.396  -3.538  1.00  0.00     0.179 C 
HETATM    8  O   UNL     1     -19.748 -10.667  -3.108  1.00  0.00    -0.348 OA
BRANCH   4   9
HETATM    9  O   UNL     1     -20.482  -9.433  -5.641  1.00  0.00    -0.388 OA
HETATM   10  H   UNL     1     -20.245  -9.139  -6.543  1.00  0.00     0.210 HD
ENDBRANCH   4   9
BRANCH   5  11
HETATM   11  O   UNL     1     -17.851  -9.293  -6.605  1.00  0.00    -0.390 OA
HETATM   12  H   UNL     1     -17.424 -10.094  -6.972  1.00  0.00     0.210 HD
ENDBRANCH   5  11
BRANCH   6  13
HETATM   13  O   UNL     1     -19.118 -11.718  -5.884  1.00  0.00    -0.390 OA
HETATM   14  H   UNL     1     -19.216 -12.653  -5.604  1.00  0.00     0.210 HD
ENDBRANCH   6  13
BRANCH   7  15
HETATM   15  C   UNL     1     -17.389 -11.153  -2.575  1.00  0.00     0.198 C 
BRANCH  15  16
HETATM   16  O   UNL     1     -17.764 -11.517  -1.249  1.00  0.00    -0.398 OA
HETATM   17  H   UNL     1     -16.937 -11.770  -0.803  1.00  0.00     0.209 HD
ENDBRANCH  15  16
ENDBRANCH   7  15
ENDBRANCH   2   3
ENDBRANCH   1   2
BRANCH   1  18
HETATM   18  C   UNL     1     -21.370  -6.219  -2.596  1.00  0.00     0.173 C 
BRANCH  18  19
HETATM   19  C   UNL     1     -21.358  -6.095  -4.129  1.00  0.00     0.198 C 
BRANCH  19  20
HETATM   20  O   UNL     1     -22.324  -6.984  -4.698  1.00  0.00    -0.398 OA
HETATM   21  H   UNL     1     -21.829  -7.733  -5.081  1.00  0.00     0.209 HD
ENDBRANCH  19  20
ENDBRANCH  18  19
BRANCH  18  22
HETATM   22  O   UNL     1     -22.693  -5.790  -2.196  1.00  0.00    -0.391 OA
HETATM   23  H   UNL     1     -22.656  -4.830  -2.035  1.00  0.00     0.210 HD
ENDBRANCH  18  22
ENDBRANCH   1  18
BRANCH   1  24
HETATM   24  C   UNL     1     -22.186  -8.116  -1.009  1.00  0.00     0.189 C 
BRANCH  24  25
HETATM   25  C   UNL     1     -22.235  -9.630  -0.732  1.00  0.00     0.246 C 
BRANCH  25  26
HETATM   26  C   UNL     1     -21.110 -10.099   0.194  1.00  0.00     0.172 C 
HETATM   27  O   UNL     1     -20.871  -9.642   1.296  1.00  0.00    -0.648 OA
BRANCH  26  28
HETATM   28  O   UNL     1     -20.427 -11.145  -0.339  1.00  0.00    -0.774 OA
HETATM   29  H   UNL     1     -20.685 -11.240  -1.290  1.00  0.00     0.167 HD
ENDBRANCH  26  28
ENDBRANCH  25  26
BRANCH  25  30
HETATM   30  O   UNL     1     -23.465  -9.945  -0.026  1.00  0.00    -0.382 OA
HETATM   31  H   UNL     1     -23.477  -9.347   0.755  1.00  0.00     0.210 HD
ENDBRANCH  25  30
ENDBRANCH  24  25
BRANCH  24  32
HETATM   32  O   UNL     1     -22.152  -7.454   0.262  1.00  0.00    -0.390 OA
HETATM   33  H   UNL     1     -22.420  -6.523   0.136  1.00  0.00     0.210 HD
ENDBRANCH  24  32
ENDBRANCH   1  24
TORSDOF 17
ENDMDL
MODEL 4
REMARK VINA RESULT:      -4.5      1.921      4.716
REMARK  17 active torsions:
REMARK  status: ('A' for Active; 'I' for Inactive)
REMARK    1  A    between atoms: C_1  and  C_2 
REMARK    2  A    between atoms: C_1  and  O_24 
REMARK    3  A    between atoms: C_3  and  O_23 
REMARK    4  A    between atoms: C_4  and  O_22 
REMARK    5  A    between atoms: C_5  and  O_21 
REMARK    6  A    between atoms: C_6  and  O_8 
REMARK    7  A    between atoms: O_8  and  C_9 
REMARK    8  A    between atoms: C_9  and  C_10 
REMARK    9  A    between atoms: C_9  and  C_14 
REMARK   10  A    between atoms: C_10  and  C_11 
REMARK   11  A    between atoms: C_10  and  O_13 
REMARK   12  A    between atoms: C_11  and  O_12 
REMARK   13  A    between atoms: C_14  and  C_15 
REMARK   14  A    between atoms: C_14  and  O_20 
REMARK   15  A    between atoms: C_15  and  C_16 
REMARK   16  A    between atoms: C_15  and  O_19 
REMARK   17  A    between atoms: C_16  and  O_18 
ROOT
HETATM    1  C   UNL     1     -21.119  -8.398  -3.276  1.00  0.00     0.187 C 
ENDROOT
BRANCH   1   2
HETATM    2  O   UNL     1     -19.718  -8.773  -3.307  1.00  0.00    -0.348 OA
BRANCH   2   3
HETATM    3  C   UNL     1     -19.384 -10.116  -3.717  1.00  0.00     0.292 C 
HETATM    4  C   UNL     1     -18.222  -9.972  -4.728  1.00  0.00     0.204 C 
HETATM    5  C   UNL     1     -17.845 -11.339  -5.299  1.00  0.00     0.183 C 
HETATM    6  C   UNL     1     -19.069 -12.002  -5.950  1.00  0.00     0.180 C 
HETATM    7  C   UNL     1     -20.239 -12.044  -4.951  1.00  0.00     0.179 C 
HETATM    8  O   UNL     1     -20.506 -10.756  -4.328  1.00  0.00    -0.348 OA
BRANCH   4   9
HETATM    9  O   UNL     1     -18.624  -9.115  -5.826  1.00  0.00    -0.388 OA
HETATM   10  H   UNL     1     -18.658  -8.216  -5.441  1.00  0.00     0.210 HD
ENDBRANCH   4   9
BRANCH   5  11
HETATM   11  O   UNL     1     -16.785 -11.190  -6.246  1.00  0.00    -0.390 OA
HETATM   12  H   UNL     1     -17.154 -10.653  -6.977  1.00  0.00     0.210 HD
ENDBRANCH   5  11
BRANCH   6  13
HETATM   13  O   UNL     1     -19.471 -11.288  -7.130  1.00  0.00    -0.390 OA
HETATM   14  H   UNL     1     -19.978 -11.913  -7.691  1.00  0.00     0.210 HD
ENDBRANCH   6  13
BRANCH   7  15
HETATM   15  C   UNL     1     -20.034 -13.137  -3.887  1.00  0.00     0.198 C 
BRANCH  15  16
HETATM   16  O   UNL     1     -21.152 -13.171  -3.004  1.00  0.00    -0.398 OA
HETATM   17  H   UNL     1     -21.906 -12.841  -3.523  1.00  0.00     0.209 HD
ENDBRANCH  15  16
ENDBRANCH   7  15
ENDBRANCH   2   3
ENDBRANCH   1   2
BRANCH   1  18
HETATM   18  C   UNL     1     -21.718  -8.424  -1.832  1.00  0.00     0.173 C 
BRANCH  18  19
HETATM   19  C   UNL     1     -22.071  -9.809  -1.261  1.00  0.00     0.198 C 
BRANCH  19  20
HETATM   20  O   UNL     1     -22.565 -10.655  -2.303  1.00  0.00    -0.398 OA
HETATM   21  H   UNL     1     -22.125 -11.520  -2.199  1.00  0.00     0.209 HD
ENDBRANCH  19  20
ENDBRANCH  18  19
BRANCH  18  22
HETATM   22  O   UNL     1     -20.762  -7.868  -0.898  1.00  0.00    -0.391 OA
HETATM   23  H   UNL     1     -20.799  -8.403  -0.084  1.00  0.00     0.210 HD
ENDBRANCH  18  22
ENDBRANCH   1  18
BRANCH   1  24
HETATM   24  C   UNL     1     -21.196  -6.976  -3.932  1.00  0.00     0.189 C 
BRANCH  24  25
HETATM   25  C   UNL     1     -21.445  -6.951  -5.452  1.00  0.00     0.246 C 
BRANCH  25  26
HETATM   26  C   UNL     1     -20.422  -6.096  -6.205  1.00  0.00     0.172 C 
HETATM   27  O   UNL     1     -19.752  -6.470  -7.148  1.00  0.00    -0.648 OA
BRANCH  26  28
HETATM   28  O   UNL     1     -20.388  -4.824  -5.728  1.00  0.00    -0.774 OA
HETATM   29  H   UNL     1     -21.135  -4.704  -5.091  1.00  0.00     0.167 HD
ENDBRANCH  26  28
ENDBRANCH  25  26
BRANCH  25  30
HETATM   30  O   UNL     1     -21.282  -8.293  -5.982  1.00  0.00    -0.382 OA
HETATM   31  H   UNL     1     -22.083  -8.787  -5.694  1.00  0.00     0.210 HD
ENDBRANCH  25  30
ENDBRANCH  24  25
BRANCH  24  32
HETATM   32  O   UNL     1     -22.162  -6.104  -3.331  1.00  0.00    -0.390 OA
HETATM   33  H   UNL     1     -21.761  -5.694  -2.540  1.00  0.00     0.210 HD
ENDBRANCH  24  32
ENDBRANCH   1  24
TORSDOF 17
ENDMDL
MODEL 5
REMARK VINA RESULT:      -4.5      2.070      4.959
REMARK  17 active torsions:
REMARK  status: ('A' for Active; 'I' for Inactive)
REMARK    1  A    between atoms: C_1  and  C_2 
REMARK    2  A    between atoms: C_1  and  O_24 
REMARK    3  A    between atoms: C_3  and  O_23 
REMARK    4  A    between atoms: C_4  and  O_22 
REMARK    5  A    between atoms: C_5  and  O_21 
REMARK    6  A    between atoms: C_6  and  O_8 
REMARK    7  A    between atoms: O_8  and  C_9 
REMARK    8  A    between atoms: C_9  and  C_10 
REMARK    9  A    between atoms: C_9  and  C_14 
REMARK   10  A    between atoms: C_10  and  C_11 
REMARK   11  A    between atoms: C_10  and  O_13 
REMARK   12  A    between atoms: C_11  and  O_12 
REMARK   13  A    between atoms: C_14  and  C_15 
REMARK   14  A    between atoms: C_14  and  O_20 
REMARK   15  A    between atoms: C_15  and  C_16 
REMARK   16  A    between atoms: C_15  and  O_19 
REMARK   17  A    between atoms: C_16  and  O_18 
ROOT
HETATM    1  C   UNL     1     -20.901  -8.291  -4.126  1.00  0.00     0.187 C 
ENDROOT
BRANCH   1   2
HETATM    2  O   UNL     1     -19.973  -8.533  -3.037  1.00  0.00    -0.348 OA
BRANCH   2   3
HETATM    3  C   UNL     1     -20.520  -8.843  -1.737  1.00  0.00     0.292 C 
HETATM    4  C   UNL     1     -19.930 -10.220  -1.350  1.00  0.00     0.204 C 
HETATM    5  C   UNL     1     -20.517 -10.691  -0.019  1.00  0.00     0.183 C 
HETATM    6  C   UNL     1     -22.051 -10.747  -0.102  1.00  0.00     0.180 C 
HETATM    7  C   UNL     1     -22.602  -9.393  -0.583  1.00  0.00     0.179 C 
HETATM    8  O   UNL     1     -21.947  -8.904  -1.786  1.00  0.00    -0.348 OA
BRANCH   4   9
HETATM    9  O   UNL     1     -20.256 -11.202  -2.365  1.00  0.00    -0.388 OA
HETATM   10  H   UNL     1     -21.066 -11.641  -2.036  1.00  0.00     0.210 HD
ENDBRANCH   4   9
BRANCH   5  11
HETATM   11  O   UNL     1     -19.980 -11.972   0.318  1.00  0.00    -0.390 OA
HETATM   12  H   UNL     1     -20.513 -12.624  -0.181  1.00  0.00     0.210 HD
ENDBRANCH   5  11
BRANCH   6  13
HETATM   13  O   UNL     1     -22.477 -11.785  -0.999  1.00  0.00    -0.390 OA
HETATM   14  H   UNL     1     -23.456 -11.825  -0.955  1.00  0.00     0.210 HD
ENDBRANCH   6  13
BRANCH   7  15
HETATM   15  C   UNL     1     -22.558  -8.336   0.535  1.00  0.00     0.198 C 
BRANCH  15  16
HETATM   16  O   UNL     1     -23.814  -7.667   0.621  1.00  0.00    -0.398 OA
HETATM   17  H   UNL     1     -23.723  -6.868   0.073  1.00  0.00     0.209 HD
ENDBRANCH  15  16
ENDBRANCH   7  15
ENDBRANCH   2   3
ENDBRANCH   1   2
BRANCH   1  18
HETATM   18  C   UNL     1     -20.822  -6.827  -4.671  1.00  0.00     0.173 C 
BRANCH  18  19
HETATM   19  C   UNL     1     -21.108  -6.637  -6.170  1.00  0.00     0.198 C 
BRANCH  19  20
HETATM   20  O   UNL     1     -19.879  -6.490  -6.887  1.00  0.00    -0.398 OA
HETATM   21  H   UNL     1     -19.995  -6.943  -7.744  1.00  0.00     0.209 HD
ENDBRANCH  19  20
ENDBRANCH  18  19
BRANCH  18  22
HETATM   22  O   UNL     1     -21.803  -6.003  -3.996  1.00  0.00    -0.391 OA
HETATM   23  H   UNL     1     -22.500  -6.593  -3.655  1.00  0.00     0.210 HD
ENDBRANCH  18  22
ENDBRANCH   1  18
BRANCH   1  24
HETATM   24  C   UNL     1     -20.559  -9.358  -5.223  1.00  0.00     0.189 C 
BRANCH  24  25
HETATM   25  C   UNL     1     -19.082  -9.786  -5.306  1.00  0.00     0.246 C 
BRANCH  25  26
HETATM   26  C   UNL     1     -18.913 -11.256  -5.700  1.00  0.00     0.172 C 
HETATM   27  O   UNL     1     -18.756 -12.178  -4.923  1.00  0.00    -0.648 OA
BRANCH  26  28
HETATM   28  O   UNL     1     -19.020 -11.428  -7.044  1.00  0.00    -0.774 OA
HETATM   29  H   UNL     1     -18.243 -10.999  -7.481  1.00  0.00     0.167 HD
ENDBRANCH  26  28
ENDBRANCH  25  26
BRANCH  25  30
HETATM   30  O   UNL     1     -18.427  -9.032  -6.361  1.00  0.00    -0.382 OA
HETATM   31  H   UNL     1     -18.614  -8.087  -6.161  1.00  0.00     0.210 HD
ENDBRANCH  25  30
ENDBRANCH  24  25
BRANCH  24  32
HETATM   32  O   UNL     1     -21.343 -10.556  -5.140  1.00  0.00    -0.390 OA
HETATM   33  H   UNL     1     -21.362 -10.977  -6.021  1.00  0.00     0.210 HD
ENDBRANCH  24  32
ENDBRANCH   1  24
TORSDOF 17
ENDMDL
MODEL 6
REMARK VINA RESULT:      -4.5      1.998      3.333
REMARK  17 active torsions:
REMARK  status: ('A' for Active; 'I' for Inactive)
REMARK    1  A    between atoms: C_1  and  C_2 
REMARK    2  A    between atoms: C_1  and  O_24 
REMARK    3  A    between atoms: C_3  and  O_23 
REMARK    4  A    between atoms: C_4  and  O_22 
REMARK    5  A    between atoms: C_5  and  O_21 
REMARK    6  A    between atoms: C_6  and  O_8 
REMARK    7  A    between atoms: O_8  and  C_9 
REMARK    8  A    between atoms: C_9  and  C_10 
REMARK    9  A    between atoms: C_9  and  C_14 
REMARK   10  A    between atoms: C_10  and  C_11 
REMARK   11  A    between atoms: C_10  and  O_13 
REMARK   12  A    between atoms: C_11  and  O_12 
REMARK   13  A    between atoms: C_14  and  C_15 
REMARK   14  A    between atoms: C_14  and  O_20 
REMARK   15  A    between atoms: C_15  and  C_16 
REMARK   16  A    between atoms: C_15  and  O_19 
REMARK   17  A    between atoms: C_16  and  O_18 
ROOT
HETATM    1  C   UNL     1     -20.368  -9.353  -3.663  1.00  0.00     0.187 C 
ENDROOT
BRANCH   1   2
HETATM    2  O   UNL     1     -21.238 -10.473  -3.361  1.00  0.00    -0.348 OA
BRANCH   2   3
HETATM    3  C   UNL     1     -20.855 -11.359  -2.287  1.00  0.00     0.292 C 
HETATM    4  C   UNL     1     -22.080 -11.433  -1.345  1.00  0.00     0.204 C 
HETATM    5  C   UNL     1     -21.752 -12.281  -0.115  1.00  0.00     0.183 C 
HETATM    6  C   UNL     1     -20.525 -11.710   0.613  1.00  0.00     0.180 C 
HETATM    7  C   UNL     1     -19.351 -11.558  -0.371  1.00  0.00     0.179 C 
HETATM    8  O   UNL     1     -19.716 -10.851  -1.590  1.00  0.00    -0.348 OA
BRANCH   4   9
HETATM    9  O   UNL     1     -22.443 -10.102  -0.898  1.00  0.00    -0.388 OA
HETATM   10  H   UNL     1     -23.415 -10.131  -0.792  1.00  0.00     0.210 HD
ENDBRANCH   4   9
BRANCH   5  11
HETATM   11  O   UNL     1     -22.884 -12.325   0.756  1.00  0.00    -0.390 OA
HETATM   12  H   UNL     1     -23.312 -13.190   0.593  1.00  0.00     0.210 HD
ENDBRANCH   5  11
BRANCH   6  13
HETATM   13  O   UNL     1     -20.826 -10.435   1.203  1.00  0.00    -0.390 OA
HETATM   14  H   UNL     1     -20.281 -10.352   2.015  1.00  0.00     0.210 HD
ENDBRANCH   6  13
BRANCH   7  15
HETATM   15  C   UNL     1     -18.706 -12.916  -0.696  1.00  0.00     0.198 C 
BRANCH  15  16
HETATM   16  O   UNL     1     -17.668 -12.744  -1.657  1.00  0.00    -0.398 OA
HETATM   17  H   UNL     1     -17.917 -13.302  -2.415  1.00  0.00     0.209 HD
ENDBRANCH  15  16
ENDBRANCH   7  15
ENDBRANCH   2   3
ENDBRANCH   1   2
BRANCH   1  18
HETATM   18  C   UNL     1     -19.776  -9.421  -5.109  1.00  0.00     0.173 C 
BRANCH  18  19
HETATM   19  C   UNL     1     -18.565 -10.348  -5.311  1.00  0.00     0.198 C 
BRANCH  19  20
HETATM   20  O   UNL     1     -18.179 -10.925  -4.061  1.00  0.00    -0.398 OA
HETATM   21  H   UNL     1     -19.001 -11.101  -3.563  1.00  0.00     0.209 HD
ENDBRANCH  19  20
ENDBRANCH  18  19
BRANCH  18  22
HETATM   22  O   UNL     1     -20.783  -9.918  -6.024  1.00  0.00    -0.391 OA
HETATM   23  H   UNL     1     -20.323 -10.253  -6.815  1.00  0.00     0.210 HD
ENDBRANCH  18  22
ENDBRANCH   1  18
BRANCH   1  24
HETATM   24  C   UNL     1     -21.232  -8.065  -3.429  1.00  0.00     0.189 C 
BRANCH  24  25
HETATM   25  C   UNL     1     -20.955  -7.300  -2.121  1.00  0.00     0.246 C 
BRANCH  25  26
HETATM   26  C   UNL     1     -22.223  -6.704  -1.505  1.00  0.00     0.172 C 
HETATM   27  O   UNL     1     -22.730  -7.058  -0.458  1.00  0.00    -0.648 OA
BRANCH  26  28
HETATM   28  O   UNL     1     -22.700  -5.670  -2.247  1.00  0.00    -0.774 OA
HETATM   29  H   UNL     1     -23.643  -5.507  -1.995  1.00  0.00     0.167 HD
ENDBRANCH  26  28
ENDBRANCH  25  26
BRANCH  25  30
HETATM   30  O   UNL     1     -20.450  -8.229  -1.125  1.00  0.00    -0.382 OA
HETATM   31  H   UNL     1     -19.939  -7.678  -0.490  1.00  0.00     0.210 HD
ENDBRANCH  25  30
ENDBRANCH  24  25
BRANCH  24  32
HETATM   32  O   UNL     1     -21.168  -7.113  -4.498  1.00  0.00    -0.390 OA
HETATM   33  H   UNL     1     -21.005  -6.228  -4.117  1.00  0.00     0.210 HD
ENDBRANCH  24  32
ENDBRANCH   1  24
TORSDOF 17
ENDMDL
MODEL 7
REMARK VINA RESULT:      -4.4      1.900      4.876
REMARK  17 active torsions:
REMARK  status: ('A' for Active; 'I' for Inactive)
REMARK    1  A    between atoms: C_1  and  C_2 
REMARK    2  A    between atoms: C_1  and  O_24 
REMARK    3  A    between atoms: C_3  and  O_23 
REMARK    4  A    between atoms: C_4  and  O_22 
REMARK    5  A    between atoms: C_5  and  O_21 
REMARK    6  A    between atoms: C_6  and  O_8 
REMARK    7  A    between atoms: O_8  and  C_9 
REMARK    8  A    between atoms: C_9  and  C_10 
REMARK    9  A    between atoms: C_9  and  C_14 
REMARK   10  A    between atoms: C_10  and  C_11 
REMARK   11  A    between atoms: C_10  and  O_13 
REMARK   12  A    between atoms: C_11  and  O_12 
REMARK   13  A    between atoms: C_14  and  C_15 
REMARK   14  A    between atoms: C_14  and  O_20 
REMARK   15  A    between atoms: C_15  and  C_16 
REMARK   16  A    between atoms: C_15  and  O_19 
REMARK   17  A    between atoms: C_16  and  O_18 
ROOT
HETATM    1  C   UNL     1     -21.333  -8.824  -4.470  1.00  0.00     0.187 C 
ENDROOT
BRANCH   1   2
HETATM    2  O   UNL     1     -20.743  -8.628  -3.159  1.00  0.00    -0.348 OA
BRANCH   2   3
HETATM    3  C   UNL     1     -21.245  -9.425  -2.064  1.00  0.00     0.292 C 
HETATM    4  C   UNL     1     -22.233  -8.513  -1.299  1.00  0.00     0.204 C 
HETATM    5  C   UNL     1     -22.762  -9.232  -0.057  1.00  0.00     0.183 C 
HETATM    6  C   UNL     1     -21.595  -9.666   0.845  1.00  0.00     0.180 C 
HETATM    7  C   UNL     1     -20.580 -10.489   0.033  1.00  0.00     0.179 C 
HETATM    8  O   UNL     1     -20.179  -9.841  -1.207  1.00  0.00    -0.348 OA
BRANCH   4   9
HETATM    9  O   UNL     1     -21.563  -7.301  -0.874  1.00  0.00    -0.388 OA
HETATM   10  H   UNL     1     -21.024  -7.031  -1.644  1.00  0.00     0.210 HD
ENDBRANCH   4   9
BRANCH   5  11
HETATM   11  O   UNL     1     -23.658  -8.373   0.652  1.00  0.00    -0.390 OA
HETATM   12  H   UNL     1     -24.361  -8.137   0.013  1.00  0.00     0.210 HD
ENDBRANCH   5  11
BRANCH   6  13
HETATM   13  O   UNL     1     -20.939  -8.524   1.419  1.00  0.00    -0.390 OA
HETATM   14  H   UNL     1     -20.553  -8.808   2.274  1.00  0.00     0.210 HD
ENDBRANCH   6  13
BRANCH   7  15
HETATM   15  C   UNL     1     -21.093 -11.915  -0.234  1.00  0.00     0.198 C 
BRANCH  15  16
HETATM   16  O   UNL     1     -20.097 -12.669  -0.921  1.00  0.00    -0.398 OA
HETATM   17  H   UNL     1     -20.569 -13.416  -1.330  1.00  0.00     0.209 HD
ENDBRANCH  15  16
ENDBRANCH   7  15
ENDBRANCH   2   3
ENDBRANCH   1   2
BRANCH   1  18
HETATM   18  C   UNL     1     -21.650  -7.475  -5.196  1.00  0.00     0.173 C 
BRANCH  18  19
HETATM   19  C   UNL     1     -21.223  -6.188  -4.468  1.00  0.00     0.198 C 
BRANCH  19  20
HETATM   20  O   UNL     1     -22.093  -5.944  -3.359  1.00  0.00    -0.398 OA
HETATM   21  H   UNL     1     -22.167  -6.784  -2.866  1.00  0.00     0.209 HD
ENDBRANCH  19  20
ENDBRANCH  18  19
BRANCH  18  22
HETATM   22  O   UNL     1     -20.959  -7.432  -6.467  1.00  0.00    -0.391 OA
HETATM   23  H   UNL     1     -20.932  -6.502  -6.757  1.00  0.00     0.210 HD
ENDBRANCH  18  22
ENDBRANCH   1  18
BRANCH   1  24
HETATM   24  C   UNL     1     -20.315  -9.710  -5.268  1.00  0.00     0.189 C 
BRANCH  24  25
HETATM   25  C   UNL     1     -18.827  -9.355  -5.084  1.00  0.00     0.246 C 
BRANCH  25  26
HETATM   26  C   UNL     1     -18.020 -10.496  -4.460  1.00  0.00     0.172 C 
HETATM   27  O   UNL     1     -17.308 -11.269  -5.071  1.00  0.00    -0.648 OA
BRANCH  26  28
HETATM   28  O   UNL     1     -18.145 -10.515  -3.107  1.00  0.00    -0.774 OA
HETATM   29  H   UNL     1     -19.032 -10.886  -2.876  1.00  0.00     0.167 HD
ENDBRANCH  26  28
ENDBRANCH  25  26
BRANCH  25  30
HETATM   30  O   UNL     1     -18.227  -9.133  -6.387  1.00  0.00    -0.382 OA
HETATM   31  H   UNL     1     -17.318  -9.505  -6.323  1.00  0.00     0.210 HD
ENDBRANCH  25  30
ENDBRANCH  24  25
BRANCH  24  32
HETATM   32  O   UNL     1     -20.447 -11.117  -5.027  1.00  0.00    -0.390 OA
HETATM   33  H   UNL     1     -21.398 -11.344  -5.024  1.00  0.00     0.210 HD
ENDBRANCH  24  32
ENDBRANCH   1  24
TORSDOF 17
ENDMDL
MODEL 8
REMARK VINA RESULT:      -4.3      1.770      4.516
REMARK  17 active torsions:
REMARK  status: ('A' for Active; 'I' for Inactive)
REMARK    1  A    between atoms: C_1  and  C_2 
REMARK    2  A    between atoms: C_1  and  O_24 
REMARK    3  A    between atoms: C_3  and  O_23 
REMARK    4  A    between atoms: C_4  and  O_22 
REMARK    5  A    between atoms: C_5  and  O_21 
REMARK    6  A    between atoms: C_6  and  O_8 
REMARK    7  A    between atoms: O_8  and  C_9 
REMARK    8  A    between atoms: C_9  and  C_10 
REMARK    9  A    between atoms: C_9  and  C_14 
REMARK   10  A    between atoms: C_10  and  C_11 
REMARK   11  A    between atoms: C_10  and  O_13 
REMARK   12  A    between atoms: C_11  and  O_12 
REMARK   13  A    between atoms: C_14  and  C_15 
REMARK   14  A    between atoms: C_14  and  O_20 
REMARK   15  A    between atoms: C_15  and  C_16 
REMARK   16  A    between atoms: C_15  and  O_19 
REMARK   17  A    between atoms: C_16  and  O_18 
ROOT
HETATM    1  C   UNL     1     -21.000  -8.562  -3.181  1.00  0.00     0.187 C 
ENDROOT
BRANCH   1   2
HETATM    2  O   UNL     1     -19.576  -8.789  -3.020  1.00  0.00    -0.348 OA
BRANCH   2   3
HETATM    3  C   UNL     1     -18.984  -9.905  -3.718  1.00  0.00     0.292 C 
HETATM    4  C   UNL     1     -17.749 -10.316  -2.884  1.00  0.00     0.204 C 
HETATM    5  C   UNL     1     -16.988 -11.443  -3.584  1.00  0.00     0.183 C 
HETATM    6  C   UNL     1     -16.582 -11.011  -5.002  1.00  0.00     0.180 C 
HETATM    7  C   UNL     1     -17.817 -10.516  -5.776  1.00  0.00     0.179 C 
HETATM    8  O   UNL     1     -18.594  -9.530  -5.041  1.00  0.00    -0.348 OA
BRANCH   4   9
HETATM    9  O   UNL     1     -16.853  -9.186  -2.733  1.00  0.00    -0.388 OA
HETATM   10  H   UNL     1     -16.480  -9.043  -3.626  1.00  0.00     0.210 HD
ENDBRANCH   4   9
BRANCH   5  11
HETATM   11  O   UNL     1     -15.838 -11.800  -2.814  1.00  0.00    -0.390 OA
HETATM   12  H   UNL     1     -16.168 -12.382  -2.099  1.00  0.00     0.210 HD
ENDBRANCH   5  11
BRANCH   6  13
HETATM   13  O   UNL     1     -15.594  -9.969  -4.957  1.00  0.00    -0.390 OA
HETATM   14  H   UNL     1     -15.348  -9.840  -4.016  1.00  0.00     0.210 HD
ENDBRANCH   6  13
BRANCH   7  15
HETATM   15  C   UNL     1     -18.704 -11.687  -6.233  1.00  0.00     0.198 C 
BRANCH  15  16
HETATM   16  O   UNL     1     -19.897 -11.188  -6.833  1.00  0.00    -0.398 OA
HETATM   17  H   UNL     1     -19.631 -10.859  -7.709  1.00  0.00     0.209 HD
ENDBRANCH  15  16
ENDBRANCH   7  15
ENDBRANCH   2   3
ENDBRANCH   1   2
BRANCH   1  18
HETATM   18  C   UNL     1     -21.767  -8.558  -1.818  1.00  0.00     0.173 C 
BRANCH  18  19
HETATM   19  C   UNL     1     -21.912  -9.917  -1.109  1.00  0.00     0.198 C 
BRANCH  19  20
HETATM   20  O   UNL     1     -20.636 -10.362  -0.643  1.00  0.00    -0.398 OA
HETATM   21  H   UNL     1     -20.678 -11.336  -0.587  1.00  0.00     0.209 HD
ENDBRANCH  19  20
ENDBRANCH  18  19
BRANCH  18  22
HETATM   22  O   UNL     1     -21.072  -7.715  -0.869  1.00  0.00    -0.391 OA
HETATM   23  H   UNL     1     -20.760  -6.926  -1.349  1.00  0.00     0.210 HD
ENDBRANCH  18  22
ENDBRANCH   1  18
BRANCH   1  24
HETATM   24  C   UNL     1     -21.132  -7.200  -3.947  1.00  0.00     0.189 C 
BRANCH  24  25
HETATM   25  C   UNL     1     -21.530  -7.302  -5.432  1.00  0.00     0.246 C 
BRANCH  25  26
HETATM   26  C   UNL     1     -20.806  -6.277  -6.309  1.00  0.00     0.172 C 
HETATM   27  O   UNL     1     -19.927  -6.534  -7.109  1.00  0.00    -0.648 OA
BRANCH  26  28
HETATM   28  O   UNL     1     -21.307  -5.027  -6.133  1.00  0.00    -0.774 OA
HETATM   29  H   UNL     1     -20.668  -4.504  -5.587  1.00  0.00     0.167 HD
ENDBRANCH  26  28
ENDBRANCH  25  26
BRANCH  25  30
HETATM   30  O   UNL     1     -21.122  -8.598  -5.945  1.00  0.00    -0.382 OA
HETATM   31  H   UNL     1     -20.382  -8.887  -5.365  1.00  0.00     0.210 HD
ENDBRANCH  25  30
ENDBRANCH  24  25
BRANCH  24  32
HETATM   32  O   UNL     1     -22.028  -6.265  -3.332  1.00  0.00    -0.390 OA
HETATM   33  H   UNL     1     -22.934  -6.449  -3.647  1.00  0.00     0.210 HD
ENDBRANCH  24  32
ENDBRANCH   1  24
TORSDOF 17
ENDMDL
MODEL 9
REMARK VINA RESULT:      -4.2      1.490      4.339
REMARK  17 active torsions:
REMARK  status: ('A' for Active; 'I' for Inactive)
REMARK    1  A    between atoms: C_1  and  C_2 
REMARK    2  A    between atoms: C_1  and  O_24 
REMARK    3  A    between atoms: C_3  and  O_23 
REMARK    4  A    between atoms: C_4  and  O_22 
REMARK    5  A    between atoms: C_5  and  O_21 
REMARK    6  A    between atoms: C_6  and  O_8 
REMARK    7  A    between atoms: O_8  and  C_9 
REMARK    8  A    between atoms: C_9  and  C_10 
REMARK    9  A    between atoms: C_9  and  C_14 
REMARK   10  A    between atoms: C_10  and  C_11 
REMARK   11  A    between atoms: C_10  and  O_13 
REMARK   12  A    between atoms: C_11  and  O_12 
REMARK   13  A    between atoms: C_14  and  C_15 
REMARK   14  A    between atoms: C_14  and  O_20 
REMARK   15  A    between atoms: C_15  and  C_16 
REMARK   16  A    between atoms: C_15  and  O_19 
REMARK   17  A    between atoms: C_16  and  O_18 
ROOT
HETATM    1  C   UNL     1     -20.872  -9.101  -1.924  1.00  0.00     0.187 C 
ENDROOT
BRANCH   1   2
HETATM    2  O   UNL     1     -19.502  -8.741  -2.242  1.00  0.00    -0.348 OA
BRANCH   2   3
HETATM    3  C   UNL     1     -18.600  -9.794  -2.641  1.00  0.00     0.292 C 
HETATM    4  C   UNL     1     -17.986  -9.336  -3.986  1.00  0.00     0.204 C 
HETATM    5  C   UNL     1     -17.074 -10.426  -4.549  1.00  0.00     0.183 C 
HETATM    6  C   UNL     1     -17.852 -11.741  -4.713  1.00  0.00     0.180 C 
HETATM    7  C   UNL     1     -18.531 -12.121  -3.385  1.00  0.00     0.179 C 
HETATM    8  O   UNL     1     -19.298 -11.030  -2.803  1.00  0.00    -0.348 OA
BRANCH   4   9
HETATM    9  O   UNL     1     -19.039  -9.079  -4.949  1.00  0.00    -0.388 OA
HETATM   10  H   UNL     1     -18.816  -9.642  -5.717  1.00  0.00     0.210 HD
ENDBRANCH   4   9
BRANCH   5  11
HETATM   11  O   UNL     1     -16.529  -9.999  -5.800  1.00  0.00    -0.390 OA
HETATM   12  H   UNL     1     -16.594  -9.023  -5.800  1.00  0.00     0.210 HD
ENDBRANCH   5  11
BRANCH   6  13
HETATM   13  O   UNL     1     -18.846 -11.623  -5.744  1.00  0.00    -0.390 OA
HETATM   14  H   UNL     1     -18.578 -10.880  -6.325  1.00  0.00     0.210 HD
ENDBRANCH   6  13
BRANCH   7  15
HETATM   15  C   UNL     1     -17.517 -12.680  -2.372  1.00  0.00     0.198 C 
BRANCH  15  16
HETATM   16  O   UNL     1     -18.176 -12.999  -1.149  1.00  0.00    -0.398 OA
HETATM   17  H   UNL     1     -17.479 -13.323  -0.552  1.00  0.00     0.209 HD
ENDBRANCH  15  16
ENDBRANCH   7  15
ENDBRANCH   2   3
ENDBRANCH   1   2
BRANCH   1  18
HETATM   18  C   UNL     1     -21.247  -8.793  -0.438  1.00  0.00     0.173 C 
BRANCH  18  19
HETATM   19  C   UNL     1     -22.748  -8.707  -0.113  1.00  0.00     0.198 C 
BRANCH  19  20
HETATM   20  O   UNL     1     -23.141  -7.338   0.019  1.00  0.00    -0.398 OA
HETATM   21  H   UNL     1     -23.920  -7.209  -0.556  1.00  0.00     0.209 HD
ENDBRANCH  19  20
ENDBRANCH  18  19
BRANCH  18  22
HETATM   22  O   UNL     1     -20.739  -9.842   0.420  1.00  0.00    -0.391 OA
HETATM   23  H   UNL     1     -20.841  -9.544   1.343  1.00  0.00     0.210 HD
ENDBRANCH  18  22
ENDBRANCH   1  18
BRANCH   1  24
HETATM   24  C   UNL     1     -21.767  -8.316  -2.945  1.00  0.00     0.189 C 
BRANCH  24  25
HETATM   25  C   UNL     1     -21.408  -6.832  -3.150  1.00  0.00     0.246 C 
BRANCH  25  26
HETATM   26  C   UNL     1     -21.516  -6.395  -4.613  1.00  0.00     0.172 C 
HETATM   27  O   UNL     1     -22.526  -5.983  -5.150  1.00  0.00    -0.648 OA
BRANCH  26  28
HETATM   28  O   UNL     1     -20.315  -6.463  -5.244  1.00  0.00    -0.774 OA
HETATM   29  H   UNL     1     -19.653  -6.858  -4.624  1.00  0.00     0.167 HD
ENDBRANCH  26  28
ENDBRANCH  25  26
BRANCH  25  30
HETATM   30  O   UNL     1     -22.367  -6.008  -2.435  1.00  0.00    -0.382 OA
HETATM   31  H   UNL     1     -21.994  -5.899  -1.531  1.00  0.00     0.210 HD
ENDBRANCH  25  30
ENDBRANCH  24  25
BRANCH  24  32
HETATM   32  O   UNL     1     -21.841  -8.917  -4.244  1.00  0.00    -0.390 OA
HETATM   33  H   UNL     1     -22.286  -8.294  -4.850  1.00  0.00     0.210 HD
ENDBRANCH  24  32
ENDBRANCH   1  24
TORSDOF 17
ENDMDL
