MODEL 1
REMARK VINA RESULT:      -1.3      0.000      0.000
REMARK  15 active torsions:
REMARK  status: ('A' for Active; 'I' for Inactive)
REMARK    1  A    between atoms: C_2  and  C_3 
REMARK    2  A    between atoms: C_3  and  C_4 
REMARK    3  A    between atoms: C_4  and  C_5 
REMARK    4  A    between atoms: C_5  and  C_6 
REMARK    5  A    between atoms: C_6  and  C_7 
REMARK    6  A    between atoms: C_7  and  C_8 
REMARK    7  A    between atoms: C_8  and  C_9 
REMARK    8  A    between atoms: C_9  and  C_10 
REMARK    9  A    between atoms: C_10  and  C_11 
REMARK   10  A    between atoms: C_11  and  C_12 
REMARK   11  A    between atoms: C_12  and  N_13 
REMARK   12  A    between atoms: N_13  and  C_14 
REMARK   13  A    between atoms: N_13  and  C_18 
REMARK   14  A    between atoms: C_14  and  C_15 
REMARK   15  A    between atoms: C_18  and  C_19 
ROOT
HETATM    1 NA   UNL     2     -32.324  -8.576   4.529  1.00  0.00     0.000 Na
ENDROOT
TORSDOF 15
ENDMDL
MODEL 2
REMARK VINA RESULT:      -1.3     23.494     23.494
REMARK  15 active torsions:
REMARK  status: ('A' for Active; 'I' for Inactive)
REMARK    1  A    between atoms: C_2  and  C_3 
REMARK    2  A    between atoms: C_3  and  C_4 
REMARK    3  A    between atoms: C_4  and  C_5 
REMARK    4  A    between atoms: C_5  and  C_6 
REMARK    5  A    between atoms: C_6  and  C_7 
REMARK    6  A    between atoms: C_7  and  C_8 
REMARK    7  A    between atoms: C_8  and  C_9 
REMARK    8  A    between atoms: C_9  and  C_10 
REMARK    9  A    between atoms: C_10  and  C_11 
REMARK   10  A    between atoms: C_11  and  C_12 
REMARK   11  A    between atoms: C_12  and  N_13 
REMARK   12  A    between atoms: N_13  and  C_14 
REMARK   13  A    between atoms: N_13  and  C_18 
REMARK   14  A    between atoms: C_14  and  C_15 
REMARK   15  A    between atoms: C_18  and  C_19 
ROOT
HETATM    1 NA   UNL     2     -11.257   1.620   2.468  1.00  0.00     0.000 Na
ENDROOT
TORSDOF 15
ENDMDL
MODEL 3
REMARK VINA RESULT:      -1.2     19.033     19.033
REMARK  15 active torsions:
REMARK  status: ('A' for Active; 'I' for Inactive)
REMARK    1  A    between atoms: C_2  and  C_3 
REMARK    2  A    between atoms: C_3  and  C_4 
REMARK    3  A    between atoms: C_4  and  C_5 
REMARK    4  A    between atoms: C_5  and  C_6 
REMARK    5  A    between atoms: C_6  and  C_7 
REMARK    6  A    between atoms: C_7  and  C_8 
REMARK    7  A    between atoms: C_8  and  C_9 
REMARK    8  A    between atoms: C_9  and  C_10 
REMARK    9  A    between atoms: C_10  and  C_11 
REMARK   10  A    between atoms: C_11  and  C_12 
REMARK   11  A    between atoms: C_12  and  N_13 
REMARK   12  A    between atoms: N_13  and  C_14 
REMARK   13  A    between atoms: N_13  and  C_18 
REMARK   14  A    between atoms: C_14  and  C_15 
REMARK   15  A    between atoms: C_18  and  C_19 
ROOT
HETATM    1 NA   UNL     2     -27.015 -13.665 -13.026  1.00  0.00     0.000 Na
ENDROOT
TORSDOF 15
ENDMDL
MODEL 4
REMARK VINA RESULT:      -1.2     22.214     22.214
REMARK  15 active torsions:
REMARK  status: ('A' for Active; 'I' for Inactive)
REMARK    1  A    between atoms: C_2  and  C_3 
REMARK    2  A    between atoms: C_3  and  C_4 
REMARK    3  A    between atoms: C_4  and  C_5 
REMARK    4  A    between atoms: C_5  and  C_6 
REMARK    5  A    between atoms: C_6  and  C_7 
REMARK    6  A    between atoms: C_7  and  C_8 
REMARK    7  A    between atoms: C_8  and  C_9 
REMARK    8  A    between atoms: C_9  and  C_10 
REMARK    9  A    between atoms: C_10  and  C_11 
REMARK   10  A    between atoms: C_11  and  C_12 
REMARK   11  A    between atoms: C_12  and  N_13 
REMARK   12  A    between atoms: N_13  and  C_14 
REMARK   13  A    between atoms: N_13  and  C_18 
REMARK   14  A    between atoms: C_14  and  C_15 
REMARK   15  A    between atoms: C_18  and  C_19 
ROOT
HETATM    1 NA   UNL     2     -25.110   0.412 -14.461  1.00  0.00     0.000 Na
ENDROOT
TORSDOF 15
ENDMDL
MODEL 5
REMARK VINA RESULT:      -1.1     12.328     12.328
REMARK  15 active torsions:
REMARK  status: ('A' for Active; 'I' for Inactive)
REMARK    1  A    between atoms: C_2  and  C_3 
REMARK    2  A    between atoms: C_3  and  C_4 
REMARK    3  A    between atoms: C_4  and  C_5 
REMARK    4  A    between atoms: C_5  and  C_6 
REMARK    5  A    between atoms: C_6  and  C_7 
REMARK    6  A    between atoms: C_7  and  C_8 
REMARK    7  A    between atoms: C_8  and  C_9 
REMARK    8  A    between atoms: C_9  and  C_10 
REMARK    9  A    between atoms: C_10  and  C_11 
REMARK   10  A    between atoms: C_11  and  C_12 
REMARK   11  A    between atoms: C_12  and  N_13 
REMARK   12  A    between atoms: N_13  and  C_14 
REMARK   13  A    between atoms: N_13  and  C_18 
REMARK   14  A    between atoms: C_14  and  C_15 
REMARK   15  A    between atoms: C_18  and  C_19 
ROOT
HETATM    1 NA   UNL     2     -25.223  -5.220  -4.974  1.00  0.00     0.000 Na
ENDROOT
TORSDOF 15
ENDMDL
MODEL 6
REMARK VINA RESULT:      -1.1     26.895     26.895
REMARK  15 active torsions:
REMARK  status: ('A' for Active; 'I' for Inactive)
REMARK    1  A    between atoms: C_2  and  C_3 
REMARK    2  A    between atoms: C_3  and  C_4 
REMARK    3  A    between atoms: C_4  and  C_5 
REMARK    4  A    between atoms: C_5  and  C_6 
REMARK    5  A    between atoms: C_6  and  C_7 
REMARK    6  A    between atoms: C_7  and  C_8 
REMARK    7  A    between atoms: C_8  and  C_9 
REMARK    8  A    between atoms: C_9  and  C_10 
REMARK    9  A    between atoms: C_10  and  C_11 
REMARK   10  A    between atoms: C_11  and  C_12 
REMARK   11  A    between atoms: C_12  and  N_13 
REMARK   12  A    between atoms: N_13  and  C_14 
REMARK   13  A    between atoms: N_13  and  C_18 
REMARK   14  A    between atoms: C_14  and  C_15 
REMARK   15  A    between atoms: C_18  and  C_19 
ROOT
HETATM    1 NA   UNL     2     -35.597  -5.030 -21.930  1.00  0.00     0.000 Na
ENDROOT
TORSDOF 15
ENDMDL
MODEL 7
REMARK VINA RESULT:      -1.0      9.902      9.902
REMARK  15 active torsions:
REMARK  status: ('A' for Active; 'I' for Inactive)
REMARK    1  A    between atoms: C_2  and  C_3 
REMARK    2  A    between atoms: C_3  and  C_4 
REMARK    3  A    between atoms: C_4  and  C_5 
REMARK    4  A    between atoms: C_5  and  C_6 
REMARK    5  A    between atoms: C_6  and  C_7 
REMARK    6  A    between atoms: C_7  and  C_8 
REMARK    7  A    between atoms: C_8  and  C_9 
REMARK    8  A    between atoms: C_9  and  C_10 
REMARK    9  A    between atoms: C_10  and  C_11 
REMARK   10  A    between atoms: C_11  and  C_12 
REMARK   11  A    between atoms: C_12  and  N_13 
REMARK   12  A    between atoms: N_13  and  C_14 
REMARK   13  A    between atoms: N_13  and  C_18 
REMARK   14  A    between atoms: C_14  and  C_15 
REMARK   15  A    between atoms: C_18  and  C_19 
ROOT
HETATM    1 NA   UNL     2     -32.732  -6.045  -5.036  1.00  0.00     0.000 Na
ENDROOT
TORSDOF 15
ENDMDL
MODEL 8
REMARK VINA RESULT:      -1.0     25.315     25.315
REMARK  15 active torsions:
REMARK  status: ('A' for Active; 'I' for Inactive)
REMARK    1  A    between atoms: C_2  and  C_3 
REMARK    2  A    between atoms: C_3  and  C_4 
REMARK    3  A    between atoms: C_4  and  C_5 
REMARK    4  A    between atoms: C_5  and  C_6 
REMARK    5  A    between atoms: C_6  and  C_7 
REMARK    6  A    between atoms: C_7  and  C_8 
REMARK    7  A    between atoms: C_8  and  C_9 
REMARK    8  A    between atoms: C_9  and  C_10 
REMARK    9  A    between atoms: C_10  and  C_11 
REMARK   10  A    between atoms: C_11  and  C_12 
REMARK   11  A    between atoms: C_12  and  N_13 
REMARK   12  A    between atoms: N_13  and  C_14 
REMARK   13  A    between atoms: N_13  and  C_18 
REMARK   14  A    between atoms: C_14  and  C_15 
REMARK   15  A    between atoms: C_18  and  C_19 
ROOT
HETATM    1 NA   UNL     2     -23.226   0.186 -17.410  1.00  0.00     0.000 Na
ENDROOT
TORSDOF 15
ENDMDL
MODEL 9
REMARK VINA RESULT:      -1.0     22.875     22.875
REMARK  15 active torsions:
REMARK  status: ('A' for Active; 'I' for Inactive)
REMARK    1  A    between atoms: C_2  and  C_3 
REMARK    2  A    between atoms: C_3  and  C_4 
REMARK    3  A    between atoms: C_4  and  C_5 
REMARK    4  A    between atoms: C_5  and  C_6 
REMARK    5  A    between atoms: C_6  and  C_7 
REMARK    6  A    between atoms: C_7  and  C_8 
REMARK    7  A    between atoms: C_8  and  C_9 
REMARK    8  A    between atoms: C_9  and  C_10 
REMARK    9  A    between atoms: C_10  and  C_11 
REMARK   10  A    between atoms: C_11  and  C_12 
REMARK   11  A    between atoms: C_12  and  N_13 
REMARK   12  A    between atoms: N_13  and  C_14 
REMARK   13  A    between atoms: N_13  and  C_18 
REMARK   14  A    between atoms: C_14  and  C_15 
REMARK   15  A    between atoms: C_18  and  C_19 
ROOT
HETATM    1 NA   UNL     2     -11.818   0.813   0.707  1.00  0.00     0.000 Na
ENDROOT
TORSDOF 15
ENDMDL
