MODEL 1
REMARK VINA RESULT:      -6.9      0.000      0.000
REMARK  11 active torsions:
REMARK  status: ('A' for Active; 'I' for Inactive)
REMARK    1  A    between atoms: C_1  and  C_2 
REMARK    2  A    between atoms: C_1  and  O_17 
REMARK    3  A    between atoms: C_2  and  C_3 
REMARK    4  A    between atoms: C_2  and  O_16 
REMARK    5  A    between atoms: C_3  and  O_4 
REMARK    6  A    between atoms: O_4  and  C_5 
REMARK    7  A    between atoms: C_6  and  O_15 
REMARK    8  A    between atoms: C_7  and  C_11 
REMARK    9  A    between atoms: C_11  and  C_12 
REMARK   10  A    between atoms: C_11  and  O_14 
REMARK   11  A    between atoms: C_12  and  O_13 
ROOT
HETATM    1  C   UNL     1     -22.694  -3.840 -10.566  1.00  0.00     0.176 A 
HETATM    2  C   UNL     1     -22.185  -3.102 -11.557  1.00  0.00     0.115 A 
HETATM    3  C   UNL     1     -23.233  -2.408 -12.341  1.00  0.00     0.222 A 
HETATM    4  O   UNL     1     -24.441  -2.782 -11.670  1.00  0.00    -0.301 OA
HETATM    5  C   UNL     1     -24.162  -3.648 -10.652  1.00  0.00     0.320 A 
HETATM    6  O   UNL     1     -25.005  -4.156  -9.937  1.00  0.00    -0.257 OA
ENDROOT
BRANCH   1   7
HETATM    7  O   UNL     1     -21.964  -4.567  -9.657  1.00  0.00    -0.341 OA
BRANCH   7   8
HETATM    8  C   UNL     1     -21.528  -3.806  -8.516  1.00  0.00     0.209 C 
BRANCH   8   9
HETATM    9  C   UNL     1     -22.096  -4.391  -7.216  1.00  0.00     0.166 C 
BRANCH   9  10
HETATM   10  C   UNL     1     -21.601  -5.822  -6.962  1.00  0.00     0.198 C 
BRANCH  10  11
HETATM   11  O   UNL     1     -20.339  -6.061  -7.584  1.00  0.00    -0.398 OA
HETATM   12  H   UNL     1     -20.011  -5.216  -7.941  1.00  0.00     0.209 HD
ENDBRANCH  10  11
ENDBRANCH   9  10
BRANCH   9  13
HETATM   13  O   UNL     1     -23.526  -4.352  -7.251  1.00  0.00    -0.391 OA
HETATM   14  H   UNL     1     -23.837  -5.259  -7.413  1.00  0.00     0.210 HD
ENDBRANCH   9  13
ENDBRANCH   8   9
ENDBRANCH   7   8
ENDBRANCH   1   7
BRANCH   2  15
HETATM   15  O   UNL     1     -20.860  -2.923 -11.850  1.00  0.00    -0.359 OA
HETATM   16  H   UNL     1     -20.495  -3.782 -12.135  1.00  0.00     0.217 HD
ENDBRANCH   2  15
BRANCH   3  17
HETATM   17  C   UNL     1     -23.301  -2.829 -13.823  1.00  0.00     0.177 C 
BRANCH  17  18
HETATM   18  C   UNL     1     -23.664  -1.639 -14.721  1.00  0.00     0.198 C 
BRANCH  18  19
HETATM   19  O   UNL     1     -24.900  -1.072 -14.286  1.00  0.00    -0.398 OA
HETATM   20  H   UNL     1     -25.470  -1.042 -15.080  1.00  0.00     0.209 HD
ENDBRANCH  18  19
ENDBRANCH  17  18
BRANCH  17  21
HETATM   21  O   UNL     1     -22.059  -3.357 -14.322  1.00  0.00    -0.390 OA
HETATM   22  H   UNL     1     -21.704  -2.743 -14.991  1.00  0.00     0.210 HD
ENDBRANCH  17  21
ENDBRANCH   3  17
TORSDOF 11
ENDMDL
MODEL 2
REMARK VINA RESULT:      -6.6      0.923      6.277
REMARK  11 active torsions:
REMARK  status: ('A' for Active; 'I' for Inactive)
REMARK    1  A    between atoms: C_1  and  C_2 
REMARK    2  A    between atoms: C_1  and  O_17 
REMARK    3  A    between atoms: C_2  and  C_3 
REMARK    4  A    between atoms: C_2  and  O_16 
REMARK    5  A    between atoms: C_3  and  O_4 
REMARK    6  A    between atoms: O_4  and  C_5 
REMARK    7  A    between atoms: C_6  and  O_15 
REMARK    8  A    between atoms: C_7  and  C_11 
REMARK    9  A    between atoms: C_11  and  C_12 
REMARK   10  A    between atoms: C_11  and  O_14 
REMARK   11  A    between atoms: C_12  and  O_13 
ROOT
HETATM    1  C   UNL     1     -23.291  -3.962 -11.078  1.00  0.00     0.176 A 
HETATM    2  C   UNL     1     -23.871  -3.755  -9.892  1.00  0.00     0.115 A 
HETATM    3  C   UNL     1     -22.885  -3.635  -8.792  1.00  0.00     0.222 A 
HETATM    4  O   UNL     1     -21.628  -3.751  -9.470  1.00  0.00    -0.301 OA
HETATM    5  C   UNL     1     -21.834  -3.980 -10.800  1.00  0.00     0.320 A 
HETATM    6  O   UNL     1     -20.941  -4.154 -11.608  1.00  0.00    -0.257 OA
ENDROOT
BRANCH   1   7
HETATM    7  O   UNL     1     -23.948  -4.080 -12.279  1.00  0.00    -0.341 OA
BRANCH   7   8
HETATM    8  C   UNL     1     -24.339  -2.821 -12.855  1.00  0.00     0.209 C 
BRANCH   8   9
HETATM    9  C   UNL     1     -23.210  -2.237 -13.715  1.00  0.00     0.166 C 
BRANCH   9  10
HETATM   10  C   UNL     1     -23.747  -1.392 -14.878  1.00  0.00     0.198 C 
BRANCH  10  11
HETATM   11  O   UNL     1     -24.942  -0.700 -14.519  1.00  0.00    -0.398 OA
HETATM   12  H   UNL     1     -25.394  -0.427 -15.337  1.00  0.00     0.209 HD
ENDBRANCH  10  11
ENDBRANCH   9  10
BRANCH   9  13
HETATM   13  O   UNL     1     -22.376  -3.293 -14.202  1.00  0.00    -0.391 OA
HETATM   14  H   UNL     1     -22.359  -3.225 -15.172  1.00  0.00     0.210 HD
ENDBRANCH   9  13
ENDBRANCH   8   9
ENDBRANCH   7   8
ENDBRANCH   1   7
BRANCH   2  15
HETATM   15  O   UNL     1     -25.210  -3.613  -9.647  1.00  0.00    -0.359 OA
HETATM   16  H   UNL     1     -25.660  -3.474 -10.502  1.00  0.00     0.217 HD
ENDBRANCH   2  15
BRANCH   3  17
HETATM   17  C   UNL     1     -23.003  -4.729  -7.712  1.00  0.00     0.177 C 
BRANCH  17  18
HETATM   18  C   UNL     1     -21.672  -4.926  -6.975  1.00  0.00     0.198 C 
BRANCH  18  19
HETATM   19  O   UNL     1     -20.944  -5.993  -7.581  1.00  0.00    -0.398 OA
HETATM   20  H   UNL     1     -20.606  -5.635  -8.427  1.00  0.00     0.209 HD
ENDBRANCH  18  19
ENDBRANCH  17  18
BRANCH  17  21
HETATM   21  O   UNL     1     -23.990  -4.431  -6.707  1.00  0.00    -0.390 OA
HETATM   22  H   UNL     1     -23.789  -4.952  -5.908  1.00  0.00     0.210 HD
ENDBRANCH  17  21
ENDBRANCH   3  17
TORSDOF 11
ENDMDL
MODEL 3
REMARK VINA RESULT:      -6.6      1.337      5.934
REMARK  11 active torsions:
REMARK  status: ('A' for Active; 'I' for Inactive)
REMARK    1  A    between atoms: C_1  and  C_2 
REMARK    2  A    between atoms: C_1  and  O_17 
REMARK    3  A    between atoms: C_2  and  C_3 
REMARK    4  A    between atoms: C_2  and  O_16 
REMARK    5  A    between atoms: C_3  and  O_4 
REMARK    6  A    between atoms: O_4  and  C_5 
REMARK    7  A    between atoms: C_6  and  O_15 
REMARK    8  A    between atoms: C_7  and  C_11 
REMARK    9  A    between atoms: C_11  and  C_12 
REMARK   10  A    between atoms: C_11  and  O_14 
REMARK   11  A    between atoms: C_12  and  O_13 
ROOT
HETATM    1  C   UNL     1     -23.740  -3.830 -11.105  1.00  0.00     0.176 A 
HETATM    2  C   UNL     1     -22.593  -4.365 -10.678  1.00  0.00     0.115 A 
HETATM    3  C   UNL     1     -22.562  -4.539  -9.206  1.00  0.00     0.222 A 
HETATM    4  O   UNL     1     -23.857  -4.082  -8.800  1.00  0.00    -0.301 OA
HETATM    5  C   UNL     1     -24.554  -3.627  -9.882  1.00  0.00     0.320 A 
HETATM    6  O   UNL     1     -25.671  -3.148  -9.823  1.00  0.00    -0.257 OA
ENDROOT
BRANCH   1   7
HETATM    7  O   UNL     1     -24.065  -3.584 -12.417  1.00  0.00    -0.341 OA
BRANCH   7   8
HETATM    8  C   UNL     1     -23.610  -2.308 -12.902  1.00  0.00     0.209 C 
BRANCH   8   9
HETATM    9  C   UNL     1     -23.188  -2.399 -14.375  1.00  0.00     0.166 C 
BRANCH   9  10
HETATM   10  C   UNL     1     -23.631  -1.170 -15.180  1.00  0.00     0.198 C 
BRANCH  10  11
HETATM   11  O   UNL     1     -24.843  -0.616 -14.671  1.00  0.00    -0.398 OA
HETATM   12  H   UNL     1     -25.477  -1.343 -14.536  1.00  0.00     0.209 HD
ENDBRANCH  10  11
ENDBRANCH   9  10
BRANCH   9  13
HETATM   13  O   UNL     1     -23.714  -3.598 -14.956  1.00  0.00    -0.391 OA
HETATM   14  H   UNL     1     -23.744  -3.465 -15.919  1.00  0.00     0.210 HD
ENDBRANCH   9  13
ENDBRANCH   8   9
ENDBRANCH   7   8
ENDBRANCH   1   7
BRANCH   2  15
HETATM   15  O   UNL     1     -21.539  -4.773 -11.450  1.00  0.00    -0.359 OA
HETATM   16  H   UNL     1     -21.421  -4.122 -12.167  1.00  0.00     0.217 HD
ENDBRANCH   2  15
BRANCH   3  17
HETATM   17  C   UNL     1     -21.467  -3.719  -8.493  1.00  0.00     0.177 C 
BRANCH  17  18
HETATM   18  C   UNL     1     -21.373  -4.097  -7.009  1.00  0.00     0.198 C 
BRANCH  18  19
HETATM   19  O   UNL     1     -22.406  -5.027  -6.686  1.00  0.00    -0.398 OA
HETATM   20  H   UNL     1     -22.500  -5.601  -7.473  1.00  0.00     0.209 HD
ENDBRANCH  18  19
ENDBRANCH  17  18
BRANCH  17  21
HETATM   21  O   UNL     1     -20.156  -3.915  -9.052  1.00  0.00    -0.390 OA
HETATM   22  H   UNL     1     -19.712  -4.633  -8.565  1.00  0.00     0.210 HD
ENDBRANCH  17  21
ENDBRANCH   3  17
TORSDOF 11
ENDMDL
MODEL 4
REMARK VINA RESULT:      -6.2     10.950     13.729
REMARK  11 active torsions:
REMARK  status: ('A' for Active; 'I' for Inactive)
REMARK    1  A    between atoms: C_1  and  C_2 
REMARK    2  A    between atoms: C_1  and  O_17 
REMARK    3  A    between atoms: C_2  and  C_3 
REMARK    4  A    between atoms: C_2  and  O_16 
REMARK    5  A    between atoms: C_3  and  O_4 
REMARK    6  A    between atoms: O_4  and  C_5 
REMARK    7  A    between atoms: C_6  and  O_15 
REMARK    8  A    between atoms: C_7  and  C_11 
REMARK    9  A    between atoms: C_11  and  C_12 
REMARK   10  A    between atoms: C_11  and  O_14 
REMARK   11  A    between atoms: C_12  and  O_13 
ROOT
HETATM    1  C   UNL     1     -35.026  -1.435 -12.648  1.00  0.00     0.176 A 
HETATM    2  C   UNL     1     -34.759  -2.738 -12.771  1.00  0.00     0.115 A 
HETATM    3  C   UNL     1     -35.005  -3.488 -11.516  1.00  0.00     0.222 A 
HETATM    4  O   UNL     1     -35.499  -2.479 -10.628  1.00  0.00    -0.301 OA
HETATM    5  C   UNL     1     -35.488  -1.262 -11.249  1.00  0.00     0.320 A 
HETATM    6  O   UNL     1     -35.822  -0.221 -10.716  1.00  0.00    -0.257 OA
ENDROOT
BRANCH   1   7
HETATM    7  O   UNL     1     -34.923  -0.501 -13.651  1.00  0.00    -0.341 OA
BRANCH   7   8
HETATM    8  C   UNL     1     -36.150   0.198 -13.924  1.00  0.00     0.209 C 
BRANCH   8   9
HETATM    9  C   UNL     1     -36.660  -0.120 -15.337  1.00  0.00     0.166 C 
BRANCH   9  10
HETATM   10  C   UNL     1     -35.530  -0.580 -16.269  1.00  0.00     0.198 C 
BRANCH  10  11
HETATM   11  O   UNL     1     -35.282  -1.979 -16.145  1.00  0.00    -0.398 OA
HETATM   12  H   UNL     1     -36.062  -2.458 -16.478  1.00  0.00     0.209 HD
ENDBRANCH  10  11
ENDBRANCH   9  10
BRANCH   9  13
HETATM   13  O   UNL     1     -37.327   1.023 -15.880  1.00  0.00    -0.391 OA
HETATM   14  H   UNL     1     -37.851   1.421 -15.163  1.00  0.00     0.210 HD
ENDBRANCH   9  13
ENDBRANCH   8   9
ENDBRANCH   7   8
ENDBRANCH   1   7
BRANCH   2  15
HETATM   15  O   UNL     1     -34.346  -3.389 -13.901  1.00  0.00    -0.359 OA
HETATM   16  H   UNL     1     -33.420  -3.670 -13.766  1.00  0.00     0.217 HD
ENDBRANCH   2  15
BRANCH   3  17
HETATM   17  C   UNL     1     -33.748  -4.149 -10.914  1.00  0.00     0.177 C 
BRANCH  17  18
HETATM   18  C   UNL     1     -33.838  -5.678 -10.988  1.00  0.00     0.198 C 
BRANCH  18  19
HETATM   19  O   UNL     1     -34.584  -6.057 -12.144  1.00  0.00    -0.398 OA
HETATM   20  H   UNL     1     -34.250  -5.493 -12.870  1.00  0.00     0.209 HD
ENDBRANCH  18  19
ENDBRANCH  17  18
BRANCH  17  21
HETATM   21  O   UNL     1     -32.532  -3.774 -11.586  1.00  0.00    -0.390 OA
HETATM   22  H   UNL     1     -32.125  -3.031 -11.104  1.00  0.00     0.210 HD
ENDBRANCH  17  21
ENDBRANCH   3  17
TORSDOF 11
ENDMDL
MODEL 5
REMARK VINA RESULT:      -6.1      1.573      2.713
REMARK  11 active torsions:
REMARK  status: ('A' for Active; 'I' for Inactive)
REMARK    1  A    between atoms: C_1  and  C_2 
REMARK    2  A    between atoms: C_1  and  O_17 
REMARK    3  A    between atoms: C_2  and  C_3 
REMARK    4  A    between atoms: C_2  and  O_16 
REMARK    5  A    between atoms: C_3  and  O_4 
REMARK    6  A    between atoms: O_4  and  C_5 
REMARK    7  A    between atoms: C_6  and  O_15 
REMARK    8  A    between atoms: C_7  and  C_11 
REMARK    9  A    between atoms: C_11  and  C_12 
REMARK   10  A    between atoms: C_11  and  O_14 
REMARK   11  A    between atoms: C_12  and  O_13 
ROOT
HETATM    1  C   UNL     1     -22.382  -3.765  -9.439  1.00  0.00     0.176 A 
HETATM    2  C   UNL     1     -23.617  -3.607  -9.923  1.00  0.00     0.115 A 
HETATM    3  C   UNL     1     -23.720  -4.001 -11.349  1.00  0.00     0.222 A 
HETATM    4  O   UNL     1     -22.399  -4.462 -11.654  1.00  0.00    -0.301 OA
HETATM    5  C   UNL     1     -21.586  -4.302 -10.569  1.00  0.00     0.320 A 
HETATM    6  O   UNL     1     -20.400  -4.577 -10.558  1.00  0.00    -0.257 OA
ENDROOT
BRANCH   1   7
HETATM    7  O   UNL     1     -21.995  -3.513  -8.144  1.00  0.00    -0.341 OA
BRANCH   7   8
HETATM    8  C   UNL     1     -22.180  -4.628  -7.253  1.00  0.00     0.209 C 
BRANCH   8   9
HETATM    9  C   UNL     1     -20.966  -4.799  -6.329  1.00  0.00     0.166 C 
BRANCH   9  10
HETATM   10  C   UNL     1     -19.725  -5.287  -7.090  1.00  0.00     0.198 C 
BRANCH  10  11
HETATM   11  O   UNL     1     -19.160  -4.253  -7.894  1.00  0.00    -0.398 OA
HETATM   12  H   UNL     1     -19.612  -4.257  -8.757  1.00  0.00     0.209 HD
ENDBRANCH  10  11
ENDBRANCH   9  10
BRANCH   9  13
HETATM   13  O   UNL     1     -21.291  -5.699  -5.265  1.00  0.00    -0.391 OA
HETATM   14  H   UNL     1     -21.135  -6.602  -5.591  1.00  0.00     0.210 HD
ENDBRANCH   9  13
ENDBRANCH   8   9
ENDBRANCH   7   8
ENDBRANCH   1   7
BRANCH   2  15
HETATM   15  O   UNL     1     -24.720  -3.179  -9.237  1.00  0.00    -0.359 OA
HETATM   16  H   UNL     1     -24.431  -2.506  -8.591  1.00  0.00     0.217 HD
ENDBRANCH   2  15
BRANCH   3  17
HETATM   17  C   UNL     1     -24.109  -2.850 -12.299  1.00  0.00     0.177 C 
BRANCH  17  18
HETATM   18  C   UNL     1     -23.270  -2.886 -13.583  1.00  0.00     0.198 C 
BRANCH  18  19
HETATM   19  O   UNL     1     -23.788  -3.881 -14.465  1.00  0.00    -0.398 OA
HETATM   20  H   UNL     1     -23.006  -4.348 -14.823  1.00  0.00     0.209 HD
ENDBRANCH  18  19
ENDBRANCH  17  18
BRANCH  17  21
HETATM   21  O   UNL     1     -25.489  -2.892 -12.707  1.00  0.00    -0.390 OA
HETATM   22  H   UNL     1     -26.050  -2.884 -11.911  1.00  0.00     0.210 HD
ENDBRANCH  17  21
ENDBRANCH   3  17
TORSDOF 11
ENDMDL
MODEL 6
REMARK VINA RESULT:      -6.0     11.434     13.558
REMARK  11 active torsions:
REMARK  status: ('A' for Active; 'I' for Inactive)
REMARK    1  A    between atoms: C_1  and  C_2 
REMARK    2  A    between atoms: C_1  and  O_17 
REMARK    3  A    between atoms: C_2  and  C_3 
REMARK    4  A    between atoms: C_2  and  O_16 
REMARK    5  A    between atoms: C_3  and  O_4 
REMARK    6  A    between atoms: O_4  and  C_5 
REMARK    7  A    between atoms: C_6  and  O_15 
REMARK    8  A    between atoms: C_7  and  C_11 
REMARK    9  A    between atoms: C_11  and  C_12 
REMARK   10  A    between atoms: C_11  and  O_14 
REMARK   11  A    between atoms: C_12  and  O_13 
ROOT
HETATM    1  C   UNL     1     -35.314  -0.842 -11.899  1.00  0.00     0.176 A 
HETATM    2  C   UNL     1     -34.518  -1.786 -11.390  1.00  0.00     0.115 A 
HETATM    3  C   UNL     1     -34.184  -2.839 -12.378  1.00  0.00     0.222 A 
HETATM    4  O   UNL     1     -34.843  -2.388 -13.567  1.00  0.00    -0.301 OA
HETATM    5  C   UNL     1     -35.542  -1.244 -13.309  1.00  0.00     0.320 A 
HETATM    6  O   UNL     1     -36.225  -0.661 -14.130  1.00  0.00    -0.257 OA
ENDROOT
BRANCH   1   7
HETATM    7  O   UNL     1     -35.760   0.272 -11.230  1.00  0.00    -0.341 OA
BRANCH   7   8
HETATM    8  C   UNL     1     -37.113   0.163 -10.753  1.00  0.00     0.209 C 
BRANCH   8   9
HETATM    9  C   UNL     1     -37.165   0.254  -9.222  1.00  0.00     0.166 C 
BRANCH   9  10
HETATM   10  C   UNL     1     -37.709   1.606  -8.741  1.00  0.00     0.198 C 
BRANCH  10  11
HETATM   11  O   UNL     1     -36.938   2.130  -7.661  1.00  0.00    -0.398 OA
HETATM   12  H   UNL     1     -37.440   2.859  -7.254  1.00  0.00     0.209 HD
ENDBRANCH  10  11
ENDBRANCH   9  10
BRANCH   9  13
HETATM   13  O   UNL     1     -35.863   0.013  -8.679  1.00  0.00    -0.391 OA
HETATM   14  H   UNL     1     -35.980  -0.505  -7.864  1.00  0.00     0.210 HD
ENDBRANCH   9  13
ENDBRANCH   8   9
ENDBRANCH   7   8
ENDBRANCH   1   7
BRANCH   2  15
HETATM   15  O   UNL     1     -33.993  -1.824 -10.126  1.00  0.00    -0.359 OA
HETATM   16  H   UNL     1     -34.735  -1.871  -9.493  1.00  0.00     0.217 HD
ENDBRANCH   2  15
BRANCH   3  17
HETATM   17  C   UNL     1     -34.686  -4.247 -11.999  1.00  0.00     0.177 C 
BRANCH  17  18
HETATM   18  C   UNL     1     -33.548  -5.106 -11.431  1.00  0.00     0.198 C 
BRANCH  18  19
HETATM   19  O   UNL     1     -32.335  -4.808 -12.120  1.00  0.00    -0.398 OA
HETATM   20  H   UNL     1     -31.831  -5.647 -12.141  1.00  0.00     0.209 HD
ENDBRANCH  18  19
ENDBRANCH  17  18
BRANCH  17  21
HETATM   21  O   UNL     1     -35.726  -4.231 -11.005  1.00  0.00    -0.390 OA
HETATM   22  H   UNL     1     -35.338  -3.970 -10.151  1.00  0.00     0.210 HD
ENDBRANCH  17  21
ENDBRANCH   3  17
TORSDOF 11
ENDMDL
MODEL 7
REMARK VINA RESULT:      -5.9      1.485      1.712
REMARK  11 active torsions:
REMARK  status: ('A' for Active; 'I' for Inactive)
REMARK    1  A    between atoms: C_1  and  C_2 
REMARK    2  A    between atoms: C_1  and  O_17 
REMARK    3  A    between atoms: C_2  and  C_3 
REMARK    4  A    between atoms: C_2  and  O_16 
REMARK    5  A    between atoms: C_3  and  O_4 
REMARK    6  A    between atoms: O_4  and  C_5 
REMARK    7  A    between atoms: C_6  and  O_15 
REMARK    8  A    between atoms: C_7  and  C_11 
REMARK    9  A    between atoms: C_11  and  C_12 
REMARK   10  A    between atoms: C_11  and  O_14 
REMARK   11  A    between atoms: C_12  and  O_13 
ROOT
HETATM    1  C   UNL     1     -21.350  -4.286  -9.775  1.00  0.00     0.176 A 
HETATM    2  C   UNL     1     -21.186  -3.705 -10.967  1.00  0.00     0.115 A 
HETATM    3  C   UNL     1     -22.390  -2.958 -11.403  1.00  0.00     0.222 A 
HETATM    4  O   UNL     1     -23.290  -3.123 -10.301  1.00  0.00    -0.301 OA
HETATM    5  C   UNL     1     -22.724  -3.924  -9.351  1.00  0.00     0.320 A 
HETATM    6  O   UNL     1     -23.281  -4.260  -8.322  1.00  0.00    -0.257 OA
ENDROOT
BRANCH   1   7
HETATM    7  O   UNL     1     -20.396  -5.014  -9.105  1.00  0.00    -0.341 OA
BRANCH   7   8
HETATM    8  C   UNL     1     -19.642  -4.247  -8.149  1.00  0.00     0.209 C 
BRANCH   8   9
HETATM    9  C   UNL     1     -20.119  -4.531  -6.718  1.00  0.00     0.166 C 
BRANCH   9  10
HETATM   10  C   UNL     1     -20.552  -5.992  -6.532  1.00  0.00     0.198 C 
BRANCH  10  11
HETATM   11  O   UNL     1     -19.538  -6.900  -6.958  1.00  0.00    -0.398 OA
HETATM   12  H   UNL     1     -19.111  -7.273  -6.167  1.00  0.00     0.209 HD
ENDBRANCH  10  11
ENDBRANCH   9  10
BRANCH   9  13
HETATM   13  O   UNL     1     -21.188  -3.641  -6.380  1.00  0.00    -0.391 OA
HETATM   14  H   UNL     1     -21.879  -3.746  -7.057  1.00  0.00     0.210 HD
ENDBRANCH   9  13
ENDBRANCH   8   9
ENDBRANCH   7   8
ENDBRANCH   1   7
BRANCH   2  15
HETATM   15  O   UNL     1     -20.055  -3.715 -11.737  1.00  0.00    -0.359 OA
HETATM   16  H   UNL     1     -19.319  -3.369 -11.197  1.00  0.00     0.217 HD
ENDBRANCH   2  15
BRANCH   3  17
HETATM   17  C   UNL     1     -23.037  -3.497 -12.696  1.00  0.00     0.177 C 
BRANCH  17  18
HETATM   18  C   UNL     1     -24.448  -2.924 -12.888  1.00  0.00     0.198 C 
BRANCH  18  19
HETATM   19  O   UNL     1     -24.393  -1.806 -13.773  1.00  0.00    -0.398 OA
HETATM   20  H   UNL     1     -24.601  -1.024 -13.224  1.00  0.00     0.209 HD
ENDBRANCH  18  19
ENDBRANCH  17  18
BRANCH  17  21
HETATM   21  O   UNL     1     -22.294  -3.168 -13.883  1.00  0.00    -0.390 OA
HETATM   22  H   UNL     1     -22.314  -2.201 -14.007  1.00  0.00     0.210 HD
ENDBRANCH  17  21
ENDBRANCH   3  17
TORSDOF 11
ENDMDL
MODEL 8
REMARK VINA RESULT:      -5.9      1.539      6.492
REMARK  11 active torsions:
REMARK  status: ('A' for Active; 'I' for Inactive)
REMARK    1  A    between atoms: C_1  and  C_2 
REMARK    2  A    between atoms: C_1  and  O_17 
REMARK    3  A    between atoms: C_2  and  C_3 
REMARK    4  A    between atoms: C_2  and  O_16 
REMARK    5  A    between atoms: C_3  and  O_4 
REMARK    6  A    between atoms: O_4  and  C_5 
REMARK    7  A    between atoms: C_6  and  O_15 
REMARK    8  A    between atoms: C_7  and  C_11 
REMARK    9  A    between atoms: C_11  and  C_12 
REMARK   10  A    between atoms: C_11  and  O_14 
REMARK   11  A    between atoms: C_12  and  O_13 
ROOT
HETATM    1  C   UNL     1     -22.502  -4.031  -8.682  1.00  0.00     0.176 A 
HETATM    2  C   UNL     1     -22.782  -4.344  -7.414  1.00  0.00     0.115 A 
HETATM    3  C   UNL     1     -21.579  -4.764  -6.656  1.00  0.00     0.222 A 
HETATM    4  O   UNL     1     -20.526  -4.622  -7.616  1.00  0.00    -0.301 OA
HETATM    5  C   UNL     1     -21.039  -4.231  -8.819  1.00  0.00     0.320 A 
HETATM    6  O   UNL     1     -20.373  -4.068  -9.825  1.00  0.00    -0.257 OA
ENDROOT
BRANCH   1   7
HETATM    7  O   UNL     1     -23.409  -3.578  -9.610  1.00  0.00    -0.341 OA
BRANCH   7   8
HETATM    8  C   UNL     1     -23.719  -4.536 -10.638  1.00  0.00     0.209 C 
BRANCH   8   9
HETATM    9  C   UNL     1     -23.834  -3.853 -12.008  1.00  0.00     0.166 C 
BRANCH   9  10
HETATM   10  C   UNL     1     -22.606  -2.988 -12.328  1.00  0.00     0.198 C 
BRANCH  10  11
HETATM   11  O   UNL     1     -21.471  -3.787 -12.656  1.00  0.00    -0.398 OA
HETATM   12  H   UNL     1     -21.649  -4.238 -13.500  1.00  0.00     0.209 HD
ENDBRANCH  10  11
ENDBRANCH   9  10
BRANCH   9  13
HETATM   13  O   UNL     1     -25.030  -3.069 -12.059  1.00  0.00    -0.391 OA
HETATM   14  H   UNL     1     -25.722  -3.564 -11.588  1.00  0.00     0.210 HD
ENDBRANCH   9  13
ENDBRANCH   8   9
ENDBRANCH   7   8
ENDBRANCH   1   7
BRANCH   2  15
HETATM   15  O   UNL     1     -24.002  -4.269  -6.799  1.00  0.00    -0.359 OA
HETATM   16  H   UNL     1     -23.851  -4.086  -5.852  1.00  0.00     0.217 HD
ENDBRANCH   2  15
BRANCH   3  17
HETATM   17  C   UNL     1     -21.629  -6.217  -6.140  1.00  0.00     0.177 C 
BRANCH  17  18
HETATM   18  C   UNL     1     -20.248  -6.682  -5.663  1.00  0.00     0.198 C 
BRANCH  18  19
HETATM   19  O   UNL     1     -19.446  -7.035  -6.790  1.00  0.00    -0.398 OA
HETATM   20  H   UNL     1     -19.279  -6.197  -7.267  1.00  0.00     0.209 HD
ENDBRANCH  18  19
ENDBRANCH  17  18
BRANCH  17  21
HETATM   21  O   UNL     1     -22.530  -6.396  -5.033  1.00  0.00    -0.390 OA
HETATM   22  H   UNL     1     -22.007  -6.479  -4.215  1.00  0.00     0.210 HD
ENDBRANCH  17  21
ENDBRANCH   3  17
TORSDOF 11
ENDMDL
MODEL 9
REMARK VINA RESULT:      -5.8      1.884      3.064
REMARK  11 active torsions:
REMARK  status: ('A' for Active; 'I' for Inactive)
REMARK    1  A    between atoms: C_1  and  C_2 
REMARK    2  A    between atoms: C_1  and  O_17 
REMARK    3  A    between atoms: C_2  and  C_3 
REMARK    4  A    between atoms: C_2  and  O_16 
REMARK    5  A    between atoms: C_3  and  O_4 
REMARK    6  A    between atoms: O_4  and  C_5 
REMARK    7  A    between atoms: C_6  and  O_15 
REMARK    8  A    between atoms: C_7  and  C_11 
REMARK    9  A    between atoms: C_11  and  C_12 
REMARK   10  A    between atoms: C_11  and  O_14 
REMARK   11  A    between atoms: C_12  and  O_13 
ROOT
HETATM    1  C   UNL     1     -21.494  -4.928  -8.156  1.00  0.00     0.176 A 
HETATM    2  C   UNL     1     -21.240  -4.474  -9.386  1.00  0.00     0.115 A 
HETATM    3  C   UNL     1     -22.345  -3.646  -9.924  1.00  0.00     0.222 A 
HETATM    4  O   UNL     1     -23.284  -3.617  -8.843  1.00  0.00    -0.301 OA
HETATM    5  C   UNL     1     -22.832  -4.388  -7.810  1.00  0.00     0.320 A 
HETATM    6  O   UNL     1     -23.446  -4.572  -6.776  1.00  0.00    -0.257 OA
ENDROOT
BRANCH   1   7
HETATM    7  O   UNL     1     -20.642  -5.692  -7.395  1.00  0.00    -0.341 OA
BRANCH   7   8
HETATM    8  C   UNL     1     -20.315  -5.107  -6.122  1.00  0.00     0.209 C 
BRANCH   8   9
HETATM    9  C   UNL     1     -20.692  -6.051  -4.972  1.00  0.00     0.166 C 
BRANCH   9  10
HETATM   10  C   UNL     1     -20.284  -7.503  -5.258  1.00  0.00     0.198 C 
BRANCH  10  11
HETATM   11  O   UNL     1     -21.262  -8.179  -6.047  1.00  0.00    -0.398 OA
HETATM   12  H   UNL     1     -22.126  -8.084  -5.608  1.00  0.00     0.209 HD
ENDBRANCH  10  11
ENDBRANCH   9  10
BRANCH   9  13
HETATM   13  O   UNL     1     -22.097  -5.964  -4.715  1.00  0.00    -0.391 OA
HETATM   14  H   UNL     1     -22.386  -5.076  -4.983  1.00  0.00     0.210 HD
ENDBRANCH   9  13
ENDBRANCH   8   9
ENDBRANCH   7   8
ENDBRANCH   1   7
BRANCH   2  15
HETATM   15  O   UNL     1     -20.098  -4.670 -10.115  1.00  0.00    -0.359 OA
HETATM   16  H   UNL     1     -19.399  -4.971  -9.504  1.00  0.00     0.217 HD
ENDBRANCH   2  15
BRANCH   3  17
HETATM   17  C   UNL     1     -23.015  -4.223 -11.188  1.00  0.00     0.177 C 
BRANCH  17  18
HETATM   18  C   UNL     1     -24.086  -3.269 -11.731  1.00  0.00     0.198 C 
BRANCH  18  19
HETATM   19  O   UNL     1     -25.170  -3.191 -10.806  1.00  0.00    -0.398 OA
HETATM   20  H   UNL     1     -25.981  -3.155 -11.353  1.00  0.00     0.209 HD
ENDBRANCH  18  19
ENDBRANCH  17  18
BRANCH  17  21
HETATM   21  O   UNL     1     -22.089  -4.459 -12.264  1.00  0.00    -0.390 OA
HETATM   22  H   UNL     1     -22.586  -4.496 -13.101  1.00  0.00     0.210 HD
ENDBRANCH  17  21
ENDBRANCH   3  17
TORSDOF 11
ENDMDL
