MODEL 1
REMARK VINA RESULT:      -6.5      0.000      0.000
REMARK  12 active torsions:
REMARK  status: ('A' for Active; 'I' for Inactive)
REMARK    1  A    between atoms: C_3  and  N_17 
REMARK    2  A    between atoms: C_4  and  N_14 
REMARK    3  A    between atoms: C_6  and  N_7 
REMARK    4  A    between atoms: N_7  and  C_8 
REMARK    5  A    between atoms: N_7  and  C_11 
REMARK    6  A    between atoms: C_8  and  C_9 
REMARK    7  A    between atoms: C_9  and  O_10 
REMARK    8  A    between atoms: C_11  and  C_12 
REMARK    9  A    between atoms: C_12  and  O_13 
REMARK   10  A    between atoms: N_17  and  C_18 
REMARK   11  A    between atoms: C_18  and  C_19 
REMARK   12  A    between atoms: C_19  and  O_20 
ROOT
HETATM    1  C   UNL     1     -20.766  -4.476  -9.842  1.00  0.00     0.025 A 
HETATM    2  C   UNL     1     -21.047  -3.730 -10.997  1.00  0.00     0.028 A 
HETATM    3  C   UNL     1     -22.341  -3.284 -11.301  1.00  0.00     0.041 A 
HETATM    4  C   UNL     1     -23.338  -3.613 -10.350  1.00  0.00     0.125 A 
HETATM    5  C   UNL     1     -23.049  -4.376  -9.186  1.00  0.00     0.061 A 
HETATM    6  C   UNL     1     -21.749  -4.802  -8.904  1.00  0.00     0.013 A 
ENDROOT
BRANCH   6   7
HETATM    7  N   UNL     1     -21.372  -5.494  -7.730  1.00  0.00    -0.279 NA
BRANCH   7   8
HETATM    8  C   UNL     1     -21.914  -5.076  -6.407  1.00  0.00     0.121 C 
BRANCH   8   9
HETATM    9  C   UNL     1     -22.180  -6.247  -5.452  1.00  0.00     0.179 C 
BRANCH   9  10
HETATM   10  O   UNL     1     -21.832  -5.925  -4.107  1.00  0.00    -0.400 OA
HETATM   11  H   UNL     1     -21.232  -6.631  -3.812  1.00  0.00     0.209 HD
ENDBRANCH   9  10
ENDBRANCH   8   9
ENDBRANCH   7   8
BRANCH   7  12
HETATM   12  C   UNL     1     -19.884  -5.703  -7.682  1.00  0.00     0.121 C 
BRANCH  12  13
HETATM   13  C   UNL     1     -19.219  -4.670  -6.765  1.00  0.00     0.179 C 
BRANCH  13  14
HETATM   14  O   UNL     1     -18.025  -4.164  -7.358  1.00  0.00    -0.400 OA
HETATM   15  H   UNL     1     -18.319  -3.382  -7.861  1.00  0.00     0.209 HD
ENDBRANCH  13  14
ENDBRANCH  12  13
ENDBRANCH   7  12
ENDBRANCH   6   7
BRANCH   4  16
HETATM   16  N   UNL     1     -24.735  -3.179 -10.536  1.00  0.00    -0.114 N 
HETATM   17  O   UNL     1     -25.388  -2.835  -9.538  1.00  0.00    -0.532 OA
HETATM   18  O   UNL     1     -25.184  -3.165 -11.692  1.00  0.00    -0.532 OA
ENDBRANCH   4  16
BRANCH   3  19
HETATM   19  N   UNL     1     -22.567  -2.424 -12.394  1.00  0.00    -0.289 NA
HETATM   20  H   UNL     1     -23.331  -1.765 -12.184  1.00  0.00     0.127 HD
BRANCH  19  21
HETATM   21  C   UNL     1     -22.682  -2.975 -13.753  1.00  0.00     0.118 C 
BRANCH  21  22
HETATM   22  C   UNL     1     -23.425  -1.975 -14.653  1.00  0.00     0.178 C 
BRANCH  22  23
HETATM   23  O   UNL     1     -24.587  -1.475 -13.994  1.00  0.00    -0.400 OA
HETATM   24  H   UNL     1     -24.262  -0.850 -13.317  1.00  0.00     0.209 HD
ENDBRANCH  22  23
ENDBRANCH  21  22
ENDBRANCH  19  21
ENDBRANCH   3  19
TORSDOF 12
ENDMDL
MODEL 2
REMARK VINA RESULT:      -5.8      2.393      6.851
REMARK  12 active torsions:
REMARK  status: ('A' for Active; 'I' for Inactive)
REMARK    1  A    between atoms: C_3  and  N_17 
REMARK    2  A    between atoms: C_4  and  N_14 
REMARK    3  A    between atoms: C_6  and  N_7 
REMARK    4  A    between atoms: N_7  and  C_8 
REMARK    5  A    between atoms: N_7  and  C_11 
REMARK    6  A    between atoms: C_8  and  C_9 
REMARK    7  A    between atoms: C_9  and  O_10 
REMARK    8  A    between atoms: C_11  and  C_12 
REMARK    9  A    between atoms: C_12  and  O_13 
REMARK   10  A    between atoms: N_17  and  C_18 
REMARK   11  A    between atoms: C_18  and  C_19 
REMARK   12  A    between atoms: C_19  and  O_20 
ROOT
HETATM    1  C   UNL     1     -20.319  -5.227  -8.243  1.00  0.00     0.025 A 
HETATM    2  C   UNL     1     -19.805  -5.894  -7.120  1.00  0.00     0.028 A 
HETATM    3  C   UNL     1     -20.588  -6.165  -5.989  1.00  0.00     0.041 A 
HETATM    4  C   UNL     1     -21.940  -5.747  -6.070  1.00  0.00     0.125 A 
HETATM    5  C   UNL     1     -22.452  -5.065  -7.207  1.00  0.00     0.061 A 
HETATM    6  C   UNL     1     -21.651  -4.814  -8.323  1.00  0.00     0.013 A 
ENDROOT
BRANCH   6   7
HETATM    7  N   UNL     1     -22.111  -4.214  -9.518  1.00  0.00    -0.279 NA
BRANCH   7   8
HETATM    8  C   UNL     1     -23.432  -4.597 -10.089  1.00  0.00     0.121 C 
BRANCH   8   9
HETATM    9  C   UNL     1     -24.369  -3.406 -10.329  1.00  0.00     0.179 C 
BRANCH   9  10
HETATM   10  O   UNL     1     -24.931  -2.919  -9.112  1.00  0.00    -0.400 OA
HETATM   11  H   UNL     1     -24.759  -1.961  -9.105  1.00  0.00     0.209 HD
ENDBRANCH   9  10
ENDBRANCH   8   9
ENDBRANCH   7   8
BRANCH   7  12
HETATM   12  C   UNL     1     -21.033  -4.204 -10.565  1.00  0.00     0.121 C 
BRANCH  12  13
HETATM   13  C   UNL     1     -21.274  -3.082 -11.583  1.00  0.00     0.179 C 
BRANCH  13  14
HETATM   14  O   UNL     1     -21.619  -3.623 -12.857  1.00  0.00    -0.400 OA
HETATM   15  H   UNL     1     -22.580  -3.472 -12.931  1.00  0.00     0.209 HD
ENDBRANCH  13  14
ENDBRANCH  12  13
ENDBRANCH   7  12
ENDBRANCH   6   7
BRANCH   4  16
HETATM   16  N   UNL     1     -22.877  -5.997  -4.961  1.00  0.00    -0.114 N 
HETATM   17  O   UNL     1     -22.417  -6.179  -3.822  1.00  0.00    -0.532 OA
HETATM   18  O   UNL     1     -24.091  -5.996  -5.221  1.00  0.00    -0.532 OA
ENDBRANCH   4  16
BRANCH   3  19
HETATM   19  N   UNL     1     -20.083  -6.953  -4.936  1.00  0.00    -0.289 NA
HETATM   20  H   UNL     1     -19.346  -6.446  -4.425  1.00  0.00     0.127 HD
BRANCH  19  21
HETATM   21  C   UNL     1     -19.711  -8.355  -5.179  1.00  0.00     0.118 C 
BRANCH  21  22
HETATM   22  C   UNL     1     -20.962  -9.243  -5.090  1.00  0.00     0.178 C 
BRANCH  22  23
HETATM   23  O   UNL     1     -21.667  -8.993  -3.876  1.00  0.00    -0.400 OA
HETATM   24  H   UNL     1     -21.685  -9.844  -3.397  1.00  0.00     0.209 HD
ENDBRANCH  22  23
ENDBRANCH  21  22
ENDBRANCH  19  21
ENDBRANCH   3  19
TORSDOF 12
ENDMDL
MODEL 3
REMARK VINA RESULT:      -5.7      2.401      7.224
REMARK  12 active torsions:
REMARK  status: ('A' for Active; 'I' for Inactive)
REMARK    1  A    between atoms: C_3  and  N_17 
REMARK    2  A    between atoms: C_4  and  N_14 
REMARK    3  A    between atoms: C_6  and  N_7 
REMARK    4  A    between atoms: N_7  and  C_8 
REMARK    5  A    between atoms: N_7  and  C_11 
REMARK    6  A    between atoms: C_8  and  C_9 
REMARK    7  A    between atoms: C_9  and  O_10 
REMARK    8  A    between atoms: C_11  and  C_12 
REMARK    9  A    between atoms: C_12  and  O_13 
REMARK   10  A    between atoms: N_17  and  C_18 
REMARK   11  A    between atoms: C_18  and  C_19 
REMARK   12  A    between atoms: C_19  and  O_20 
ROOT
HETATM    1  C   UNL     1     -20.285  -5.367  -8.246  1.00  0.00     0.025 A 
HETATM    2  C   UNL     1     -19.791  -6.052  -7.126  1.00  0.00     0.028 A 
HETATM    3  C   UNL     1     -20.575  -6.286  -5.987  1.00  0.00     0.041 A 
HETATM    4  C   UNL     1     -21.908  -5.810  -6.058  1.00  0.00     0.125 A 
HETATM    5  C   UNL     1     -22.401  -5.110  -7.193  1.00  0.00     0.061 A 
HETATM    6  C   UNL     1     -21.599  -4.896  -8.316  1.00  0.00     0.013 A 
ENDROOT
BRANCH   6   7
HETATM    7  N   UNL     1     -22.042  -4.280  -9.509  1.00  0.00    -0.279 NA
BRANCH   7   8
HETATM    8  C   UNL     1     -21.071  -3.588 -10.401  1.00  0.00     0.121 C 
BRANCH   8   9
HETATM    9  C   UNL     1     -21.719  -2.931 -11.627  1.00  0.00     0.179 C 
BRANCH   9  10
HETATM   10  O   UNL     1     -21.673  -3.780 -12.771  1.00  0.00    -0.400 OA
HETATM   11  H   UNL     1     -22.463  -4.345 -12.714  1.00  0.00     0.209 HD
ENDBRANCH   9  10
ENDBRANCH   8   9
ENDBRANCH   7   8
BRANCH   7  12
HETATM   12  C   UNL     1     -23.266  -3.443  -9.260  1.00  0.00     0.121 C 
BRANCH  12  13
HETATM   13  C   UNL     1     -24.503  -4.087  -9.896  1.00  0.00     0.179 C 
BRANCH  13  14
HETATM   14  O   UNL     1     -25.652  -3.260  -9.715  1.00  0.00    -0.400 OA
HETATM   15  H   UNL     1     -25.795  -3.254  -8.751  1.00  0.00     0.209 HD
ENDBRANCH  13  14
ENDBRANCH  12  13
ENDBRANCH   7  12
ENDBRANCH   6   7
BRANCH   4  16
HETATM   16  N   UNL     1     -22.847  -6.017  -4.940  1.00  0.00    -0.114 N 
HETATM   17  O   UNL     1     -22.386  -6.159  -3.796  1.00  0.00    -0.532 OA
HETATM   18  O   UNL     1     -24.060  -6.021  -5.200  1.00  0.00    -0.532 OA
ENDBRANCH   4  16
BRANCH   3  19
HETATM   19  N   UNL     1     -20.096  -7.092  -4.936  1.00  0.00    -0.289 NA
HETATM   20  H   UNL     1     -19.164  -6.775  -4.631  1.00  0.00     0.127 HD
BRANCH  19  21
HETATM   21  C   UNL     1     -20.164  -8.558  -5.043  1.00  0.00     0.118 C 
BRANCH  21  22
HETATM   22  C   UNL     1     -18.745  -9.144  -4.981  1.00  0.00     0.178 C 
BRANCH  22  23
HETATM   23  O   UNL     1     -18.216  -9.316  -6.295  1.00  0.00    -0.400 OA
HETATM   24  H   UNL     1     -18.909  -9.779  -6.803  1.00  0.00     0.209 HD
ENDBRANCH  22  23
ENDBRANCH  21  22
ENDBRANCH  19  21
ENDBRANCH   3  19
TORSDOF 12
ENDMDL
MODEL 4
REMARK VINA RESULT:      -5.6      1.961      6.873
REMARK  12 active torsions:
REMARK  status: ('A' for Active; 'I' for Inactive)
REMARK    1  A    between atoms: C_3  and  N_17 
REMARK    2  A    between atoms: C_4  and  N_14 
REMARK    3  A    between atoms: C_6  and  N_7 
REMARK    4  A    between atoms: N_7  and  C_8 
REMARK    5  A    between atoms: N_7  and  C_11 
REMARK    6  A    between atoms: C_8  and  C_9 
REMARK    7  A    between atoms: C_9  and  O_10 
REMARK    8  A    between atoms: C_11  and  C_12 
REMARK    9  A    between atoms: C_12  and  O_13 
REMARK   10  A    between atoms: N_17  and  C_18 
REMARK   11  A    between atoms: C_18  and  C_19 
REMARK   12  A    between atoms: C_19  and  O_20 
ROOT
HETATM    1  C   UNL     1     -23.464  -4.186  -8.351  1.00  0.00     0.025 A 
HETATM    2  C   UNL     1     -23.259  -4.684  -7.055  1.00  0.00     0.028 A 
HETATM    3  C   UNL     1     -22.010  -5.155  -6.625  1.00  0.00     0.041 A 
HETATM    4  C   UNL     1     -20.964  -5.066  -7.578  1.00  0.00     0.125 A 
HETATM    5  C   UNL     1     -21.180  -4.568  -8.891  1.00  0.00     0.061 A 
HETATM    6  C   UNL     1     -22.434  -4.099  -9.291  1.00  0.00     0.013 A 
ENDROOT
BRANCH   6   7
HETATM    7  N   UNL     1     -22.705  -3.518 -10.551  1.00  0.00    -0.279 NA
BRANCH   7   8
HETATM    8  C   UNL     1     -24.105  -3.195 -10.942  1.00  0.00     0.121 C 
BRANCH   8   9
HETATM    9  C   UNL     1     -24.390  -3.396 -12.436  1.00  0.00     0.179 C 
BRANCH   9  10
HETATM   10  O   UNL     1     -24.538  -2.154 -13.120  1.00  0.00    -0.400 OA
HETATM   11  H   UNL     1     -25.097  -1.601 -12.548  1.00  0.00     0.209 HD
ENDBRANCH   9  10
ENDBRANCH   8   9
ENDBRANCH   7   8
BRANCH   7  12
HETATM   12  C   UNL     1     -21.972  -4.240 -11.647  1.00  0.00     0.121 C 
BRANCH  12  13
HETATM   13  C   UNL     1     -20.480  -3.886 -11.627  1.00  0.00     0.179 C 
BRANCH  13  14
HETATM   14  O   UNL     1     -20.298  -2.476 -11.516  1.00  0.00    -0.400 OA
HETATM   15  H   UNL     1     -20.771  -2.110 -12.286  1.00  0.00     0.209 HD
ENDBRANCH  13  14
ENDBRANCH  12  13
ENDBRANCH   7  12
ENDBRANCH   6   7
BRANCH   4  16
HETATM   16  N   UNL     1     -19.596  -5.500  -7.243  1.00  0.00    -0.114 N 
HETATM   17  O   UNL     1     -19.395  -6.703  -7.008  1.00  0.00    -0.532 OA
HETATM   18  O   UNL     1     -18.705  -4.637  -7.230  1.00  0.00    -0.532 OA
ENDBRANCH   4  16
BRANCH   3  19
HETATM   19  N   UNL     1     -21.803  -5.521  -5.280  1.00  0.00    -0.289 NA
HETATM   20  H   UNL     1     -20.798  -5.496  -5.048  1.00  0.00     0.127 HD
BRANCH  19  21
HETATM   21  C   UNL     1     -22.457  -6.720  -4.735  1.00  0.00     0.118 C 
BRANCH  21  22
HETATM   22  C   UNL     1     -21.422  -7.845  -4.578  1.00  0.00     0.178 C 
BRANCH  22  23
HETATM   23  O   UNL     1     -21.209  -8.507  -5.824  1.00  0.00    -0.400 OA
HETATM   24  H   UNL     1     -20.251  -8.442  -6.000  1.00  0.00     0.209 HD
ENDBRANCH  22  23
ENDBRANCH  21  22
ENDBRANCH  19  21
ENDBRANCH   3  19
TORSDOF 12
ENDMDL
MODEL 5
REMARK VINA RESULT:      -5.5      5.491      8.814
REMARK  12 active torsions:
REMARK  status: ('A' for Active; 'I' for Inactive)
REMARK    1  A    between atoms: C_3  and  N_17 
REMARK    2  A    between atoms: C_4  and  N_14 
REMARK    3  A    between atoms: C_6  and  N_7 
REMARK    4  A    between atoms: N_7  and  C_8 
REMARK    5  A    between atoms: N_7  and  C_11 
REMARK    6  A    between atoms: C_8  and  C_9 
REMARK    7  A    between atoms: C_9  and  O_10 
REMARK    8  A    between atoms: C_11  and  C_12 
REMARK    9  A    between atoms: C_12  and  O_13 
REMARK   10  A    between atoms: N_17  and  C_18 
REMARK   11  A    between atoms: C_18  and  C_19 
REMARK   12  A    between atoms: C_19  and  O_20 
ROOT
HETATM    1  C   UNL     1     -22.266  -6.887  -1.277  1.00  0.00     0.025 A 
HETATM    2  C   UNL     1     -22.121  -6.057  -2.399  1.00  0.00     0.028 A 
HETATM    3  C   UNL     1     -21.552  -6.513  -3.597  1.00  0.00     0.041 A 
HETATM    4  C   UNL     1     -21.164  -7.876  -3.606  1.00  0.00     0.125 A 
HETATM    5  C   UNL     1     -21.307  -8.710  -2.464  1.00  0.00     0.061 A 
HETATM    6  C   UNL     1     -21.882  -8.231  -1.285  1.00  0.00     0.013 A 
ENDROOT
BRANCH   6   7
HETATM    7  N   UNL     1     -22.129  -9.021  -0.139  1.00  0.00    -0.279 NA
BRANCH   7   8
HETATM    8  C   UNL     1     -23.463  -9.650   0.064  1.00  0.00     0.121 C 
BRANCH   8   9
HETATM    9  C   UNL     1     -23.600 -11.031  -0.590  1.00  0.00     0.179 C 
BRANCH   9  10
HETATM   10  O   UNL     1     -22.372 -11.756  -0.562  1.00  0.00    -0.400 OA
HETATM   11  H   UNL     1     -22.320 -12.222  -1.415  1.00  0.00     0.209 HD
ENDBRANCH   9  10
ENDBRANCH   8   9
ENDBRANCH   7   8
BRANCH   7  12
HETATM   12  C   UNL     1     -21.642  -8.331   1.105  1.00  0.00     0.121 C 
BRANCH  12  13
HETATM   13  C   UNL     1     -20.549  -9.158   1.792  1.00  0.00     0.179 C 
BRANCH  13  14
HETATM   14  O   UNL     1     -20.449 -10.452   1.201  1.00  0.00    -0.400 OA
HETATM   15  H   UNL     1     -21.366 -10.783   1.188  1.00  0.00     0.209 HD
ENDBRANCH  13  14
ENDBRANCH  12  13
ENDBRANCH   7  12
ENDBRANCH   6   7
BRANCH   4  16
HETATM   16  N   UNL     1     -20.580  -8.488  -4.814  1.00  0.00    -0.114 N 
HETATM   17  O   UNL     1     -21.257  -8.515  -5.854  1.00  0.00    -0.532 OA
HETATM   18  O   UNL     1     -19.425  -8.934  -4.732  1.00  0.00    -0.532 OA
ENDBRANCH   4  16
BRANCH   3  19
HETATM   19  N   UNL     1     -21.544  -5.697  -4.746  1.00  0.00    -0.289 NA
HETATM   20  H   UNL     1     -22.033  -6.163  -5.524  1.00  0.00     0.127 HD
BRANCH  19  21
HETATM   21  C   UNL     1     -20.292  -5.065  -5.190  1.00  0.00     0.118 C 
BRANCH  21  22
HETATM   22  C   UNL     1     -20.242  -5.047  -6.725  1.00  0.00     0.178 C 
BRANCH  22  23
HETATM   23  O   UNL     1     -19.834  -6.319  -7.228  1.00  0.00    -0.400 OA
HETATM   24  H   UNL     1     -19.618  -6.177  -8.170  1.00  0.00     0.209 HD
ENDBRANCH  22  23
ENDBRANCH  21  22
ENDBRANCH  19  21
ENDBRANCH   3  19
TORSDOF 12
ENDMDL
MODEL 6
REMARK VINA RESULT:      -5.5      2.576      5.010
REMARK  12 active torsions:
REMARK  status: ('A' for Active; 'I' for Inactive)
REMARK    1  A    between atoms: C_3  and  N_17 
REMARK    2  A    between atoms: C_4  and  N_14 
REMARK    3  A    between atoms: C_6  and  N_7 
REMARK    4  A    between atoms: N_7  and  C_8 
REMARK    5  A    between atoms: N_7  and  C_11 
REMARK    6  A    between atoms: C_8  and  C_9 
REMARK    7  A    between atoms: C_9  and  O_10 
REMARK    8  A    between atoms: C_11  and  C_12 
REMARK    9  A    between atoms: C_12  and  O_13 
REMARK   10  A    between atoms: N_17  and  C_18 
REMARK   11  A    between atoms: C_18  and  C_19 
REMARK   12  A    between atoms: C_19  and  O_20 
ROOT
HETATM    1  C   UNL     1     -22.456  -6.105  -5.505  1.00  0.00     0.025 A 
HETATM    2  C   UNL     1     -22.933  -5.164  -6.431  1.00  0.00     0.028 A 
HETATM    3  C   UNL     1     -22.102  -4.585  -7.401  1.00  0.00     0.041 A 
HETATM    4  C   UNL     1     -20.759  -5.037  -7.402  1.00  0.00     0.125 A 
HETATM    5  C   UNL     1     -20.281  -5.985  -6.457  1.00  0.00     0.061 A 
HETATM    6  C   UNL     1     -21.132  -6.551  -5.505  1.00  0.00     0.013 A 
ENDROOT
BRANCH   6   7
HETATM    7  N   UNL     1     -20.748  -7.555  -4.587  1.00  0.00    -0.279 NA
BRANCH   7   8
HETATM    8  C   UNL     1     -20.341  -8.902  -5.076  1.00  0.00     0.121 C 
BRANCH   8   9
HETATM    9  C   UNL     1     -18.829  -9.155  -5.003  1.00  0.00     0.179 C 
BRANCH   9  10
HETATM   10  O   UNL     1     -18.245  -9.263  -6.298  1.00  0.00    -0.400 OA
HETATM   11  H   UNL     1     -17.493  -8.646  -6.303  1.00  0.00     0.209 HD
ENDBRANCH   9  10
ENDBRANCH   8   9
ENDBRANCH   7   8
BRANCH   7  12
HETATM   12  C   UNL     1     -21.725  -7.647  -3.449  1.00  0.00     0.121 C 
BRANCH  12  13
HETATM   13  C   UNL     1     -21.321  -6.706  -2.308  1.00  0.00     0.179 C 
BRANCH  13  14
HETATM   14  O   UNL     1     -22.374  -5.791  -2.012  1.00  0.00    -0.400 OA
HETATM   15  H   UNL     1     -22.735  -6.105  -1.163  1.00  0.00     0.209 HD
ENDBRANCH  13  14
ENDBRANCH  12  13
ENDBRANCH   7  12
ENDBRANCH   6   7
BRANCH   4  16
HETATM   16  N   UNL     1     -19.790  -4.529  -8.390  1.00  0.00    -0.114 N 
HETATM   17  O   UNL     1     -20.051  -4.653  -9.598  1.00  0.00    -0.532 OA
HETATM   18  O   UNL     1     -18.761  -3.985  -7.960  1.00  0.00    -0.532 OA
ENDBRANCH   4  16
BRANCH   3  19
HETATM   19  N   UNL     1     -22.638  -3.748  -8.400  1.00  0.00    -0.289 NA
HETATM   20  H   UNL     1     -22.991  -2.871  -7.987  1.00  0.00     0.127 HD
BRANCH  19  21
HETATM   21  C   UNL     1     -23.572  -4.295  -9.396  1.00  0.00     0.118 C 
BRANCH  21  22
HETATM   22  C   UNL     1     -24.724  -3.304  -9.620  1.00  0.00     0.178 C 
BRANCH  22  23
HETATM   23  O   UNL     1     -25.002  -3.166 -11.013  1.00  0.00    -0.400 OA
HETATM   24  H   UNL     1     -24.190  -2.802 -11.413  1.00  0.00     0.209 HD
ENDBRANCH  22  23
ENDBRANCH  21  22
ENDBRANCH  19  21
ENDBRANCH   3  19
TORSDOF 12
ENDMDL
MODEL 7
REMARK VINA RESULT:      -5.3      5.317      8.463
REMARK  12 active torsions:
REMARK  status: ('A' for Active; 'I' for Inactive)
REMARK    1  A    between atoms: C_3  and  N_17 
REMARK    2  A    between atoms: C_4  and  N_14 
REMARK    3  A    between atoms: C_6  and  N_7 
REMARK    4  A    between atoms: N_7  and  C_8 
REMARK    5  A    between atoms: N_7  and  C_11 
REMARK    6  A    between atoms: C_8  and  C_9 
REMARK    7  A    between atoms: C_9  and  O_10 
REMARK    8  A    between atoms: C_11  and  C_12 
REMARK    9  A    between atoms: C_12  and  O_13 
REMARK   10  A    between atoms: N_17  and  C_18 
REMARK   11  A    between atoms: C_18  and  C_19 
REMARK   12  A    between atoms: C_19  and  O_20 
ROOT
HETATM    1  C   UNL     1     -21.848  -6.917  -1.926  1.00  0.00     0.025 A 
HETATM    2  C   UNL     1     -21.689  -6.124  -3.073  1.00  0.00     0.028 A 
HETATM    3  C   UNL     1     -21.186  -6.642  -4.275  1.00  0.00     0.041 A 
HETATM    4  C   UNL     1     -20.880  -8.025  -4.262  1.00  0.00     0.125 A 
HETATM    5  C   UNL     1     -21.037  -8.822  -3.095  1.00  0.00     0.061 A 
HETATM    6  C   UNL     1     -21.546  -8.282  -1.912  1.00  0.00     0.013 A 
ENDROOT
BRANCH   6   7
HETATM    7  N   UNL     1     -21.803  -9.028  -0.739  1.00  0.00    -0.279 NA
BRANCH   7   8
HETATM    8  C   UNL     1     -21.333  -8.531   0.584  1.00  0.00     0.121 C 
BRANCH   8   9
HETATM    9  C   UNL     1     -22.446  -7.920   1.445  1.00  0.00     0.179 C 
BRANCH   9  10
HETATM   10  O   UNL     1     -23.722  -8.028   0.819  1.00  0.00    -0.400 OA
HETATM   11  H   UNL     1     -24.331  -7.501   1.365  1.00  0.00     0.209 HD
ENDBRANCH   9  10
ENDBRANCH   8   9
ENDBRANCH   7   8
BRANCH   7  12
HETATM   12  C   UNL     1     -21.470 -10.480  -0.940  1.00  0.00     0.121 C 
BRANCH  12  13
HETATM   13  C   UNL     1     -22.552 -11.375  -0.325  1.00  0.00     0.179 C 
BRANCH  13  14
HETATM   14  O   UNL     1     -23.833 -10.753  -0.414  1.00  0.00    -0.400 OA
HETATM   15  H   UNL     1     -23.985 -10.649  -1.371  1.00  0.00     0.209 HD
ENDBRANCH  13  14
ENDBRANCH  12  13
ENDBRANCH   7  12
ENDBRANCH   6   7
BRANCH   4  16
HETATM   16  N   UNL     1     -20.372  -8.700  -5.470  1.00  0.00    -0.114 N 
HETATM   17  O   UNL     1     -19.307  -8.302  -5.970  1.00  0.00    -0.532 OA
HETATM   18  O   UNL     1     -21.031  -9.651  -5.919  1.00  0.00    -0.532 OA
ENDBRANCH   4  16
BRANCH   3  19
HETATM   19  N   UNL     1     -21.165  -5.855  -5.444  1.00  0.00    -0.289 NA
HETATM   20  H   UNL     1     -21.250  -6.450  -6.282  1.00  0.00     0.127 HD
BRANCH  19  21
HETATM   21  C   UNL     1     -20.137  -4.818  -5.614  1.00  0.00     0.118 C 
BRANCH  21  22
HETATM   22  C   UNL     1     -19.626  -4.832  -7.064  1.00  0.00     0.178 C 
BRANCH  22  23
HETATM   23  O   UNL     1     -19.948  -6.070  -7.695  1.00  0.00    -0.400 OA
HETATM   24  H   UNL     1     -19.097  -6.448  -7.991  1.00  0.00     0.209 HD
ENDBRANCH  22  23
ENDBRANCH  21  22
ENDBRANCH  19  21
ENDBRANCH   3  19
TORSDOF 12
ENDMDL
MODEL 8
REMARK VINA RESULT:      -5.2      1.959      7.194
REMARK  12 active torsions:
REMARK  status: ('A' for Active; 'I' for Inactive)
REMARK    1  A    between atoms: C_3  and  N_17 
REMARK    2  A    between atoms: C_4  and  N_14 
REMARK    3  A    between atoms: C_6  and  N_7 
REMARK    4  A    between atoms: N_7  and  C_8 
REMARK    5  A    between atoms: N_7  and  C_11 
REMARK    6  A    between atoms: C_8  and  C_9 
REMARK    7  A    between atoms: C_9  and  O_10 
REMARK    8  A    between atoms: C_11  and  C_12 
REMARK    9  A    between atoms: C_12  and  O_13 
REMARK   10  A    between atoms: N_17  and  C_18 
REMARK   11  A    between atoms: C_18  and  C_19 
REMARK   12  A    between atoms: C_19  and  O_20 
ROOT
HETATM    1  C   UNL     1     -23.482  -4.475  -8.443  1.00  0.00     0.025 A 
HETATM    2  C   UNL     1     -23.242  -4.679  -7.076  1.00  0.00     0.028 A 
HETATM    3  C   UNL     1     -21.998  -5.107  -6.591  1.00  0.00     0.041 A 
HETATM    4  C   UNL     1     -20.993  -5.290  -7.573  1.00  0.00     0.125 A 
HETATM    5  C   UNL     1     -21.244  -5.089  -8.958  1.00  0.00     0.061 A 
HETATM    6  C   UNL     1     -22.491  -4.656  -9.412  1.00  0.00     0.013 A 
ENDROOT
BRANCH   6   7
HETATM    7  N   UNL     1     -22.791  -4.359 -10.761  1.00  0.00    -0.279 NA
BRANCH   7   8
HETATM    8  C   UNL     1     -21.712  -4.364 -11.788  1.00  0.00     0.121 C 
BRANCH   8   9
HETATM    9  C   UNL     1     -20.371  -3.822 -11.276  1.00  0.00     0.179 C 
BRANCH   9  10
HETATM   10  O   UNL     1     -20.282  -2.406 -11.414  1.00  0.00    -0.400 OA
HETATM   11  H   UNL     1     -20.889  -2.172 -12.137  1.00  0.00     0.209 HD
ENDBRANCH   9  10
ENDBRANCH   8   9
ENDBRANCH   7   8
BRANCH   7  12
HETATM   12  C   UNL     1     -23.653  -3.131 -10.864  1.00  0.00     0.121 C 
BRANCH  12  13
HETATM   13  C   UNL     1     -24.363  -3.079 -12.222  1.00  0.00     0.179 C 
BRANCH  13  14
HETATM   14  O   UNL     1     -23.831  -2.031 -13.030  1.00  0.00    -0.400 OA
HETATM   15  H   UNL     1     -23.634  -2.461 -13.883  1.00  0.00     0.209 HD
ENDBRANCH  13  14
ENDBRANCH  12  13
ENDBRANCH   7  12
ENDBRANCH   6   7
BRANCH   4  16
HETATM   16  N   UNL     1     -19.631  -5.711  -7.194  1.00  0.00    -0.114 N 
HETATM   17  O   UNL     1     -19.448  -6.889  -6.846  1.00  0.00    -0.532 OA
HETATM   18  O   UNL     1     -18.728  -4.863  -7.259  1.00  0.00    -0.532 OA
ENDBRANCH   4  16
BRANCH   3  19
HETATM   19  N   UNL     1     -21.748  -5.173  -5.206  1.00  0.00    -0.289 NA
HETATM   20  H   UNL     1     -20.825  -4.771  -4.985  1.00  0.00     0.127 HD
BRANCH  19  21
HETATM   21  C   UNL     1     -21.986  -6.426  -4.474  1.00  0.00     0.118 C 
BRANCH  21  22
HETATM   22  C   UNL     1     -21.514  -6.269  -3.020  1.00  0.00     0.178 C 
BRANCH  22  23
HETATM   23  O   UNL     1     -22.585  -5.823  -2.191  1.00  0.00    -0.400 OA
HETATM   24  H   UNL     1     -22.838  -4.943  -2.531  1.00  0.00     0.209 HD
ENDBRANCH  22  23
ENDBRANCH  21  22
ENDBRANCH  19  21
ENDBRANCH   3  19
TORSDOF 12
ENDMDL
MODEL 9
REMARK VINA RESULT:      -5.2      4.198      9.060
REMARK  12 active torsions:
REMARK  status: ('A' for Active; 'I' for Inactive)
REMARK    1  A    between atoms: C_3  and  N_17 
REMARK    2  A    between atoms: C_4  and  N_14 
REMARK    3  A    between atoms: C_6  and  N_7 
REMARK    4  A    between atoms: N_7  and  C_8 
REMARK    5  A    between atoms: N_7  and  C_11 
REMARK    6  A    between atoms: C_8  and  C_9 
REMARK    7  A    between atoms: C_9  and  O_10 
REMARK    8  A    between atoms: C_11  and  C_12 
REMARK    9  A    between atoms: C_12  and  O_13 
REMARK   10  A    between atoms: N_17  and  C_18 
REMARK   11  A    between atoms: C_18  and  C_19 
REMARK   12  A    between atoms: C_19  and  O_20 
ROOT
HETATM    1  C   UNL     1     -21.073  -7.766  -5.426  1.00  0.00     0.025 A 
HETATM    2  C   UNL     1     -21.086  -8.929  -4.639  1.00  0.00     0.028 A 
HETATM    3  C   UNL     1     -21.283  -8.889  -3.252  1.00  0.00     0.041 A 
HETATM    4  C   UNL     1     -21.498  -7.600  -2.704  1.00  0.00     0.125 A 
HETATM    5  C   UNL     1     -21.477  -6.426  -3.504  1.00  0.00     0.061 A 
HETATM    6  C   UNL     1     -21.284  -6.495  -4.886  1.00  0.00     0.013 A 
ENDROOT
BRANCH   6   7
HETATM    7  N   UNL     1     -21.329  -5.381  -5.755  1.00  0.00    -0.279 NA
BRANCH   7   8
HETATM    8  C   UNL     1     -21.965  -5.502  -7.096  1.00  0.00     0.121 C 
BRANCH   8   9
HETATM    9  C   UNL     1     -22.996  -4.404  -7.390  1.00  0.00     0.179 C 
BRANCH   9  10
HETATM   10  O   UNL     1     -22.403  -3.273  -8.023  1.00  0.00    -0.400 OA
HETATM   11  H   UNL     1     -22.028  -3.602  -8.858  1.00  0.00     0.209 HD
ENDBRANCH   9  10
ENDBRANCH   8   9
ENDBRANCH   7   8
BRANCH   7  12
HETATM   12  C   UNL     1     -19.989  -4.704  -5.833  1.00  0.00     0.121 C 
BRANCH  12  13
HETATM   13  C   UNL     1     -19.338  -4.942  -7.200  1.00  0.00     0.179 C 
BRANCH  13  14
HETATM   14  O   UNL     1     -19.387  -3.759  -7.995  1.00  0.00    -0.400 OA
HETATM   15  H   UNL     1     -20.306  -3.723  -8.319  1.00  0.00     0.209 HD
ENDBRANCH  13  14
ENDBRANCH  12  13
ENDBRANCH   7  12
ENDBRANCH   6   7
BRANCH   4  16
HETATM   16  N   UNL     1     -21.747  -7.422  -1.261  1.00  0.00    -0.114 N 
HETATM   17  O   UNL     1     -20.995  -7.991  -0.454  1.00  0.00    -0.532 OA
HETATM   18  O   UNL     1     -22.694  -6.694  -0.926  1.00  0.00    -0.532 OA
ENDBRANCH   4  16
BRANCH   3  19
HETATM   19  N   UNL     1     -21.426 -10.079  -2.511  1.00  0.00    -0.289 NA
HETATM   20  H   UNL     1     -20.617 -10.699  -2.661  1.00  0.00     0.127 HD
BRANCH  19  21
HETATM   21  C   UNL     1     -22.695 -10.822  -2.549  1.00  0.00     0.118 C 
BRANCH  21  22
HETATM   22  C   UNL     1     -23.126 -11.178  -1.118  1.00  0.00     0.178 C 
BRANCH  22  23
HETATM   23  O   UNL     1     -22.240 -10.591  -0.167  1.00  0.00    -0.400 OA
HETATM   24  H   UNL     1     -22.500 -10.954   0.701  1.00  0.00     0.209 HD
ENDBRANCH  22  23
ENDBRANCH  21  22
ENDBRANCH  19  21
ENDBRANCH   3  19
TORSDOF 12
ENDMDL
