MODEL 1
REMARK VINA RESULT:      -7.8      0.000      0.000
REMARK  19 active torsions:
REMARK  status: ('A' for Active; 'I' for Inactive)
REMARK    1  A    between atoms: C_4  and  C_6 
REMARK    2  A    between atoms: C_6  and  C_7 
REMARK    3  A    between atoms: C_7  and  C_8 
REMARK    4  A    between atoms: C_8  and  C_9 
REMARK    5  A    between atoms: C_9  and  C_10 
REMARK       I    between atoms: C_10  and  N_12 
REMARK    6  A    between atoms: N_12  and  C_13 
REMARK    7  A    between atoms: C_13  and  C_14 
REMARK       I    between atoms: C_14  and  N_23 
REMARK    8  A    between atoms: N_23  and  CA_24 
REMARK    9  A    between atoms: CA_24  and  CB_25 
REMARK   10  A    between atoms: CA_24  and  C_32 
REMARK   11  A    between atoms: CB_25  and  CG_26 
REMARK       I    between atoms: C_32  and  N_36 
REMARK   12  A    between atoms: N_36  and  CA_37 
REMARK   13  A    between atoms: CA_37  and  CB_38 
REMARK   14  A    between atoms: CA_37  and  C_43 
REMARK   15  A    between atoms: CB_38  and  CG_39 
REMARK   16  A    between atoms: CG_39  and  CD_40 
REMARK   17  A    between atoms: CD_40  and  CE_41 
REMARK   18  A    between atoms: CE_41  and  NZ_42 
REMARK   19  A    between atoms: C_43  and  OXT_45 
ROOT
ATOM      1  CA  HIS A   1     -18.640 -10.419  -3.089  1.00  0.00     0.182 C 
ENDROOT
BRANCH   1   2
ATOM      2  N   HIS A   1     -19.667  -9.523  -3.678  1.00  0.00    -0.346 N 
HETATM    3  C   UNK A   0     -19.863  -9.351  -5.034  1.00  0.00     0.236 C 
HETATM    4  O   UNK A   0     -19.181  -9.917  -5.889  1.00  0.00    -0.272 OA
ATOM      5  H   HIS A   1     -20.275  -9.056  -3.010  1.00  0.00     0.163 HD
BRANCH   3   6
HETATM    6  C   UNK A   0     -20.980  -8.375  -5.433  1.00  0.00     0.225 C 
BRANCH   6   7
HETATM    7  N   UNK A   0     -20.414  -7.090  -5.843  1.00  0.00    -0.352 N 
HETATM    8  C   UNK A   0     -20.937  -5.907  -5.381  1.00  0.00     0.217 C 
HETATM    9  O   UNK A   0     -21.823  -5.861  -4.538  1.00  0.00    -0.274 OA
HETATM   10  H   UNK A   0     -19.810  -7.095  -6.655  1.00  0.00     0.162 HD
BRANCH   8  11
HETATM   11  C   UNK A   0     -20.308  -4.645  -5.956  1.00  0.00     0.103 C 
BRANCH  11  12
HETATM   12  C   UNK A   0     -19.421  -4.928  -7.168  1.00  0.00     0.009 C 
BRANCH  12  13
HETATM   13  C   UNK A   0     -19.851  -4.111  -8.387  1.00  0.00     0.002 C 
BRANCH  13  14
HETATM   14  C   UNK A   0     -21.171  -4.635  -8.978  1.00  0.00     0.017 C 
BRANCH  14  15
HETATM   15  C   UNK A   0     -21.824  -3.639  -9.951  1.00  0.00     0.072 C 
HETATM   16  C   UNK A   0     -21.903  -4.162 -11.398  1.00  0.00     0.123 C 
HETATM   17  C   UNK A   0     -23.171  -5.035 -11.589  1.00  0.00     0.119 C 
HETATM   18  N   UNK A   0     -22.106  -3.078 -12.351  1.00  0.00    -0.335 N 
HETATM   19  C   UNK A   0     -24.118  -4.849 -10.389  1.00  0.00     0.101 C 
HETATM   20  N   UNK A   0     -23.763  -4.504 -12.804  1.00  0.00    -0.336 N 
HETATM   21  S   UNK A   0     -23.571  -3.361  -9.517  1.00  0.00    -0.160 SA
HETATM   22  C   UNK A   0     -23.335  -3.201 -12.966  1.00  0.00     0.316 C 
HETATM   23  H   UNK A   0     -24.726  -4.679 -13.061  1.00  0.00     0.164 HD
HETATM   24  O   UNK A   0     -23.987  -2.297 -13.458  1.00  0.00    -0.247 OA
HETATM   25  H   UNK A   0     -21.711  -2.151 -12.261  1.00  0.00     0.164 HD
ENDBRANCH  14  15
ENDBRANCH  13  14
ENDBRANCH  12  13
ENDBRANCH  11  12
ENDBRANCH   8  11
ENDBRANCH   6   7
ENDBRANCH   3   6
ENDBRANCH   1   2
BRANCH   1  26
ATOM     26  CB  HIS A   1     -17.259  -9.739  -2.964  1.00  0.00     0.093 C 
BRANCH  26  27
ATOM     27  CG  HIS A   1     -16.188 -10.516  -3.644  1.00  0.00     0.028 A 
ATOM     28  CD2 HIS A   1     -15.816 -10.604  -4.968  1.00  0.00     0.114 A 
ATOM     29  NE2 HIS A   1     -14.829 -11.535  -5.135  1.00  0.00    -0.360 N 
ATOM     30  CE1 HIS A   1     -14.579 -11.997  -3.933  1.00  0.00     0.180 A 
ATOM     31  HE2 HIS A   1     -14.381 -11.811  -6.009  1.00  0.00     0.166 HD
ATOM     32  ND1 HIS A   1     -15.351 -11.386  -2.988  1.00  0.00    -0.354 N 
ATOM     33  HD1 HIS A   1     -15.338 -11.572  -1.995  1.00  0.00     0.166 HD
ENDBRANCH  26  27
ENDBRANCH   1  26
BRANCH   1  34
ATOM     34  C   HIS A   1     -19.143 -10.970  -1.706  1.00  0.00     0.241 C 
ATOM     35  O   HIS A   1     -18.423 -11.683  -1.003  1.00  0.00    -0.271 OA
ATOM     36  N   LYS A   2     -20.406 -10.581  -1.296  1.00  0.00    -0.345 N 
ATOM     37  H   LYS A   2     -20.976  -9.989  -1.891  1.00  0.00     0.163 HD
BRANCH  36  38
ATOM     38  CA  LYS A   2     -21.066 -11.042  -0.046  1.00  0.00     0.182 C 
BRANCH  38  39
ATOM     39  CB  LYS A   2     -20.909  -9.991   1.063  1.00  0.00     0.036 C 
BRANCH  39  40
ATOM     40  CG  LYS A   2     -20.912  -8.560   0.510  1.00  0.00     0.004 C 
BRANCH  40  41
ATOM     41  CD  LYS A   2     -22.309  -7.943   0.473  1.00  0.00     0.030 C 
BRANCH  41  42
ATOM     42  CE  LYS A   2     -22.421  -6.995  -0.721  1.00  0.00     0.267 C 
BRANCH  42  43
ATOM     43  NZ  LYS A   2     -22.053  -7.673  -1.955  1.00  0.00     0.078 N 
ATOM     44  HZ1 LYS A   2     -22.697  -7.409  -2.699  1.00  0.00     0.312 HD
ATOM     45  HZ2 LYS A   2     -22.164  -8.680  -1.830  1.00  0.00     0.312 HD
ENDBRANCH  42  43
ENDBRANCH  41  42
ENDBRANCH  40  41
ENDBRANCH  39  40
ENDBRANCH  38  39
BRANCH  38  46
ATOM     46  C   LYS A   2     -22.565 -11.329  -0.318  1.00  0.00     0.163 C 
ATOM     47  O   LYS A   2     -23.214 -12.093   0.392  1.00  0.00    -0.648 OA
BRANCH  46  48
ATOM     48  OXT LYS A   2     -23.130 -10.731  -1.398  1.00  0.00    -0.775 OA
ATOM     49  HXT LYS A   2     -22.644 -10.176  -1.978  1.00  0.00     0.167 HD
ENDBRANCH  46  48
ENDBRANCH  38  46
ENDBRANCH  36  38
ENDBRANCH   1  34
TORSDOF 19
ENDMDL
MODEL 2
REMARK VINA RESULT:      -7.8      1.960      5.017
REMARK  19 active torsions:
REMARK  status: ('A' for Active; 'I' for Inactive)
REMARK    1  A    between atoms: C_4  and  C_6 
REMARK    2  A    between atoms: C_6  and  C_7 
REMARK    3  A    between atoms: C_7  and  C_8 
REMARK    4  A    between atoms: C_8  and  C_9 
REMARK    5  A    between atoms: C_9  and  C_10 
REMARK       I    between atoms: C_10  and  N_12 
REMARK    6  A    between atoms: N_12  and  C_13 
REMARK    7  A    between atoms: C_13  and  C_14 
REMARK       I    between atoms: C_14  and  N_23 
REMARK    8  A    between atoms: N_23  and  CA_24 
REMARK    9  A    between atoms: CA_24  and  CB_25 
REMARK   10  A    between atoms: CA_24  and  C_32 
REMARK   11  A    between atoms: CB_25  and  CG_26 
REMARK       I    between atoms: C_32  and  N_36 
REMARK   12  A    between atoms: N_36  and  CA_37 
REMARK   13  A    between atoms: CA_37  and  CB_38 
REMARK   14  A    between atoms: CA_37  and  C_43 
REMARK   15  A    between atoms: CB_38  and  CG_39 
REMARK   16  A    between atoms: CG_39  and  CD_40 
REMARK   17  A    between atoms: CD_40  and  CE_41 
REMARK   18  A    between atoms: CE_41  and  NZ_42 
REMARK   19  A    between atoms: C_43  and  OXT_45 
ROOT
ATOM      1  CA  HIS A   1     -20.199  -9.613  -2.115  1.00  0.00     0.182 C 
ENDROOT
BRANCH   1   2
ATOM      2  N   HIS A   1     -21.026  -8.990  -3.180  1.00  0.00    -0.346 N 
HETATM    3  C   UNK A   0     -21.355  -7.650  -3.222  1.00  0.00     0.236 C 
HETATM    4  O   UNK A   0     -21.006  -6.844  -2.359  1.00  0.00    -0.272 OA
ATOM      5  H   HIS A   1     -21.312  -9.612  -3.931  1.00  0.00     0.163 HD
BRANCH   3   6
HETATM    6  C   UNK A   0     -22.222  -7.209  -4.412  1.00  0.00     0.225 C 
BRANCH   6   7
HETATM    7  N   UNK A   0     -21.712  -5.961  -4.980  1.00  0.00    -0.352 N 
HETATM    8  C   UNK A   0     -20.639  -5.960  -5.839  1.00  0.00     0.217 C 
HETATM    9  O   UNK A   0     -20.122  -6.990  -6.250  1.00  0.00    -0.274 OA
HETATM   10  H   UNK A   0     -22.002  -5.102  -4.531  1.00  0.00     0.162 HD
BRANCH   8  11
HETATM   11  C   UNK A   0     -20.159  -4.586  -6.285  1.00  0.00     0.103 C 
BRANCH  11  12
HETATM   12  C   UNK A   0     -19.283  -4.645  -7.536  1.00  0.00     0.009 C 
BRANCH  12  13
HETATM   13  C   UNK A   0     -20.001  -4.067  -8.756  1.00  0.00     0.002 C 
BRANCH  13  14
HETATM   14  C   UNK A   0     -21.518  -4.315  -8.686  1.00  0.00     0.017 C 
BRANCH  14  15
HETATM   15  C   UNK A   0     -22.312  -3.417  -9.648  1.00  0.00     0.072 C 
HETATM   16  C   UNK A   0     -22.118  -3.788 -11.130  1.00  0.00     0.123 C 
HETATM   17  C   UNK A   0     -23.093  -4.925 -11.536  1.00  0.00     0.119 C 
HETATM   18  N   UNK A   0     -22.505  -2.695 -12.014  1.00  0.00    -0.335 N 
HETATM   19  C   UNK A   0     -24.164  -5.107 -10.444  1.00  0.00     0.101 C 
HETATM   20  N   UNK A   0     -23.687  -4.434 -12.767  1.00  0.00    -0.336 N 
HETATM   21  S   UNK A   0     -24.105  -3.630  -9.402  1.00  0.00    -0.160 SA
HETATM   22  C   UNK A   0     -23.597  -3.055 -12.776  1.00  0.00     0.316 C 
HETATM   23  H   UNK A   0     -24.543  -4.815 -13.148  1.00  0.00     0.164 HD
HETATM   24  O   UNK A   0     -24.412  -2.296 -13.270  1.00  0.00    -0.247 OA
HETATM   25  H   UNK A   0     -22.374  -1.714 -11.807  1.00  0.00     0.164 HD
ENDBRANCH  14  15
ENDBRANCH  13  14
ENDBRANCH  12  13
ENDBRANCH  11  12
ENDBRANCH   8  11
ENDBRANCH   6   7
ENDBRANCH   3   6
ENDBRANCH   1   2
BRANCH   1  26
ATOM     26  CB  HIS A   1     -21.049 -10.359  -1.063  1.00  0.00     0.093 C 
BRANCH  26  27
ATOM     27  CG  HIS A   1     -21.890  -9.430  -0.261  1.00  0.00     0.028 A 
ATOM     28  CD2 HIS A   1     -23.249  -9.379  -0.042  1.00  0.00     0.114 A 
ATOM     29  NE2 HIS A   1     -23.582  -8.275   0.691  1.00  0.00    -0.360 N 
ATOM     30  CE1 HIS A   1     -22.447  -7.667   0.941  1.00  0.00     0.180 A 
ATOM     31  HE2 HIS A   1     -24.516  -7.985   0.983  1.00  0.00     0.166 HD
ATOM     32  ND1 HIS A   1     -21.386  -8.347   0.416  1.00  0.00    -0.354 N 
ATOM     33  HD1 HIS A   1     -20.415  -8.077   0.478  1.00  0.00     0.166 HD
ENDBRANCH  26  27
ENDBRANCH   1  26
BRANCH   1  34
ATOM     34  C   HIS A   1     -19.119 -10.554  -2.761  1.00  0.00     0.241 C 
ATOM     35  O   HIS A   1     -19.402 -11.298  -3.702  1.00  0.00    -0.271 OA
ATOM     36  N   LYS A   2     -17.832 -10.472  -2.258  1.00  0.00    -0.345 N 
ATOM     37  H   LYS A   2     -17.624  -9.846  -1.487  1.00  0.00     0.163 HD
BRANCH  36  38
ATOM     38  CA  LYS A   2     -16.695 -11.317  -2.710  1.00  0.00     0.182 C 
BRANCH  38  39
ATOM     39  CB  LYS A   2     -15.609 -10.452  -3.366  1.00  0.00     0.036 C 
BRANCH  39  40
ATOM     40  CG  LYS A   2     -15.380 -10.826  -4.836  1.00  0.00     0.004 C 
BRANCH  40  41
ATOM     41  CD  LYS A   2     -16.072  -9.867  -5.804  1.00  0.00     0.030 C 
BRANCH  41  42
ATOM     42  CE  LYS A   2     -17.435 -10.433  -6.203  1.00  0.00     0.267 C 
BRANCH  42  43
ATOM     43  NZ  LYS A   2     -18.464  -9.407  -6.121  1.00  0.00     0.078 N 
ATOM     44  HZ1 LYS A   2     -19.055  -9.444  -6.950  1.00  0.00     0.312 HD
ATOM     45  HZ2 LYS A   2     -18.021  -8.488  -6.131  1.00  0.00     0.312 HD
ENDBRANCH  42  43
ENDBRANCH  41  42
ENDBRANCH  40  41
ENDBRANCH  39  40
ENDBRANCH  38  39
BRANCH  38  46
ATOM     46  C   LYS A   2     -16.115 -12.103  -1.505  1.00  0.00     0.163 C 
ATOM     47  O   LYS A   2     -16.019 -11.594  -0.391  1.00  0.00    -0.648 OA
BRANCH  46  48
ATOM     48  OXT LYS A   2     -15.680 -13.368  -1.734  1.00  0.00    -0.775 OA
ATOM     49  HXT LYS A   2     -15.497 -13.972  -1.038  1.00  0.00     0.167 HD
ENDBRANCH  46  48
ENDBRANCH  38  46
ENDBRANCH  36  38
ENDBRANCH   1  34
TORSDOF 19
ENDMDL
MODEL 3
REMARK VINA RESULT:      -7.3      2.109      4.931
REMARK  19 active torsions:
REMARK  status: ('A' for Active; 'I' for Inactive)
REMARK    1  A    between atoms: C_4  and  C_6 
REMARK    2  A    between atoms: C_6  and  C_7 
REMARK    3  A    between atoms: C_7  and  C_8 
REMARK    4  A    between atoms: C_8  and  C_9 
REMARK    5  A    between atoms: C_9  and  C_10 
REMARK       I    between atoms: C_10  and  N_12 
REMARK    6  A    between atoms: N_12  and  C_13 
REMARK    7  A    between atoms: C_13  and  C_14 
REMARK       I    between atoms: C_14  and  N_23 
REMARK    8  A    between atoms: N_23  and  CA_24 
REMARK    9  A    between atoms: CA_24  and  CB_25 
REMARK   10  A    between atoms: CA_24  and  C_32 
REMARK   11  A    between atoms: CB_25  and  CG_26 
REMARK       I    between atoms: C_32  and  N_36 
REMARK   12  A    between atoms: N_36  and  CA_37 
REMARK   13  A    between atoms: CA_37  and  CB_38 
REMARK   14  A    between atoms: CA_37  and  C_43 
REMARK   15  A    between atoms: CB_38  and  CG_39 
REMARK   16  A    between atoms: CG_39  and  CD_40 
REMARK   17  A    between atoms: CD_40  and  CE_41 
REMARK   18  A    between atoms: CE_41  and  NZ_42 
REMARK   19  A    between atoms: C_43  and  OXT_45 
ROOT
ATOM      1  CA  HIS A   1     -19.678  -8.927  -2.564  1.00  0.00     0.182 C 
ENDROOT
BRANCH   1   2
ATOM      2  N   HIS A   1     -20.628  -8.349  -3.549  1.00  0.00    -0.346 N 
HETATM    3  C   UNK A   0     -21.297  -7.154  -3.372  1.00  0.00     0.236 C 
HETATM    4  O   UNK A   0     -21.181  -6.462  -2.360  1.00  0.00    -0.272 OA
ATOM      5  H   HIS A   1     -20.733  -8.872  -4.414  1.00  0.00     0.163 HD
BRANCH   3   6
HETATM    6  C   UNK A   0     -22.236  -6.735  -4.514  1.00  0.00     0.225 C 
BRANCH   6   7
HETATM    7  N   UNK A   0     -21.680  -5.594  -5.240  1.00  0.00    -0.352 N 
HETATM    8  C   UNK A   0     -20.575  -5.737  -6.045  1.00  0.00     0.217 C 
HETATM    9  O   UNK A   0     -20.064  -6.824  -6.276  1.00  0.00    -0.274 OA
HETATM   10  H   UNK A   0     -21.969  -4.673  -4.936  1.00  0.00     0.162 HD
BRANCH   8  11
HETATM   11  C   UNK A   0     -20.051  -4.452  -6.670  1.00  0.00     0.103 C 
BRANCH  11  12
HETATM   12  C   UNK A   0     -19.385  -4.685  -8.026  1.00  0.00     0.009 C 
BRANCH  12  13
HETATM   13  C   UNK A   0     -20.295  -4.269  -9.182  1.00  0.00     0.002 C 
BRANCH  13  14
HETATM   14  C   UNK A   0     -21.741  -4.041  -8.705  1.00  0.00     0.017 C 
BRANCH  14  15
HETATM   15  C   UNK A   0     -22.577  -3.231  -9.710  1.00  0.00     0.072 C 
HETATM   16  C   UNK A   0     -22.271  -3.580 -11.178  1.00  0.00     0.123 C 
HETATM   17  C   UNK A   0     -23.099  -4.814 -11.626  1.00  0.00     0.119 C 
HETATM   18  N   UNK A   0     -22.728  -2.534 -12.086  1.00  0.00    -0.335 N 
HETATM   19  C   UNK A   0     -24.197  -5.109 -10.588  1.00  0.00     0.101 C 
HETATM   20  N   UNK A   0     -23.679  -4.388 -12.887  1.00  0.00    -0.336 N 
HETATM   21  S   UNK A   0     -24.347  -3.634  -9.551  1.00  0.00    -0.160 SA
HETATM   22  C   UNK A   0     -23.736  -3.008 -12.899  1.00  0.00     0.316 C 
HETATM   23  H   UNK A   0     -24.470  -4.858 -13.308  1.00  0.00     0.164 HD
HETATM   24  O   UNK A   0     -24.602  -2.339 -13.436  1.00  0.00    -0.247 OA
HETATM   25  H   UNK A   0     -22.712  -1.544 -11.877  1.00  0.00     0.164 HD
ENDBRANCH  14  15
ENDBRANCH  13  14
ENDBRANCH  12  13
ENDBRANCH  11  12
ENDBRANCH   8  11
ENDBRANCH   6   7
ENDBRANCH   3   6
ENDBRANCH   1   2
BRANCH   1  26
ATOM     26  CB  HIS A   1     -20.326 -10.015  -1.681  1.00  0.00     0.093 C 
BRANCH  26  27
ATOM     27  CG  HIS A   1     -21.379  -9.458  -0.788  1.00  0.00     0.028 A 
ATOM     28  CD2 HIS A   1     -22.713  -9.765  -0.639  1.00  0.00     0.114 A 
ATOM     29  NE2 HIS A   1     -23.314  -8.909   0.242  1.00  0.00    -0.360 N 
ATOM     30  CE1 HIS A   1     -22.362  -8.101   0.647  1.00  0.00     0.180 A 
ATOM     31  HE2 HIS A   1     -24.294  -8.900   0.524  1.00  0.00     0.166 HD
ATOM     32  ND1 HIS A   1     -21.162  -8.415   0.079  1.00  0.00    -0.354 N 
ATOM     33  HD1 HIS A   1     -20.285  -7.939   0.237  1.00  0.00     0.166 HD
ENDBRANCH  26  27
ENDBRANCH   1  26
BRANCH   1  34
ATOM     34  C   HIS A   1     -18.403  -9.468  -3.308  1.00  0.00     0.241 C 
ATOM     35  O   HIS A   1     -18.168  -9.158  -4.478  1.00  0.00    -0.271 OA
ATOM     36  N   LYS A   2     -17.539 -10.263  -2.577  1.00  0.00    -0.345 N 
ATOM     37  H   LYS A   2     -17.753 -10.498  -1.613  1.00  0.00     0.163 HD
BRANCH  36  38
ATOM     38  CA  LYS A   2     -16.314 -10.903  -3.126  1.00  0.00     0.182 C 
BRANCH  38  39
ATOM     39  CB  LYS A   2     -15.552 -11.644  -2.018  1.00  0.00     0.036 C 
BRANCH  39  40
ATOM     40  CG  LYS A   2     -16.472 -12.070  -0.866  1.00  0.00     0.004 C 
BRANCH  40  41
ATOM     41  CD  LYS A   2     -15.798 -11.962   0.500  1.00  0.00     0.030 C 
BRANCH  41  42
ATOM     42  CE  LYS A   2     -16.427 -12.966   1.466  1.00  0.00     0.267 C 
BRANCH  42  43
ATOM     43  NZ  LYS A   2     -17.512 -13.692   0.822  1.00  0.00     0.078 N 
ATOM     44  HZ1 LYS A   2     -17.729 -13.262  -0.075  1.00  0.00     0.312 HD
ATOM     45  HZ2 LYS A   2     -18.356 -13.603   1.389  1.00  0.00     0.312 HD
ENDBRANCH  42  43
ENDBRANCH  41  42
ENDBRANCH  40  41
ENDBRANCH  39  40
ENDBRANCH  38  39
BRANCH  38  46
ATOM     46  C   LYS A   2     -16.698 -11.877  -4.270  1.00  0.00     0.163 C 
ATOM     47  O   LYS A   2     -17.162 -12.991  -4.039  1.00  0.00    -0.648 OA
BRANCH  46  48
ATOM     48  OXT LYS A   2     -16.469 -11.466  -5.544  1.00  0.00    -0.775 OA
ATOM     49  HXT LYS A   2     -17.165 -11.251  -6.136  1.00  0.00     0.167 HD
ENDBRANCH  46  48
ENDBRANCH  38  46
ENDBRANCH  36  38
ENDBRANCH   1  34
TORSDOF 19
ENDMDL
MODEL 4
REMARK VINA RESULT:      -7.2      3.276     10.281
REMARK  19 active torsions:
REMARK  status: ('A' for Active; 'I' for Inactive)
REMARK    1  A    between atoms: C_4  and  C_6 
REMARK    2  A    between atoms: C_6  and  C_7 
REMARK    3  A    between atoms: C_7  and  C_8 
REMARK    4  A    between atoms: C_8  and  C_9 
REMARK    5  A    between atoms: C_9  and  C_10 
REMARK       I    between atoms: C_10  and  N_12 
REMARK    6  A    between atoms: N_12  and  C_13 
REMARK    7  A    between atoms: C_13  and  C_14 
REMARK       I    between atoms: C_14  and  N_23 
REMARK    8  A    between atoms: N_23  and  CA_24 
REMARK    9  A    between atoms: CA_24  and  CB_25 
REMARK   10  A    between atoms: CA_24  and  C_32 
REMARK   11  A    between atoms: CB_25  and  CG_26 
REMARK       I    between atoms: C_32  and  N_36 
REMARK   12  A    between atoms: N_36  and  CA_37 
REMARK   13  A    between atoms: CA_37  and  CB_38 
REMARK   14  A    between atoms: CA_37  and  C_43 
REMARK   15  A    between atoms: CB_38  and  CG_39 
REMARK   16  A    between atoms: CG_39  and  CD_40 
REMARK   17  A    between atoms: CD_40  and  CE_41 
REMARK   18  A    between atoms: CE_41  and  NZ_42 
REMARK   19  A    between atoms: C_43  and  OXT_45 
ROOT
ATOM      1  CA  HIS A   1     -21.248  -6.888  -3.919  1.00  0.00     0.182 C 
ENDROOT
BRANCH   1   2
ATOM      2  N   HIS A   1     -20.242  -7.958  -4.135  1.00  0.00    -0.346 N 
HETATM    3  C   UNK A   0     -20.314  -8.898  -5.144  1.00  0.00     0.236 C 
HETATM    4  O   UNK A   0     -21.241  -8.947  -5.953  1.00  0.00    -0.272 OA
ATOM      5  H   HIS A   1     -19.441  -7.940  -3.509  1.00  0.00     0.163 HD
BRANCH   3   6
HETATM    6  C   UNK A   0     -19.168  -9.922  -5.191  1.00  0.00     0.225 C 
BRANCH   6   7
HETATM    7  N   UNK A   0     -18.317  -9.791  -4.008  1.00  0.00    -0.352 N 
HETATM    8  C   UNK A   0     -16.948  -9.787  -4.119  1.00  0.00     0.217 C 
HETATM    9  O   UNK A   0     -16.372  -9.791  -5.199  1.00  0.00    -0.274 OA
HETATM   10  H   UNK A   0     -18.753  -9.958  -3.111  1.00  0.00     0.162 HD
BRANCH   8  11
HETATM   11  C   UNK A   0     -16.186  -9.733  -2.802  1.00  0.00     0.103 C 
BRANCH  11  12
HETATM   12  C   UNK A   0     -15.574 -11.081  -2.419  1.00  0.00     0.009 C 
BRANCH  12  13
HETATM   13  C   UNK A   0     -15.722 -11.364  -0.923  1.00  0.00     0.002 C 
BRANCH  13  14
HETATM   14  C   UNK A   0     -16.377 -12.733  -0.671  1.00  0.00     0.017 C 
BRANCH  14  15
HETATM   15  C   UNK A   0     -17.673 -12.630   0.149  1.00  0.00     0.072 C 
HETATM   16  C   UNK A   0     -18.777 -11.819  -0.554  1.00  0.00     0.123 C 
HETATM   17  C   UNK A   0     -19.577 -12.725  -1.528  1.00  0.00     0.119 C 
HETATM   18  N   UNK A   0     -19.797 -11.371   0.387  1.00  0.00    -0.335 N 
HETATM   19  C   UNK A   0     -19.243 -14.204  -1.258  1.00  0.00     0.101 C 
HETATM   20  N   UNK A   0     -20.960 -12.437  -1.193  1.00  0.00    -0.336 N 
HETATM   21  S   UNK A   0     -18.437 -14.271   0.361  1.00  0.00    -0.160 SA
HETATM   22  C   UNK A   0     -21.008 -11.968   0.106  1.00  0.00     0.316 C 
HETATM   23  H   UNK A   0     -21.723 -13.044  -1.463  1.00  0.00     0.164 HD
HETATM   24  O   UNK A   0     -21.916 -12.162   0.895  1.00  0.00    -0.247 OA
HETATM   25  H   UNK A   0     -19.616 -11.092   1.342  1.00  0.00     0.164 HD
ENDBRANCH  14  15
ENDBRANCH  13  14
ENDBRANCH  12  13
ENDBRANCH  11  12
ENDBRANCH   8  11
ENDBRANCH   6   7
ENDBRANCH   3   6
ENDBRANCH   1   2
BRANCH   1  26
ATOM     26  CB  HIS A   1     -21.262  -6.370  -2.465  1.00  0.00     0.093 C 
BRANCH  26  27
ATOM     27  CG  HIS A   1     -21.835  -7.367  -1.520  1.00  0.00     0.028 A 
ATOM     28  CD2 HIS A   1     -21.909  -8.742  -1.569  1.00  0.00     0.114 A 
ATOM     29  NE2 HIS A   1     -22.625  -9.228  -0.511  1.00  0.00    -0.360 N 
ATOM     30  CE1 HIS A   1     -22.967  -8.174   0.192  1.00  0.00     0.180 A 
ATOM     31  HE2 HIS A   1     -22.846 -10.203  -0.310  1.00  0.00     0.166 HD
ATOM     32  ND1 HIS A   1     -22.482  -7.024  -0.358  1.00  0.00    -0.354 N 
ATOM     33  HD1 HIS A   1     -22.613  -6.089   0.002  1.00  0.00     0.166 HD
ENDBRANCH  26  27
ENDBRANCH   1  26
BRANCH   1  34
ATOM     34  C   HIS A   1     -21.014  -5.722  -4.947  1.00  0.00     0.241 C 
ATOM     35  O   HIS A   1     -20.221  -4.809  -4.707  1.00  0.00    -0.271 OA
ATOM     36  N   LYS A   2     -21.700  -5.795  -6.147  1.00  0.00    -0.345 N 
ATOM     37  H   LYS A   2     -22.343  -6.560  -6.322  1.00  0.00     0.163 HD
BRANCH  36  38
ATOM     38  CA  LYS A   2     -21.643  -4.761  -7.215  1.00  0.00     0.182 C 
BRANCH  38  39
ATOM     39  CB  LYS A   2     -20.872  -5.290  -8.433  1.00  0.00     0.036 C 
BRANCH  39  40
ATOM     40  CG  LYS A   2     -20.185  -4.164  -9.218  1.00  0.00     0.004 C 
BRANCH  40  41
ATOM     41  CD  LYS A   2     -20.257  -4.368 -10.730  1.00  0.00     0.030 C 
BRANCH  41  42
ATOM     42  CE  LYS A   2     -21.108  -3.266 -11.359  1.00  0.00     0.267 C 
BRANCH  42  43
ATOM     43  NZ  LYS A   2     -21.793  -3.756 -12.546  1.00  0.00     0.078 N 
ATOM     44  HZ1 LYS A   2     -22.215  -2.976 -13.047  1.00  0.00     0.312 HD
ATOM     45  HZ2 LYS A   2     -22.566  -4.359 -12.261  1.00  0.00     0.312 HD
ENDBRANCH  42  43
ENDBRANCH  41  42
ENDBRANCH  40  41
ENDBRANCH  39  40
ENDBRANCH  38  39
BRANCH  38  46
ATOM     46  C   LYS A   2     -23.081  -4.343  -7.617  1.00  0.00     0.163 C 
ATOM     47  O   LYS A   2     -23.340  -3.933  -8.746  1.00  0.00    -0.648 OA
BRANCH  46  48
ATOM     48  OXT LYS A   2     -24.043  -4.411  -6.662  1.00  0.00    -0.775 OA
ATOM     49  HXT LYS A   2     -24.725  -3.770  -6.588  1.00  0.00     0.167 HD
ENDBRANCH  46  48
ENDBRANCH  38  46
ENDBRANCH  36  38
ENDBRANCH   1  34
TORSDOF 19
ENDMDL
MODEL 5
REMARK VINA RESULT:      -7.0      2.213      5.247
REMARK  19 active torsions:
REMARK  status: ('A' for Active; 'I' for Inactive)
REMARK    1  A    between atoms: C_4  and  C_6 
REMARK    2  A    between atoms: C_6  and  C_7 
REMARK    3  A    between atoms: C_7  and  C_8 
REMARK    4  A    between atoms: C_8  and  C_9 
REMARK    5  A    between atoms: C_9  and  C_10 
REMARK       I    between atoms: C_10  and  N_12 
REMARK    6  A    between atoms: N_12  and  C_13 
REMARK    7  A    between atoms: C_13  and  C_14 
REMARK       I    between atoms: C_14  and  N_23 
REMARK    8  A    between atoms: N_23  and  CA_24 
REMARK    9  A    between atoms: CA_24  and  CB_25 
REMARK   10  A    between atoms: CA_24  and  C_32 
REMARK   11  A    between atoms: CB_25  and  CG_26 
REMARK       I    between atoms: C_32  and  N_36 
REMARK   12  A    between atoms: N_36  and  CA_37 
REMARK   13  A    between atoms: CA_37  and  CB_38 
REMARK   14  A    between atoms: CA_37  and  C_43 
REMARK   15  A    between atoms: CB_38  and  CG_39 
REMARK   16  A    between atoms: CG_39  and  CD_40 
REMARK   17  A    between atoms: CD_40  and  CE_41 
REMARK   18  A    between atoms: CE_41  and  NZ_42 
REMARK   19  A    between atoms: C_43  and  OXT_45 
ROOT
ATOM      1  CA  HIS A   1     -19.817  -9.728  -2.329  1.00  0.00     0.182 C 
ENDROOT
BRANCH   1   2
ATOM      2  N   HIS A   1     -20.446  -9.250  -3.587  1.00  0.00    -0.346 N 
HETATM    3  C   UNK A   0     -21.012  -8.001  -3.745  1.00  0.00     0.236 C 
HETATM    4  O   UNK A   0     -21.065  -7.167  -2.841  1.00  0.00    -0.272 OA
ATOM      5  H   HIS A   1     -20.400  -9.895  -4.372  1.00  0.00     0.163 HD
BRANCH   3   6
HETATM    6  C   UNK A   0     -21.611  -7.706  -5.129  1.00  0.00     0.225 C 
BRANCH   6   7
HETATM    7  N   UNK A   0     -21.318  -6.329  -5.530  1.00  0.00    -0.352 N 
HETATM    8  C   UNK A   0     -20.219  -6.035  -6.299  1.00  0.00     0.217 C 
HETATM    9  O   UNK A   0     -19.491  -6.899  -6.769  1.00  0.00    -0.274 OA
HETATM   10  H   UNK A   0     -21.793  -5.595  -5.021  1.00  0.00     0.162 HD
BRANCH   8  11
HETATM   11  C   UNK A   0     -19.986  -4.554  -6.567  1.00  0.00     0.103 C 
BRANCH  11  12
HETATM   12  C   UNK A   0     -19.322  -4.297  -7.920  1.00  0.00     0.009 C 
BRANCH  12  13
HETATM   13  C   UNK A   0     -20.325  -4.402  -9.070  1.00  0.00     0.002 C 
BRANCH  13  14
HETATM   14  C   UNK A   0     -21.754  -4.075  -8.602  1.00  0.00     0.017 C 
BRANCH  14  15
HETATM   15  C   UNK A   0     -22.543  -3.253  -9.634  1.00  0.00     0.072 C 
HETATM   16  C   UNK A   0     -22.215  -3.626 -11.092  1.00  0.00     0.123 C 
HETATM   17  C   UNK A   0     -23.068  -4.840 -11.545  1.00  0.00     0.119 C 
HETATM   18  N   UNK A   0     -22.620  -2.577 -12.020  1.00  0.00    -0.335 N 
HETATM   19  C   UNK A   0     -24.198  -5.092 -10.530  1.00  0.00     0.101 C 
HETATM   20  N   UNK A   0     -23.607  -4.412 -12.824  1.00  0.00    -0.336 N 
HETATM   21  S   UNK A   0     -24.327  -3.602  -9.512  1.00  0.00    -0.160 SA
HETATM   22  C   UNK A   0     -23.623  -3.030 -12.851  1.00  0.00     0.316 C 
HETATM   23  H   UNK A   0     -24.402  -4.863 -13.258  1.00  0.00     0.164 HD
HETATM   24  O   UNK A   0     -24.456  -2.342 -13.415  1.00  0.00    -0.247 OA
HETATM   25  H   UNK A   0     -22.579  -1.586 -11.822  1.00  0.00     0.164 HD
ENDBRANCH  14  15
ENDBRANCH  13  14
ENDBRANCH  12  13
ENDBRANCH  11  12
ENDBRANCH   8  11
ENDBRANCH   6   7
ENDBRANCH   3   6
ENDBRANCH   1   2
BRANCH   1  26
ATOM     26  CB  HIS A   1     -20.802 -10.504  -1.429  1.00  0.00     0.093 C 
BRANCH  26  27
ATOM     27  CG  HIS A   1     -21.632  -9.594  -0.592  1.00  0.00     0.028 A 
ATOM     28  CD2 HIS A   1     -22.954  -9.648  -0.212  1.00  0.00     0.114 A 
ATOM     29  NE2 HIS A   1     -23.307  -8.524   0.482  1.00  0.00    -0.360 N 
ATOM     30  CE1 HIS A   1     -22.215  -7.800   0.549  1.00  0.00     0.180 A 
ATOM     31  HE2 HIS A   1     -24.224  -8.297   0.867  1.00  0.00     0.166 HD
ATOM     32  ND1 HIS A   1     -21.161  -8.421  -0.056  1.00  0.00    -0.354 N 
ATOM     33  HD1 HIS A   1     -20.220  -8.061  -0.131  1.00  0.00     0.166 HD
ENDBRANCH  26  27
ENDBRANCH   1  26
BRANCH   1  34
ATOM     34  C   HIS A   1     -18.541 -10.583  -2.664  1.00  0.00     0.241 C 
ATOM     35  O   HIS A   1     -17.699 -10.836  -1.800  1.00  0.00    -0.271 OA
ATOM     36  N   LYS A   2     -18.433 -11.073  -3.953  1.00  0.00    -0.345 N 
ATOM     37  H   LYS A   2     -19.143 -10.854  -4.644  1.00  0.00     0.163 HD
BRANCH  36  38
ATOM     38  CA  LYS A   2     -17.275 -11.856  -4.463  1.00  0.00     0.182 C 
BRANCH  38  39
ATOM     39  CB  LYS A   2     -17.706 -12.750  -5.635  1.00  0.00     0.036 C 
BRANCH  39  40
ATOM     40  CG  LYS A   2     -19.174 -12.532  -6.022  1.00  0.00     0.004 C 
BRANCH  40  41
ATOM     41  CD  LYS A   2     -20.057 -13.736  -5.696  1.00  0.00     0.030 C 
BRANCH  41  42
ATOM     42  CE  LYS A   2     -21.065 -13.956  -6.824  1.00  0.00     0.267 C 
BRANCH  42  43
ATOM     43  NZ  LYS A   2     -20.666 -13.230  -8.022  1.00  0.00     0.078 N 
ATOM     44  HZ1 LYS A   2     -21.438 -13.210  -8.686  1.00  0.00     0.312 HD
ATOM     45  HZ2 LYS A   2     -19.910 -13.736  -8.483  1.00  0.00     0.312 HD
ENDBRANCH  42  43
ENDBRANCH  41  42
ENDBRANCH  40  41
ENDBRANCH  39  40
ENDBRANCH  38  39
BRANCH  38  46
ATOM     46  C   LYS A   2     -16.142 -10.892  -4.899  1.00  0.00     0.163 C 
ATOM     47  O   LYS A   2     -16.377  -9.742  -5.261  1.00  0.00    -0.648 OA
BRANCH  46  48
ATOM     48  OXT LYS A   2     -14.874 -11.378  -4.901  1.00  0.00    -0.775 OA
ATOM     49  HXT LYS A   2     -14.555 -11.949  -5.574  1.00  0.00     0.167 HD
ENDBRANCH  46  48
ENDBRANCH  38  46
ENDBRANCH  36  38
ENDBRANCH   1  34
TORSDOF 19
ENDMDL
MODEL 6
REMARK VINA RESULT:      -7.0      2.073      5.314
REMARK  19 active torsions:
REMARK  status: ('A' for Active; 'I' for Inactive)
REMARK    1  A    between atoms: C_4  and  C_6 
REMARK    2  A    between atoms: C_6  and  C_7 
REMARK    3  A    between atoms: C_7  and  C_8 
REMARK    4  A    between atoms: C_8  and  C_9 
REMARK    5  A    between atoms: C_9  and  C_10 
REMARK       I    between atoms: C_10  and  N_12 
REMARK    6  A    between atoms: N_12  and  C_13 
REMARK    7  A    between atoms: C_13  and  C_14 
REMARK       I    between atoms: C_14  and  N_23 
REMARK    8  A    between atoms: N_23  and  CA_24 
REMARK    9  A    between atoms: CA_24  and  CB_25 
REMARK   10  A    between atoms: CA_24  and  C_32 
REMARK   11  A    between atoms: CB_25  and  CG_26 
REMARK       I    between atoms: C_32  and  N_36 
REMARK   12  A    between atoms: N_36  and  CA_37 
REMARK   13  A    between atoms: CA_37  and  CB_38 
REMARK   14  A    between atoms: CA_37  and  C_43 
REMARK   15  A    between atoms: CB_38  and  CG_39 
REMARK   16  A    between atoms: CG_39  and  CD_40 
REMARK   17  A    between atoms: CD_40  and  CE_41 
REMARK   18  A    between atoms: CE_41  and  NZ_42 
REMARK   19  A    between atoms: C_43  and  OXT_45 
ROOT
ATOM      1  CA  HIS A   1     -21.012 -10.050  -3.580  1.00  0.00     0.182 C 
ENDROOT
BRANCH   1   2
ATOM      2  N   HIS A   1     -21.555  -8.668  -3.564  1.00  0.00    -0.346 N 
HETATM    3  C   UNK A   0     -21.436  -7.800  -2.497  1.00  0.00     0.236 C 
HETATM    4  O   UNK A   0     -20.881  -8.104  -1.441  1.00  0.00    -0.272 OA
ATOM      5  H   HIS A   1     -21.996  -8.362  -4.427  1.00  0.00     0.163 HD
BRANCH   3   6
HETATM    6  C   UNK A   0     -22.070  -6.413  -2.686  1.00  0.00     0.225 C 
BRANCH   6   7
HETATM    7  N   UNK A   0     -21.166  -5.535  -3.430  1.00  0.00    -0.352 N 
HETATM    8  C   UNK A   0     -21.104  -5.583  -4.801  1.00  0.00     0.217 C 
HETATM    9  O   UNK A   0     -21.857  -6.275  -5.473  1.00  0.00    -0.274 OA
HETATM   10  H   UNK A   0     -20.426  -5.090  -2.903  1.00  0.00     0.162 HD
BRANCH   8  11
HETATM   11  C   UNK A   0     -20.059  -4.678  -5.440  1.00  0.00     0.103 C 
BRANCH  11  12
HETATM   12  C   UNK A   0     -19.908  -4.920  -6.942  1.00  0.00     0.009 C 
BRANCH  12  13
HETATM   13  C   UNK A   0     -20.790  -3.974  -7.758  1.00  0.00     0.002 C 
BRANCH  13  14
HETATM   14  C   UNK A   0     -21.154  -4.583  -9.124  1.00  0.00     0.017 C 
BRANCH  14  15
HETATM   15  C   UNK A   0     -21.874  -3.585 -10.046  1.00  0.00     0.072 C 
HETATM   16  C   UNK A   0     -21.924  -4.040 -11.516  1.00  0.00     0.123 C 
HETATM   17  C   UNK A   0     -23.132  -4.984 -11.750  1.00  0.00     0.119 C 
HETATM   18  N   UNK A   0     -22.201  -2.926 -12.415  1.00  0.00    -0.335 N 
HETATM   19  C   UNK A   0     -24.085  -4.920 -10.543  1.00  0.00     0.101 C 
HETATM   20  N   UNK A   0     -23.762  -4.434 -12.937  1.00  0.00    -0.336 N 
HETATM   21  S   UNK A   0     -23.634  -3.445  -9.598  1.00  0.00    -0.160 SA
HETATM   22  C   UNK A   0     -23.421  -3.099 -13.035  1.00  0.00     0.316 C 
HETATM   23  H   UNK A   0     -24.713  -4.659 -13.203  1.00  0.00     0.164 HD
HETATM   24  O   UNK A   0     -24.133  -2.216 -13.481  1.00  0.00    -0.247 OA
HETATM   25  H   UNK A   0     -21.867  -1.980 -12.279  1.00  0.00     0.164 HD
ENDBRANCH  14  15
ENDBRANCH  13  14
ENDBRANCH  12  13
ENDBRANCH  11  12
ENDBRANCH   8  11
ENDBRANCH   6   7
ENDBRANCH   3   6
ENDBRANCH   1   2
BRANCH   1  26
ATOM     26  CB  HIS A   1     -22.113 -11.119  -3.748  1.00  0.00     0.093 C 
BRANCH  26  27
ATOM     27  CG  HIS A   1     -22.661 -11.570  -2.440  1.00  0.00     0.028 A 
ATOM     28  CD2 HIS A   1     -23.070 -12.807  -1.993  1.00  0.00     0.114 A 
ATOM     29  NE2 HIS A   1     -23.603 -12.719  -0.738  1.00  0.00    -0.360 N 
ATOM     30  CE1 HIS A   1     -23.505 -11.453  -0.406  1.00  0.00     0.180 A 
ATOM     31  HE2 HIS A   1     -23.995 -13.476  -0.177  1.00  0.00     0.166 HD
ATOM     32  ND1 HIS A   1     -22.907 -10.721  -1.390  1.00  0.00    -0.354 N 
ATOM     33  HD1 HIS A   1     -22.721  -9.728  -1.365  1.00  0.00     0.166 HD
ENDBRANCH  26  27
ENDBRANCH   1  26
BRANCH   1  34
ATOM     34  C   HIS A   1     -19.907 -10.176  -4.690  1.00  0.00     0.241 C 
ATOM     35  O   HIS A   1     -19.144  -9.240  -4.939  1.00  0.00    -0.271 OA
ATOM     36  N   LYS A   2     -19.800 -11.394  -5.337  1.00  0.00    -0.345 N 
ATOM     37  H   LYS A   2     -20.437 -12.151  -5.108  1.00  0.00     0.163 HD
BRANCH  36  38
ATOM     38  CA  LYS A   2     -18.851 -11.681  -6.445  1.00  0.00     0.182 C 
BRANCH  38  39
ATOM     39  CB  LYS A   2     -17.618 -12.431  -5.916  1.00  0.00     0.036 C 
BRANCH  39  40
ATOM     40  CG  LYS A   2     -16.306 -11.826  -6.434  1.00  0.00     0.004 C 
BRANCH  40  41
ATOM     41  CD  LYS A   2     -16.038 -10.430  -5.877  1.00  0.00     0.030 C 
BRANCH  41  42
ATOM     42  CE  LYS A   2     -15.699 -10.525  -4.389  1.00  0.00     0.267 C 
BRANCH  42  43
ATOM     43  NZ  LYS A   2     -16.494  -9.583  -3.616  1.00  0.00     0.078 N 
ATOM     44  HZ1 LYS A   2     -15.880  -8.927  -3.135  1.00  0.00     0.312 HD
ATOM     45  HZ2 LYS A   2     -16.995 -10.088  -2.885  1.00  0.00     0.312 HD
ENDBRANCH  42  43
ENDBRANCH  41  42
ENDBRANCH  40  41
ENDBRANCH  39  40
ENDBRANCH  38  39
BRANCH  38  46
ATOM     46  C   LYS A   2     -19.563 -12.509  -7.545  1.00  0.00     0.163 C 
ATOM     47  O   LYS A   2     -20.751 -12.809  -7.458  1.00  0.00    -0.648 OA
BRANCH  46  48
ATOM     48  OXT LYS A   2     -18.815 -12.924  -8.600  1.00  0.00    -0.775 OA
ATOM     49  HXT LYS A   2     -18.657 -13.832  -8.778  1.00  0.00     0.167 HD
ENDBRANCH  46  48
ENDBRANCH  38  46
ENDBRANCH  36  38
ENDBRANCH   1  34
TORSDOF 19
ENDMDL
MODEL 7
REMARK VINA RESULT:      -6.9      3.164     10.506
REMARK  19 active torsions:
REMARK  status: ('A' for Active; 'I' for Inactive)
REMARK    1  A    between atoms: C_4  and  C_6 
REMARK    2  A    between atoms: C_6  and  C_7 
REMARK    3  A    between atoms: C_7  and  C_8 
REMARK    4  A    between atoms: C_8  and  C_9 
REMARK    5  A    between atoms: C_9  and  C_10 
REMARK       I    between atoms: C_10  and  N_12 
REMARK    6  A    between atoms: N_12  and  C_13 
REMARK    7  A    between atoms: C_13  and  C_14 
REMARK       I    between atoms: C_14  and  N_23 
REMARK    8  A    between atoms: N_23  and  CA_24 
REMARK    9  A    between atoms: CA_24  and  CB_25 
REMARK   10  A    between atoms: CA_24  and  C_32 
REMARK   11  A    between atoms: CB_25  and  CG_26 
REMARK       I    between atoms: C_32  and  N_36 
REMARK   12  A    between atoms: N_36  and  CA_37 
REMARK   13  A    between atoms: CA_37  and  CB_38 
REMARK   14  A    between atoms: CA_37  and  C_43 
REMARK   15  A    between atoms: CB_38  and  CG_39 
REMARK   16  A    between atoms: CG_39  and  CD_40 
REMARK   17  A    between atoms: CD_40  and  CE_41 
REMARK   18  A    between atoms: CE_41  and  NZ_42 
REMARK   19  A    between atoms: C_43  and  OXT_45 
ROOT
ATOM      1  CA  HIS A   1     -21.283  -7.428  -4.228  1.00  0.00     0.182 C 
ENDROOT
BRANCH   1   2
ATOM      2  N   HIS A   1     -20.682  -8.542  -5.004  1.00  0.00    -0.346 N 
HETATM    3  C   UNK A   0     -21.083  -9.860  -4.908  1.00  0.00     0.236 C 
HETATM    4  O   UNK A   0     -21.973 -10.238  -4.146  1.00  0.00    -0.272 OA
ATOM      5  H   HIS A   1     -19.962  -8.273  -5.670  1.00  0.00     0.163 HD
BRANCH   3   6
HETATM    6  C   UNK A   0     -20.329 -10.859  -5.800  1.00  0.00     0.225 C 
BRANCH   6   7
HETATM    7  N   UNK A   0     -18.963 -10.395  -6.044  1.00  0.00    -0.352 N 
HETATM    8  C   UNK A   0     -17.885 -11.215  -5.814  1.00  0.00     0.217 C 
HETATM    9  O   UNK A   0     -18.006 -12.391  -5.496  1.00  0.00    -0.274 OA
HETATM   10  H   UNK A   0     -18.829  -9.396  -6.137  1.00  0.00     0.162 HD
BRANCH   8  11
HETATM   11  C   UNK A   0     -16.520 -10.576  -6.026  1.00  0.00     0.103 C 
BRANCH  11  12
HETATM   12  C   UNK A   0     -15.704 -10.486  -4.735  1.00  0.00     0.009 C 
BRANCH  12  13
HETATM   13  C   UNK A   0     -16.504  -9.834  -3.607  1.00  0.00     0.002 C 
BRANCH  13  14
HETATM   14  C   UNK A   0     -16.018 -10.309  -2.226  1.00  0.00     0.017 C 
BRANCH  14  15
HETATM   15  C   UNK A   0     -16.211 -11.820  -2.015  1.00  0.00     0.072 C 
HETATM   16  C   UNK A   0     -15.701 -12.316  -0.649  1.00  0.00     0.123 C 
HETATM   17  C   UNK A   0     -16.791 -12.120   0.438  1.00  0.00     0.119 C 
HETATM   18  N   UNK A   0     -15.490 -13.758  -0.644  1.00  0.00    -0.335 N 
HETATM   19  C   UNK A   0     -18.141 -11.800  -0.229  1.00  0.00     0.101 C 
HETATM   20  N   UNK A   0     -16.835 -13.410   1.104  1.00  0.00    -0.336 N 
HETATM   21  S   UNK A   0     -17.981 -12.247  -1.974  1.00  0.00    -0.160 SA
HETATM   22  C   UNK A   0     -16.365 -14.370   0.229  1.00  0.00     0.316 C 
HETATM   23  H   UNK A   0     -17.612 -13.696   1.686  1.00  0.00     0.164 HD
HETATM   24  O   UNK A   0     -16.753 -15.524   0.169  1.00  0.00    -0.247 OA
HETATM   25  H   UNK A   0     -15.157 -14.293  -1.435  1.00  0.00     0.164 HD
ENDBRANCH  14  15
ENDBRANCH  13  14
ENDBRANCH  12  13
ENDBRANCH  11  12
ENDBRANCH   8  11
ENDBRANCH   6   7
ENDBRANCH   3   6
ENDBRANCH   1   2
BRANCH   1  26
ATOM     26  CB  HIS A   1     -20.665  -7.282  -2.821  1.00  0.00     0.093 C 
BRANCH  26  27
ATOM     27  CG  HIS A   1     -21.616  -7.680  -1.747  1.00  0.00     0.028 A 
ATOM     28  CD2 HIS A   1     -22.362  -6.936  -0.860  1.00  0.00     0.114 A 
ATOM     29  NE2 HIS A   1     -23.020  -7.748   0.021  1.00  0.00    -0.360 N 
ATOM     30  CE1 HIS A   1     -22.705  -8.972  -0.330  1.00  0.00     0.180 A 
ATOM     31  HE2 HIS A   1     -23.628  -7.462   0.790  1.00  0.00     0.166 HD
ATOM     32  ND1 HIS A   1     -21.884  -8.986  -1.420  1.00  0.00    -0.354 N 
ATOM     33  HD1 HIS A   1     -21.509  -9.808  -1.874  1.00  0.00     0.166 HD
ENDBRANCH  26  27
ENDBRANCH   1  26
BRANCH   1  34
ATOM     34  C   HIS A   1     -21.180  -6.091  -5.048  1.00  0.00     0.241 C 
ATOM     35  O   HIS A   1     -20.692  -5.074  -4.551  1.00  0.00    -0.271 OA
ATOM     36  N   LYS A   2     -21.615  -6.124  -6.361  1.00  0.00    -0.345 N 
ATOM     37  H   LYS A   2     -22.008  -6.976  -6.748  1.00  0.00     0.163 HD
BRANCH  36  38
ATOM     38  CA  LYS A   2     -21.641  -4.947  -7.271  1.00  0.00     0.182 C 
BRANCH  38  39
ATOM     39  CB  LYS A   2     -20.951  -5.282  -8.601  1.00  0.00     0.036 C 
BRANCH  39  40
ATOM     40  CG  LYS A   2     -20.313  -4.046  -9.250  1.00  0.00     0.004 C 
BRANCH  40  41
ATOM     41  CD  LYS A   2     -20.383  -4.077 -10.776  1.00  0.00     0.030 C 
BRANCH  41  42
ATOM     42  CE  LYS A   2     -21.504  -3.156 -11.259  1.00  0.00     0.267 C 
BRANCH  42  43
ATOM     43  NZ  LYS A   2     -22.675  -3.928 -11.647  1.00  0.00     0.078 N 
ATOM     44  HZ1 LYS A   2     -23.346  -3.945 -10.880  1.00  0.00     0.312 HD
ATOM     45  HZ2 LYS A   2     -22.400  -4.898 -11.803  1.00  0.00     0.312 HD
ENDBRANCH  42  43
ENDBRANCH  41  42
ENDBRANCH  40  41
ENDBRANCH  39  40
ENDBRANCH  38  39
BRANCH  38  46
ATOM     46  C   LYS A   2     -23.106  -4.502  -7.512  1.00  0.00     0.163 C 
ATOM     47  O   LYS A   2     -23.480  -4.080  -8.604  1.00  0.00    -0.648 OA
BRANCH  46  48
ATOM     48  OXT LYS A   2     -23.959  -4.560  -6.457  1.00  0.00    -0.775 OA
ATOM     49  HXT LYS A   2     -24.264  -3.790  -6.014  1.00  0.00     0.167 HD
ENDBRANCH  46  48
ENDBRANCH  38  46
ENDBRANCH  36  38
ENDBRANCH   1  34
TORSDOF 19
ENDMDL
MODEL 8
REMARK VINA RESULT:      -6.8      3.366      9.958
REMARK  19 active torsions:
REMARK  status: ('A' for Active; 'I' for Inactive)
REMARK    1  A    between atoms: C_4  and  C_6 
REMARK    2  A    between atoms: C_6  and  C_7 
REMARK    3  A    between atoms: C_7  and  C_8 
REMARK    4  A    between atoms: C_8  and  C_9 
REMARK    5  A    between atoms: C_9  and  C_10 
REMARK       I    between atoms: C_10  and  N_12 
REMARK    6  A    between atoms: N_12  and  C_13 
REMARK    7  A    between atoms: C_13  and  C_14 
REMARK       I    between atoms: C_14  and  N_23 
REMARK    8  A    between atoms: N_23  and  CA_24 
REMARK    9  A    between atoms: CA_24  and  CB_25 
REMARK   10  A    between atoms: CA_24  and  C_32 
REMARK   11  A    between atoms: CB_25  and  CG_26 
REMARK       I    between atoms: C_32  and  N_36 
REMARK   12  A    between atoms: N_36  and  CA_37 
REMARK   13  A    between atoms: CA_37  and  CB_38 
REMARK   14  A    between atoms: CA_37  and  C_43 
REMARK   15  A    between atoms: CB_38  and  CG_39 
REMARK   16  A    between atoms: CG_39  and  CD_40 
REMARK   17  A    between atoms: CD_40  and  CE_41 
REMARK   18  A    between atoms: CE_41  and  NZ_42 
REMARK   19  A    between atoms: C_43  and  OXT_45 
ROOT
ATOM      1  CA  HIS A   1     -21.292  -8.252  -3.924  1.00  0.00     0.182 C 
ENDROOT
BRANCH   1   2
ATOM      2  N   HIS A   1     -20.496  -9.280  -4.643  1.00  0.00    -0.346 N 
HETATM    3  C   UNK A   0     -20.557 -10.633  -4.377  1.00  0.00     0.236 C 
HETATM    4  O   UNK A   0     -21.269 -11.114  -3.495  1.00  0.00    -0.272 OA
ATOM      5  H   HIS A   1     -19.915  -8.932  -5.400  1.00  0.00     0.163 HD
BRANCH   3   6
HETATM    6  C   UNK A   0     -19.650 -11.527  -5.236  1.00  0.00     0.225 C 
BRANCH   6   7
HETATM    7  N   UNK A   0     -18.245 -11.322  -4.881  1.00  0.00    -0.352 N 
HETATM    8  C   UNK A   0     -17.471 -10.409  -5.554  1.00  0.00     0.217 C 
HETATM    9  O   UNK A   0     -17.926  -9.658  -6.406  1.00  0.00    -0.274 OA
HETATM   10  H   UNK A   0     -17.809 -12.037  -4.313  1.00  0.00     0.162 HD
BRANCH   8  11
HETATM   11  C   UNK A   0     -16.007 -10.361  -5.140  1.00  0.00     0.103 C 
BRANCH  11  12
HETATM   12  C   UNK A   0     -15.438 -11.744  -4.823  1.00  0.00     0.009 C 
BRANCH  12  13
HETATM   13  C   UNK A   0     -14.880 -11.813  -3.401  1.00  0.00     0.002 C 
BRANCH  13  14
HETATM   14  C   UNK A   0     -15.777 -12.664  -2.484  1.00  0.00     0.017 C 
BRANCH  14  15
HETATM   15  C   UNK A   0     -16.709 -11.812  -1.607  1.00  0.00     0.072 C 
HETATM   16  C   UNK A   0     -18.176 -12.276  -1.646  1.00  0.00     0.123 C 
HETATM   17  C   UNK A   0     -18.410 -13.418  -0.622  1.00  0.00     0.119 C 
HETATM   18  N   UNK A   0     -19.083 -11.233  -1.184  1.00  0.00    -0.335 N 
HETATM   19  C   UNK A   0     -17.207 -13.515   0.335  1.00  0.00     0.101 C 
HETATM   20  N   UNK A   0     -19.603 -12.993   0.088  1.00  0.00    -0.336 N 
HETATM   21  S   UNK A   0     -16.270 -11.978   0.153  1.00  0.00    -0.160 SA
HETATM   22  C   UNK A   0     -19.708 -11.619  -0.016  1.00  0.00     0.316 C 
HETATM   23  H   UNK A   0     -19.872 -13.381   0.983  1.00  0.00     0.164 HD
HETATM   24  O   UNK A   0     -20.164 -10.877   0.836  1.00  0.00    -0.247 OA
HETATM   25  H   UNK A   0     -18.952 -10.243  -1.347  1.00  0.00     0.164 HD
ENDBRANCH  14  15
ENDBRANCH  13  14
ENDBRANCH  12  13
ENDBRANCH  11  12
ENDBRANCH   8  11
ENDBRANCH   6   7
ENDBRANCH   3   6
ENDBRANCH   1   2
BRANCH   1  26
ATOM     26  CB  HIS A   1     -20.738  -7.948  -2.515  1.00  0.00     0.093 C 
BRANCH  26  27
ATOM     27  CG  HIS A   1     -21.750  -8.188  -1.451  1.00  0.00     0.028 A 
ATOM     28  CD2 HIS A   1     -22.341  -7.343  -0.538  1.00  0.00     0.114 A 
ATOM     29  NE2 HIS A   1     -23.146  -8.039   0.319  1.00  0.00    -0.360 N 
ATOM     30  CE1 HIS A   1     -23.071  -9.290  -0.071  1.00  0.00     0.180 A 
ATOM     31  HE2 HIS A   1     -23.689  -7.666   1.098  1.00  0.00     0.166 HD
ATOM     32  ND1 HIS A   1     -22.266  -9.428  -1.164  1.00  0.00    -0.354 N 
ATOM     33  HD1 HIS A   1     -22.056 -10.292  -1.644  1.00  0.00     0.166 HD
ENDBRANCH  26  27
ENDBRANCH   1  26
BRANCH   1  34
ATOM     34  C   HIS A   1     -21.395  -6.951  -4.799  1.00  0.00     0.241 C 
ATOM     35  O   HIS A   1     -21.921  -5.926  -4.359  1.00  0.00    -0.271 OA
ATOM     36  N   LYS A   2     -20.830  -6.995  -6.061  1.00  0.00    -0.345 N 
ATOM     37  H   LYS A   2     -20.398  -7.849  -6.398  1.00  0.00     0.163 HD
BRANCH  36  38
ATOM     38  CA  LYS A   2     -20.874  -5.881  -7.045  1.00  0.00     0.182 C 
BRANCH  38  39
ATOM     39  CB  LYS A   2     -22.248  -5.195  -7.019  1.00  0.00     0.036 C 
BRANCH  39  40
ATOM     40  CG  LYS A   2     -22.241  -3.853  -7.764  1.00  0.00     0.004 C 
BRANCH  40  41
ATOM     41  CD  LYS A   2     -22.694  -3.982  -9.217  1.00  0.00     0.030 C 
BRANCH  41  42
ATOM     42  CE  LYS A   2     -24.221  -3.997  -9.281  1.00  0.00     0.267 C 
BRANCH  42  43
ATOM     43  NZ  LYS A   2     -24.688  -3.533 -10.579  1.00  0.00     0.078 N 
ATOM     44  HZ1 LYS A   2     -25.566  -3.993 -10.814  1.00  0.00     0.312 HD
ATOM     45  HZ2 LYS A   2     -24.020  -3.816 -11.296  1.00  0.00     0.312 HD
ENDBRANCH  42  43
ENDBRANCH  41  42
ENDBRANCH  40  41
ENDBRANCH  39  40
ENDBRANCH  38  39
BRANCH  38  46
ATOM     46  C   LYS A   2     -19.748  -4.861  -6.735  1.00  0.00     0.163 C 
ATOM     47  O   LYS A   2     -18.956  -4.494  -7.600  1.00  0.00    -0.648 OA
BRANCH  46  48
ATOM     48  OXT LYS A   2     -19.644  -4.413  -5.458  1.00  0.00    -0.775 OA
ATOM     49  HXT LYS A   2     -20.331  -4.524  -4.828  1.00  0.00     0.167 HD
ENDBRANCH  46  48
ENDBRANCH  38  46
ENDBRANCH  36  38
ENDBRANCH   1  34
TORSDOF 19
ENDMDL
MODEL 9
REMARK VINA RESULT:      -6.8      4.122     11.395
REMARK  19 active torsions:
REMARK  status: ('A' for Active; 'I' for Inactive)
REMARK    1  A    between atoms: C_4  and  C_6 
REMARK    2  A    between atoms: C_6  and  C_7 
REMARK    3  A    between atoms: C_7  and  C_8 
REMARK    4  A    between atoms: C_8  and  C_9 
REMARK    5  A    between atoms: C_9  and  C_10 
REMARK       I    between atoms: C_10  and  N_12 
REMARK    6  A    between atoms: N_12  and  C_13 
REMARK    7  A    between atoms: C_13  and  C_14 
REMARK       I    between atoms: C_14  and  N_23 
REMARK    8  A    between atoms: N_23  and  CA_24 
REMARK    9  A    between atoms: CA_24  and  CB_25 
REMARK   10  A    between atoms: CA_24  and  C_32 
REMARK   11  A    between atoms: CB_25  and  CG_26 
REMARK       I    between atoms: C_32  and  N_36 
REMARK   12  A    between atoms: N_36  and  CA_37 
REMARK   13  A    between atoms: CA_37  and  CB_38 
REMARK   14  A    between atoms: CA_37  and  C_43 
REMARK   15  A    between atoms: CB_38  and  CG_39 
REMARK   16  A    between atoms: CG_39  and  CD_40 
REMARK   17  A    between atoms: CD_40  and  CE_41 
REMARK   18  A    between atoms: CE_41  and  NZ_42 
REMARK   19  A    between atoms: C_43  and  OXT_45 
ROOT
ATOM      1  CA  HIS A   1     -21.138  -6.951  -4.009  1.00  0.00     0.182 C 
ENDROOT
BRANCH   1   2
ATOM      2  N   HIS A   1     -20.063  -7.948  -4.249  1.00  0.00    -0.346 N 
HETATM    3  C   UNK A   0     -20.138  -8.958  -5.187  1.00  0.00     0.236 C 
HETATM    4  O   UNK A   0     -21.122  -9.138  -5.905  1.00  0.00    -0.272 OA
ATOM      5  H   HIS A   1     -19.218  -7.820  -3.700  1.00  0.00     0.163 HD
BRANCH   3   6
HETATM    6  C   UNK A   0     -18.915  -9.884  -5.275  1.00  0.00     0.225 C 
BRANCH   6   7
HETATM    7  N   UNK A   0     -18.110  -9.784  -4.058  1.00  0.00    -0.352 N 
HETATM    8  C   UNK A   0     -16.738  -9.749  -4.118  1.00  0.00     0.217 C 
HETATM    9  O   UNK A   0     -16.124  -9.699  -5.175  1.00  0.00    -0.274 OA
HETATM   10  H   UNK A   0     -18.574  -9.996  -3.184  1.00  0.00     0.162 HD
BRANCH   8  11
HETATM   11  C   UNK A   0     -16.025  -9.734  -2.773  1.00  0.00     0.103 C 
BRANCH  11  12
HETATM   12  C   UNK A   0     -15.526 -11.117  -2.353  1.00  0.00     0.009 C 
BRANCH  12  13
HETATM   13  C   UNK A   0     -16.498 -11.800  -1.391  1.00  0.00     0.002 C 
BRANCH  13  14
HETATM   14  C   UNK A   0     -15.947 -11.819   0.046  1.00  0.00     0.017 C 
BRANCH  14  15
HETATM   15  C   UNK A   0     -16.730 -12.766   0.970  1.00  0.00     0.072 C 
HETATM   16  C   UNK A   0     -17.239 -14.032   0.256  1.00  0.00     0.123 C 
HETATM   17  C   UNK A   0     -16.133 -15.121   0.233  1.00  0.00     0.119 C 
HETATM   18  N   UNK A   0     -18.314 -14.675   1.002  1.00  0.00    -0.335 N 
HETATM   19  C   UNK A   0     -14.999 -14.733   1.199  1.00  0.00     0.101 C 
HETATM   20  N   UNK A   0     -16.825 -16.311   0.697  1.00  0.00    -0.336 N 
HETATM   21  S   UNK A   0     -15.651 -13.435   2.277  1.00  0.00    -0.160 SA
HETATM   22  C   UNK A   0     -17.915 -15.917   1.449  1.00  0.00     0.316 C 
HETATM   23  H   UNK A   0     -16.334 -17.127   1.039  1.00  0.00     0.164 HD
HETATM   24  O   UNK A   0     -18.361 -16.512   2.415  1.00  0.00    -0.247 OA
HETATM   25  H   UNK A   0     -19.019 -14.182   1.535  1.00  0.00     0.164 HD
ENDBRANCH  14  15
ENDBRANCH  13  14
ENDBRANCH  12  13
ENDBRANCH  11  12
ENDBRANCH   8  11
ENDBRANCH   6   7
ENDBRANCH   3   6
ENDBRANCH   1   2
BRANCH   1  26
ATOM     26  CB  HIS A   1     -21.174  -6.457  -2.546  1.00  0.00     0.093 C 
BRANCH  26  27
ATOM     27  CG  HIS A   1     -21.825  -7.440  -1.638  1.00  0.00     0.028 A 
ATOM     28  CD2 HIS A   1     -22.530  -7.281  -0.466  1.00  0.00     0.114 A 
ATOM     29  NE2 HIS A   1     -22.853  -8.494   0.075  1.00  0.00    -0.360 N 
ATOM     30  CE1 HIS A   1     -22.377  -9.387  -0.760  1.00  0.00     0.180 A 
ATOM     31  HE2 HIS A   1     -23.358  -8.669   0.945  1.00  0.00     0.166 HD
ATOM     32  ND1 HIS A   1     -21.776  -8.799  -1.835  1.00  0.00    -0.354 N 
ATOM     33  HD1 HIS A   1     -21.338  -9.278  -2.609  1.00  0.00     0.166 HD
ENDBRANCH  26  27
ENDBRANCH   1  26
BRANCH   1  34
ATOM     34  C   HIS A   1     -20.993  -5.757  -5.021  1.00  0.00     0.241 C 
ATOM     35  O   HIS A   1     -20.276  -4.788  -4.765  1.00  0.00    -0.271 OA
ATOM     36  N   LYS A   2     -21.666  -5.868  -6.224  1.00  0.00    -0.345 N 
ATOM     37  H   LYS A   2     -22.245  -6.680  -6.413  1.00  0.00     0.163 HD
BRANCH  36  38
ATOM     38  CA  LYS A   2     -21.686  -4.820  -7.279  1.00  0.00     0.182 C 
BRANCH  38  39
ATOM     39  CB  LYS A   2     -20.977  -5.318  -8.547  1.00  0.00     0.036 C 
BRANCH  39  40
ATOM     40  CG  LYS A   2     -20.224  -4.194  -9.270  1.00  0.00     0.004 C 
BRANCH  40  41
ATOM     41  CD  LYS A   2     -20.290  -4.322 -10.791  1.00  0.00     0.030 C 
BRANCH  41  42
ATOM     42  CE  LYS A   2     -21.090  -3.156 -11.372  1.00  0.00     0.267 C 
BRANCH  42  43
ATOM     43  NZ  LYS A   2     -22.512  -3.468 -11.400  1.00  0.00     0.078 N 
ATOM     44  HZ1 LYS A   2     -22.657  -4.439 -11.127  1.00  0.00     0.312 HD
ATOM     45  HZ2 LYS A   2     -22.852  -3.390 -12.359  1.00  0.00     0.312 HD
ENDBRANCH  42  43
ENDBRANCH  41  42
ENDBRANCH  40  41
ENDBRANCH  39  40
ENDBRANCH  38  39
BRANCH  38  46
ATOM     46  C   LYS A   2     -23.151  -4.420  -7.593  1.00  0.00     0.163 C 
ATOM     47  O   LYS A   2     -23.491  -4.048  -8.714  1.00  0.00    -0.648 OA
BRANCH  46  48
ATOM     48  OXT LYS A   2     -24.044  -4.460  -6.571  1.00  0.00    -0.775 OA
ATOM     49  HXT LYS A   2     -23.849  -4.117  -5.719  1.00  0.00     0.167 HD
ENDBRANCH  46  48
ENDBRANCH  38  46
ENDBRANCH  36  38
ENDBRANCH   1  34
TORSDOF 19
ENDMDL
