MODEL 1
REMARK VINA RESULT:      -7.2      0.000      0.000
REMARK  12 active torsions:
REMARK  status: ('A' for Active; 'I' for Inactive)
REMARK    1  A    between atoms: C_6  and  O_11 
REMARK    2  A    between atoms: C_7  and  C_8 
REMARK    3  A    between atoms: C_8  and  O_10 
REMARK    4  A    between atoms: C_18  and  O_35 
REMARK    5  A    between atoms: C_19  and  C_24 
REMARK    6  A    between atoms: C_20  and  O_23 
REMARK    7  A    between atoms: C_21  and  O_22 
REMARK    8  A    between atoms: C_25  and  O_34 
REMARK    9  A    between atoms: C_26  and  O_33 
REMARK   10  A    between atoms: C_27  and  O_32 
REMARK   11  A    between atoms: C_28  and  C_30 
REMARK   12  A    between atoms: C_30  and  O_31 
ROOT
HETATM    1  C   UNL     1     -20.778 -10.175   0.555  1.00  0.00     0.050 C 
HETATM    2  C   UNL     1     -20.856  -9.251  -0.649  1.00  0.00    -0.027 A 
HETATM    3  C   UNL     1     -20.070  -9.443  -1.833  1.00  0.00     0.036 A 
HETATM    4  C   UNL     1     -20.178  -8.564  -2.918  1.00  0.00     0.032 A 
HETATM    5  C   UNL     1     -21.052  -7.475  -2.843  1.00  0.00     0.054 A 
HETATM    6  C   UNL     1     -21.818  -7.268  -1.696  1.00  0.00     0.084 A 
HETATM    7  C   UNL     1     -21.751  -8.134  -0.586  1.00  0.00     0.077 A 
HETATM    8  C   UNL     1     -19.398  -8.731  -4.181  1.00  0.00     0.197 A 
HETATM    9  O   UNL     1     -19.579  -7.915  -5.072  1.00  0.00    -0.286 OA
HETATM   10  C   UNL     1     -18.436  -9.846  -4.311  1.00  0.00     0.068 A 
HETATM   11  C   UNL     1     -18.292 -10.688  -3.225  1.00  0.00     0.066 A 
HETATM   12  C   UNL     1     -19.124 -10.564  -2.011  1.00  0.00     0.197 A 
HETATM   13  O   UNL     1     -19.011 -11.453  -1.176  1.00  0.00    -0.286 OA
HETATM   14  C   UNL     1     -17.361 -11.730  -3.300  1.00  0.00     0.092 A 
HETATM   15  C   UNL     1     -16.610 -12.041  -4.465  1.00  0.00     0.043 A 
HETATM   16  C   UNL     1     -16.764 -11.192  -5.547  1.00  0.00     0.111 A 
HETATM   17  C   UNL     1     -17.662 -10.096  -5.463  1.00  0.00     0.115 A 
ENDROOT
BRANCH  15  18
HETATM   18  C   UNL     1     -15.813 -13.325  -4.314  1.00  0.00     0.192 C 
HETATM   19  C   UNL     1     -15.607 -13.973  -5.713  1.00  0.00     0.183 C 
HETATM   20  C   UNL     1     -15.606 -15.482  -5.464  1.00  0.00     0.181 C 
HETATM   21  C   UNL     1     -14.500 -15.867  -4.468  1.00  0.00     0.180 C 
HETATM   22  C   UNL     1     -14.572 -14.977  -3.195  1.00  0.00     0.177 C 
HETATM   23  O   UNL     1     -14.598 -13.527  -3.538  1.00  0.00    -0.368 OA
BRANCH  19  24
HETATM   24  O   UNL     1     -14.402 -13.518  -6.349  1.00  0.00    -0.390 OA
HETATM   25  H   UNL     1     -13.666 -14.055  -6.017  1.00  0.00     0.210 HD
ENDBRANCH  19  24
BRANCH  20  26
HETATM   26  O   UNL     1     -15.477 -16.196  -6.689  1.00  0.00    -0.390 OA
HETATM   27  H   UNL     1     -16.028 -15.708  -7.331  1.00  0.00     0.210 HD
ENDBRANCH  20  26
BRANCH  21  28
HETATM   28  O   UNL     1     -13.226 -15.780  -5.124  1.00  0.00    -0.390 OA
HETATM   29  H   UNL     1     -12.873 -16.669  -5.285  1.00  0.00     0.210 HD
ENDBRANCH  21  28
BRANCH  22  30
HETATM   30  C   UNL     1     -13.459 -15.344  -2.207  1.00  0.00     0.198 C 
BRANCH  30  31
HETATM   31  O   UNL     1     -12.238 -14.716  -2.576  1.00  0.00    -0.398 OA
HETATM   32  H   UNL     1     -11.874 -15.225  -3.320  1.00  0.00     0.209 HD
ENDBRANCH  30  31
ENDBRANCH  22  30
ENDBRANCH  15  18
BRANCH  14  33
HETATM   33  O   UNL     1     -17.135 -12.547  -2.205  1.00  0.00    -0.359 OA
HETATM   34  H   UNL     1     -16.286 -13.034  -2.328  1.00  0.00     0.217 HD
ENDBRANCH  14  33
BRANCH  16  35
HETATM   35  O   UNL     1     -16.085 -11.344  -6.724  1.00  0.00    -0.357 OA
HETATM   36  H   UNL     1     -16.473 -10.746  -7.390  1.00  0.00     0.217 HD
ENDBRANCH  16  35
BRANCH  17  37
HETATM   37  O   UNL     1     -17.766  -9.285  -6.563  1.00  0.00    -0.357 OA
HETATM   38  H   UNL     1     -18.596  -8.780  -6.460  1.00  0.00     0.217 HD
ENDBRANCH  17  37
BRANCH   7  39
HETATM   39  C   UNL     1     -22.601  -7.878   0.650  1.00  0.00     0.179 C 
HETATM   40  O   UNL     1     -22.154  -7.692   1.773  1.00  0.00    -0.646 OA
BRANCH  39  41
HETATM   41  O   UNL     1     -23.929  -7.867   0.450  1.00  0.00    -0.773 OA
HETATM   42  H   UNL     1     -24.417  -7.358   1.133  1.00  0.00     0.167 HD
ENDBRANCH  39  41
ENDBRANCH   7  39
BRANCH   6  43
HETATM   43  O   UNL     1     -22.647  -6.173  -1.683  1.00  0.00    -0.360 OA
HETATM   44  H   UNL     1     -23.534  -6.446  -1.372  1.00  0.00     0.217 HD
ENDBRANCH   6  43
TORSDOF 12
ENDMDL
MODEL 2
REMARK VINA RESULT:      -6.7      4.099      6.801
REMARK  12 active torsions:
REMARK  status: ('A' for Active; 'I' for Inactive)
REMARK    1  A    between atoms: C_6  and  O_11 
REMARK    2  A    between atoms: C_7  and  C_8 
REMARK    3  A    between atoms: C_8  and  O_10 
REMARK    4  A    between atoms: C_18  and  O_35 
REMARK    5  A    between atoms: C_19  and  C_24 
REMARK    6  A    between atoms: C_20  and  O_23 
REMARK    7  A    between atoms: C_21  and  O_22 
REMARK    8  A    between atoms: C_25  and  O_34 
REMARK    9  A    between atoms: C_26  and  O_33 
REMARK   10  A    between atoms: C_27  and  O_32 
REMARK   11  A    between atoms: C_28  and  C_30 
REMARK   12  A    between atoms: C_30  and  O_31 
ROOT
HETATM    1  C   UNL     1     -19.833  -5.239  -9.699  1.00  0.00     0.050 C 
HETATM    2  C   UNL     1     -20.972  -5.108  -8.701  1.00  0.00    -0.027 A 
HETATM    3  C   UNL     1     -21.006  -5.821  -7.457  1.00  0.00     0.036 A 
HETATM    4  C   UNL     1     -22.077  -5.665  -6.569  1.00  0.00     0.032 A 
HETATM    5  C   UNL     1     -23.138  -4.818  -6.903  1.00  0.00     0.054 A 
HETATM    6  C   UNL     1     -23.126  -4.123  -8.113  1.00  0.00     0.084 A 
HETATM    7  C   UNL     1     -22.062  -4.239  -9.031  1.00  0.00     0.077 A 
HETATM    8  C   UNL     1     -22.151  -6.368  -5.253  1.00  0.00     0.197 A 
HETATM    9  O   UNL     1     -23.124  -6.151  -4.546  1.00  0.00    -0.286 OA
HETATM   10  C   UNL     1     -21.075  -7.300  -4.854  1.00  0.00     0.068 A 
HETATM   11  C   UNL     1     -20.038  -7.492  -5.748  1.00  0.00     0.066 A 
HETATM   12  C   UNL     1     -19.933  -6.734  -7.011  1.00  0.00     0.197 A 
HETATM   13  O   UNL     1     -18.899  -6.878  -7.652  1.00  0.00    -0.286 OA
HETATM   14  C   UNL     1     -19.024  -8.398  -5.419  1.00  0.00     0.092 A 
HETATM   15  C   UNL     1     -18.938  -9.074  -4.173  1.00  0.00     0.043 A 
HETATM   16  C   UNL     1     -19.980  -8.873  -3.285  1.00  0.00     0.111 A 
HETATM   17  C   UNL     1     -21.045  -8.002  -3.631  1.00  0.00     0.115 A 
ENDROOT
BRANCH  15  18
HETATM   18  C   UNL     1     -17.643  -9.855  -4.027  1.00  0.00     0.192 C 
HETATM   19  C   UNL     1     -17.597 -10.521  -2.622  1.00  0.00     0.183 C 
HETATM   20  C   UNL     1     -16.120 -10.528  -2.227  1.00  0.00     0.181 C 
HETATM   21  C   UNL     1     -15.282 -11.290  -3.267  1.00  0.00     0.180 C 
HETATM   22  C   UNL     1     -15.591 -10.777  -4.703  1.00  0.00     0.177 C 
HETATM   23  O   UNL     1     -17.054 -10.779  -4.985  1.00  0.00    -0.368 OA
BRANCH  19  24
HETATM   24  O   UNL     1     -18.173 -11.837  -2.626  1.00  0.00    -0.390 OA
HETATM   25  H   UNL     1     -17.525 -12.450  -2.246  1.00  0.00     0.210 HD
ENDBRANCH  19  24
BRANCH  20  26
HETATM   26  O   UNL     1     -15.948 -11.071  -0.921  1.00  0.00    -0.390 OA
HETATM   27  H   UNL     1     -16.833 -11.388  -0.656  1.00  0.00     0.210 HD
ENDBRANCH  20  26
BRANCH  21  28
HETATM   28  O   UNL     1     -15.526 -12.698  -3.127  1.00  0.00    -0.390 OA
HETATM   29  H   UNL     1     -16.475 -12.859  -3.000  1.00  0.00     0.210 HD
ENDBRANCH  21  28
BRANCH  22  30
HETATM   30  C   UNL     1     -14.773 -11.547  -5.746  1.00  0.00     0.198 C 
BRANCH  30  31
HETATM   31  O   UNL     1     -13.536 -11.976  -5.192  1.00  0.00    -0.398 OA
HETATM   32  H   UNL     1     -13.632 -11.936  -4.225  1.00  0.00     0.209 HD
ENDBRANCH  30  31
ENDBRANCH  22  30
ENDBRANCH  15  18
BRANCH  14  33
HETATM   33  O   UNL     1     -18.010  -8.671  -6.322  1.00  0.00    -0.359 OA
HETATM   34  H   UNL     1     -17.172  -8.842  -5.831  1.00  0.00     0.217 HD
ENDBRANCH  14  33
BRANCH  16  35
HETATM   35  O   UNL     1     -20.053  -9.480  -2.061  1.00  0.00    -0.357 OA
HETATM   36  H   UNL     1     -19.273 -10.056  -1.950  1.00  0.00     0.217 HD
ENDBRANCH  16  35
BRANCH  17  37
HETATM   37  O   UNL     1     -22.053  -7.849  -2.715  1.00  0.00    -0.357 OA
HETATM   38  H   UNL     1     -21.960  -6.950  -2.343  1.00  0.00     0.217 HD
ENDBRANCH  17  37
BRANCH   7  39
HETATM   39  C   UNL     1     -22.082  -3.466 -10.341  1.00  0.00     0.179 C 
HETATM   40  O   UNL     1     -21.110  -2.908 -10.833  1.00  0.00    -0.646 OA
BRANCH  39  41
HETATM   41  O   UNL     1     -23.268  -3.414 -10.969  1.00  0.00    -0.773 OA
HETATM   42  H   UNL     1     -23.400  -4.148 -11.605  1.00  0.00     0.167 HD
ENDBRANCH  39  41
ENDBRANCH   7  39
BRANCH   6  43
HETATM   43  O   UNL     1     -24.203  -3.316  -8.385  1.00  0.00    -0.360 OA
HETATM   44  H   UNL     1     -24.960  -3.594  -7.831  1.00  0.00     0.217 HD
ENDBRANCH   6  43
TORSDOF 12
ENDMDL
MODEL 3
REMARK VINA RESULT:      -6.6      1.476      2.141
REMARK  12 active torsions:
REMARK  status: ('A' for Active; 'I' for Inactive)
REMARK    1  A    between atoms: C_6  and  O_11 
REMARK    2  A    between atoms: C_7  and  C_8 
REMARK    3  A    between atoms: C_8  and  O_10 
REMARK    4  A    between atoms: C_18  and  O_35 
REMARK    5  A    between atoms: C_19  and  C_24 
REMARK    6  A    between atoms: C_20  and  O_23 
REMARK    7  A    between atoms: C_21  and  O_22 
REMARK    8  A    between atoms: C_25  and  O_34 
REMARK    9  A    between atoms: C_26  and  O_33 
REMARK   10  A    between atoms: C_27  and  O_32 
REMARK   11  A    between atoms: C_28  and  C_30 
REMARK   12  A    between atoms: C_30  and  O_31 
ROOT
HETATM    1  C   UNL     1     -20.591  -8.794  -0.332  1.00  0.00     0.050 C 
HETATM    2  C   UNL     1     -20.472  -8.438  -1.805  1.00  0.00    -0.027 A 
HETATM    3  C   UNL     1     -19.547  -9.082  -2.692  1.00  0.00     0.036 A 
HETATM    4  C   UNL     1     -19.477  -8.720  -4.042  1.00  0.00     0.032 A 
HETATM    5  C   UNL     1     -20.306  -7.707  -4.534  1.00  0.00     0.054 A 
HETATM    6  C   UNL     1     -21.206  -7.064  -3.683  1.00  0.00     0.084 A 
HETATM    7  C   UNL     1     -21.320  -7.405  -2.320  1.00  0.00     0.077 A 
HETATM    8  C   UNL     1     -18.546  -9.373  -5.012  1.00  0.00     0.197 A 
HETATM    9  O   UNL     1     -18.575  -8.992  -6.172  1.00  0.00    -0.286 OA
HETATM   10  C   UNL     1     -17.623 -10.431  -4.549  1.00  0.00     0.068 A 
HETATM   11  C   UNL     1     -17.657 -10.759  -3.206  1.00  0.00     0.066 A 
HETATM   12  C   UNL     1     -18.634 -10.166  -2.272  1.00  0.00     0.197 A 
HETATM   13  O   UNL     1     -18.669 -10.638  -1.142  1.00  0.00    -0.286 OA
HETATM   14  C   UNL     1     -16.769 -11.727  -2.727  1.00  0.00     0.092 A 
HETATM   15  C   UNL     1     -15.885 -12.473  -3.554  1.00  0.00     0.043 A 
HETATM   16  C   UNL     1     -15.862 -12.137  -4.897  1.00  0.00     0.111 A 
HETATM   17  C   UNL     1     -16.716 -11.115  -5.385  1.00  0.00     0.115 A 
ENDROOT
BRANCH  15  18
HETATM   18  C   UNL     1     -15.169 -13.574  -2.790  1.00  0.00     0.192 C 
HETATM   19  C   UNL     1     -15.667 -14.959  -3.293  1.00  0.00     0.183 C 
HETATM   20  C   UNL     1     -15.620 -15.875  -2.070  1.00  0.00     0.181 C 
HETATM   21  C   UNL     1     -14.198 -15.935  -1.491  1.00  0.00     0.180 C 
HETATM   22  C   UNL     1     -13.629 -14.502  -1.280  1.00  0.00     0.177 C 
HETATM   23  O   UNL     1     -13.744 -13.678  -2.516  1.00  0.00    -0.368 OA
BRANCH  19  24
HETATM   24  O   UNL     1     -14.876 -15.456  -4.385  1.00  0.00    -0.390 OA
HETATM   25  H   UNL     1     -14.244 -16.099  -4.029  1.00  0.00     0.210 HD
ENDBRANCH  19  24
BRANCH  20  26
HETATM   26  O   UNL     1     -16.109 -17.173  -2.390  1.00  0.00    -0.390 OA
HETATM   27  H   UNL     1     -16.769 -17.033  -3.096  1.00  0.00     0.210 HD
ENDBRANCH  20  26
BRANCH  21  28
HETATM   28  O   UNL     1     -13.372 -16.728  -2.357  1.00  0.00    -0.390 OA
HETATM   29  H   UNL     1     -12.481 -16.344  -2.409  1.00  0.00     0.210 HD
ENDBRANCH  21  28
BRANCH  22  30
HETATM   30  C   UNL     1     -12.202 -14.558  -0.722  1.00  0.00     0.198 C 
BRANCH  30  31
HETATM   31  O   UNL     1     -12.041 -15.689   0.123  1.00  0.00    -0.398 OA
HETATM   32  H   UNL     1     -11.920 -16.460  -0.459  1.00  0.00     0.209 HD
ENDBRANCH  30  31
ENDBRANCH  22  30
ENDBRANCH  15  18
BRANCH  14  33
HETATM   33  O   UNL     1     -16.722 -12.027  -1.376  1.00  0.00    -0.359 OA
HETATM   34  H   UNL     1     -15.824 -11.820  -1.025  1.00  0.00     0.217 HD
ENDBRANCH  14  33
BRANCH  16  35
HETATM   35  O   UNL     1     -15.042 -12.743  -5.808  1.00  0.00    -0.357 OA
HETATM   36  H   UNL     1     -14.494 -12.062  -6.240  1.00  0.00     0.217 HD
ENDBRANCH  16  35
BRANCH  17  37
HETATM   37  O   UNL     1     -16.642 -10.821  -6.721  1.00  0.00    -0.357 OA
HETATM   38  H   UNL     1     -17.530 -10.516  -6.991  1.00  0.00     0.217 HD
ENDBRANCH  17  37
BRANCH   7  39
HETATM   39  C   UNL     1     -22.313  -6.683  -1.421  1.00  0.00     0.179 C 
HETATM   40  O   UNL     1     -23.075  -7.239  -0.642  1.00  0.00    -0.646 OA
BRANCH  39  41
HETATM   41  O   UNL     1     -22.325  -5.344  -1.524  1.00  0.00    -0.773 OA
HETATM   42  H   UNL     1     -21.494  -4.979  -1.895  1.00  0.00     0.167 HD
ENDBRANCH  39  41
ENDBRANCH   7  39
BRANCH   6  43
HETATM   43  O   UNL     1     -21.983  -6.071  -4.226  1.00  0.00    -0.360 OA
HETATM   44  H   UNL     1     -21.761  -5.220  -3.799  1.00  0.00     0.217 HD
ENDBRANCH   6  43
TORSDOF 12
ENDMDL
MODEL 4
REMARK VINA RESULT:      -6.4      2.192      8.307
REMARK  12 active torsions:
REMARK  status: ('A' for Active; 'I' for Inactive)
REMARK    1  A    between atoms: C_6  and  O_11 
REMARK    2  A    between atoms: C_7  and  C_8 
REMARK    3  A    between atoms: C_8  and  O_10 
REMARK    4  A    between atoms: C_18  and  O_35 
REMARK    5  A    between atoms: C_19  and  C_24 
REMARK    6  A    between atoms: C_20  and  O_23 
REMARK    7  A    between atoms: C_21  and  O_22 
REMARK    8  A    between atoms: C_25  and  O_34 
REMARK    9  A    between atoms: C_26  and  O_33 
REMARK   10  A    between atoms: C_27  and  O_32 
REMARK   11  A    between atoms: C_28  and  C_30 
REMARK   12  A    between atoms: C_30  and  O_31 
ROOT
HETATM    1  C   UNL     1     -15.956 -12.912   1.095  1.00  0.00     0.050 C 
HETATM    2  C   UNL     1     -15.199 -13.239  -0.181  1.00  0.00    -0.027 A 
HETATM    3  C   UNL     1     -15.514 -12.648  -1.450  1.00  0.00     0.036 A 
HETATM    4  C   UNL     1     -14.786 -12.981  -2.598  1.00  0.00     0.032 A 
HETATM    5  C   UNL     1     -13.748 -13.914  -2.515  1.00  0.00     0.054 A 
HETATM    6  C   UNL     1     -13.433 -14.506  -1.291  1.00  0.00     0.084 A 
HETATM    7  C   UNL     1     -14.131 -14.190  -0.107  1.00  0.00     0.077 A 
HETATM    8  C   UNL     1     -15.059 -12.379  -3.937  1.00  0.00     0.197 A 
HETATM    9  O   UNL     1     -14.354 -12.728  -4.872  1.00  0.00    -0.286 OA
HETATM   10  C   UNL     1     -16.162 -11.408  -4.098  1.00  0.00     0.068 A 
HETATM   11  C   UNL     1     -16.913 -11.111  -2.976  1.00  0.00     0.066 A 
HETATM   12  C   UNL     1     -16.587 -11.649  -1.640  1.00  0.00     0.197 A 
HETATM   13  O   UNL     1     -17.229 -11.203  -0.697  1.00  0.00    -0.286 OA
HETATM   14  C   UNL     1     -17.990 -10.227  -3.100  1.00  0.00     0.092 A 
HETATM   15  C   UNL     1     -18.312  -9.532  -4.298  1.00  0.00     0.043 A 
HETATM   16  C   UNL     1     -17.551  -9.835  -5.414  1.00  0.00     0.111 A 
HETATM   17  C   UNL     1     -16.494 -10.776  -5.314  1.00  0.00     0.115 A 
ENDROOT
BRANCH  15  18
HETATM   18  C   UNL     1     -19.416  -8.509  -4.094  1.00  0.00     0.192 C 
HETATM   19  C   UNL     1     -19.979  -8.074  -5.477  1.00  0.00     0.183 C 
HETATM   20  C   UNL     1     -20.379  -6.608  -5.308  1.00  0.00     0.181 C 
HETATM   21  C   UNL     1     -21.409  -6.453  -4.178  1.00  0.00     0.180 C 
HETATM   22  C   UNL     1     -20.921  -7.169  -2.886  1.00  0.00     0.177 C 
HETATM   23  O   UNL     1     -20.526  -8.581  -3.155  1.00  0.00    -0.368 OA
BRANCH  19  24
HETATM   24  O   UNL     1     -21.076  -8.900  -5.900  1.00  0.00    -0.390 OA
HETATM   25  H   UNL     1     -21.801  -8.783  -5.267  1.00  0.00     0.210 HD
ENDBRANCH  19  24
BRANCH  20  26
HETATM   26  O   UNL     1     -20.866  -6.072  -6.534  1.00  0.00    -0.390 OA
HETATM   27  H   UNL     1     -21.710  -5.638  -6.308  1.00  0.00     0.210 HD
ENDBRANCH  20  26
BRANCH  21  28
HETATM   28  O   UNL     1     -22.679  -6.949  -4.629  1.00  0.00    -0.390 OA
HETATM   29  H   UNL     1     -23.284  -7.047  -3.875  1.00  0.00     0.210 HD
ENDBRANCH  21  28
BRANCH  22  30
HETATM   30  C   UNL     1     -21.954  -7.034  -1.762  1.00  0.00     0.198 C 
BRANCH  30  31
HETATM   31  O   UNL     1     -22.681  -5.820  -1.896  1.00  0.00    -0.398 OA
HETATM   32  H   UNL     1     -23.468  -6.022  -2.432  1.00  0.00     0.209 HD
ENDBRANCH  30  31
ENDBRANCH  22  30
ENDBRANCH  15  18
BRANCH  14  33
HETATM   33  O   UNL     1     -18.810  -9.964  -2.016  1.00  0.00    -0.359 OA
HETATM   34  H   UNL     1     -19.726 -10.273  -2.214  1.00  0.00     0.217 HD
ENDBRANCH  14  33
BRANCH  16  35
HETATM   35  O   UNL     1     -17.763  -9.273  -6.642  1.00  0.00    -0.357 OA
HETATM   36  H   UNL     1     -16.923  -9.280  -7.140  1.00  0.00     0.217 HD
ENDBRANCH  16  35
BRANCH  17  37
HETATM   37  O   UNL     1     -15.782 -11.042  -6.455  1.00  0.00    -0.357 OA
HETATM   38  H   UNL     1     -14.838 -11.049  -6.200  1.00  0.00     0.217 HD
ENDBRANCH  17  37
BRANCH   7  39
HETATM   39  C   UNL     1     -13.760 -14.855   1.210  1.00  0.00     0.179 C 
HETATM   40  O   UNL     1     -14.500 -15.593   1.847  1.00  0.00    -0.646 OA
BRANCH  39  41
HETATM   41  O   UNL     1     -12.530 -14.584   1.674  1.00  0.00    -0.773 OA
HETATM   42  H   UNL     1     -12.073 -13.880   1.167  1.00  0.00     0.167 HD
ENDBRANCH  39  41
ENDBRANCH   7  39
BRANCH   6  43
HETATM   43  O   UNL     1     -12.410 -15.422  -1.281  1.00  0.00    -0.360 OA
HETATM   44  H   UNL     1     -11.594 -14.996  -1.611  1.00  0.00     0.217 HD
ENDBRANCH   6  43
TORSDOF 12
ENDMDL
MODEL 5
REMARK VINA RESULT:      -6.3      1.742      4.153
REMARK  12 active torsions:
REMARK  status: ('A' for Active; 'I' for Inactive)
REMARK    1  A    between atoms: C_6  and  O_11 
REMARK    2  A    between atoms: C_7  and  C_8 
REMARK    3  A    between atoms: C_8  and  O_10 
REMARK    4  A    between atoms: C_18  and  O_35 
REMARK    5  A    between atoms: C_19  and  C_24 
REMARK    6  A    between atoms: C_20  and  O_23 
REMARK    7  A    between atoms: C_21  and  O_22 
REMARK    8  A    between atoms: C_25  and  O_34 
REMARK    9  A    between atoms: C_26  and  O_33 
REMARK   10  A    between atoms: C_27  and  O_32 
REMARK   11  A    between atoms: C_28  and  C_30 
REMARK   12  A    between atoms: C_30  and  O_31 
ROOT
HETATM    1  C   UNL     1     -19.500  -7.433  -6.224  1.00  0.00     0.050 C 
HETATM    2  C   UNL     1     -20.075  -7.588  -4.825  1.00  0.00    -0.027 A 
HETATM    3  C   UNL     1     -19.671  -8.629  -3.925  1.00  0.00     0.036 A 
HETATM    4  C   UNL     1     -20.230  -8.729  -2.646  1.00  0.00     0.032 A 
HETATM    5  C   UNL     1     -21.207  -7.814  -2.241  1.00  0.00     0.054 A 
HETATM    6  C   UNL     1     -21.617  -6.799  -3.107  1.00  0.00     0.084 A 
HETATM    7  C   UNL     1     -21.072  -6.653  -4.399  1.00  0.00     0.077 A 
HETATM    8  C   UNL     1     -19.829  -9.781  -1.664  1.00  0.00     0.197 A 
HETATM    9  O   UNL     1     -20.369  -9.770  -0.567  1.00  0.00    -0.286 OA
HETATM   10  C   UNL     1     -18.824 -10.797  -2.040  1.00  0.00     0.068 A 
HETATM   11  C   UNL     1     -18.304 -10.730  -3.320  1.00  0.00     0.066 A 
HETATM   12  C   UNL     1     -18.645  -9.640  -4.256  1.00  0.00     0.197 A 
HETATM   13  O   UNL     1     -18.013  -9.601  -5.305  1.00  0.00    -0.286 OA
HETATM   14  C   UNL     1     -17.379 -11.699  -3.722  1.00  0.00     0.092 A 
HETATM   15  C   UNL     1     -16.862 -12.708  -2.865  1.00  0.00     0.043 A 
HETATM   16  C   UNL     1     -17.389 -12.764  -1.586  1.00  0.00     0.111 A 
HETATM   17  C   UNL     1     -18.371 -11.822  -1.184  1.00  0.00     0.115 A 
ENDROOT
BRANCH  15  18
HETATM   18  C   UNL     1     -15.747 -13.507  -3.518  1.00  0.00     0.192 C 
HETATM   19  C   UNL     1     -14.664 -13.848  -2.455  1.00  0.00     0.183 C 
HETATM   20  C   UNL     1     -13.338 -13.848  -3.215  1.00  0.00     0.181 C 
HETATM   21  C   UNL     1     -13.372 -14.865  -4.367  1.00  0.00     0.180 C 
HETATM   22  C   UNL     1     -14.645 -14.665  -5.239  1.00  0.00     0.177 C 
HETATM   23  O   UNL     1     -15.883 -14.650  -4.409  1.00  0.00    -0.368 OA
BRANCH  19  24
HETATM   24  O   UNL     1     -14.925 -15.098  -1.798  1.00  0.00    -0.390 OA
HETATM   25  H   UNL     1     -14.481 -15.082  -0.936  1.00  0.00     0.210 HD
ENDBRANCH  19  24
BRANCH  20  26
HETATM   26  O   UNL     1     -12.249 -14.097  -2.331  1.00  0.00    -0.390 OA
HETATM   27  H   UNL     1     -11.513 -14.386  -2.905  1.00  0.00     0.210 HD
ENDBRANCH  20  26
BRANCH  21  28
HETATM   28  O   UNL     1     -13.284 -16.192  -3.825  1.00  0.00    -0.390 OA
HETATM   29  H   UNL     1     -13.789 -16.246  -2.998  1.00  0.00     0.210 HD
ENDBRANCH  21  28
BRANCH  22  30
HETATM   30  C   UNL     1     -14.694 -15.690  -6.377  1.00  0.00     0.198 C 
BRANCH  30  31
HETATM   31  O   UNL     1     -13.379 -16.058  -6.774  1.00  0.00    -0.398 OA
HETATM   32  H   UNL     1     -13.152 -15.504  -7.540  1.00  0.00     0.209 HD
ENDBRANCH  30  31
ENDBRANCH  22  30
ENDBRANCH  15  18
BRANCH  14  33
HETATM   33  O   UNL     1     -16.894 -11.708  -5.019  1.00  0.00    -0.359 OA
HETATM   34  H   UNL     1     -16.937 -12.625  -5.380  1.00  0.00     0.217 HD
ENDBRANCH  14  33
BRANCH  16  35
HETATM   35  O   UNL     1     -17.014 -13.697  -0.660  1.00  0.00    -0.357 OA
HETATM   36  H   UNL     1     -17.429 -14.550  -0.888  1.00  0.00     0.217 HD
ENDBRANCH  16  35
BRANCH  17  37
HETATM   37  O   UNL     1     -18.861 -11.933   0.091  1.00  0.00    -0.357 OA
HETATM   38  H   UNL     1     -18.406 -12.694   0.501  1.00  0.00     0.217 HD
ENDBRANCH  17  37
BRANCH   7  39
HETATM   39  C   UNL     1     -21.544  -5.534  -5.316  1.00  0.00     0.179 C 
HETATM   40  O   UNL     1     -20.827  -4.642  -5.748  1.00  0.00    -0.646 OA
BRANCH  39  41
HETATM   41  O   UNL     1     -22.845  -5.563  -5.649  1.00  0.00    -0.773 OA
HETATM   42  H   UNL     1     -23.404  -6.010  -4.979  1.00  0.00     0.167 HD
ENDBRANCH  39  41
ENDBRANCH   7  39
BRANCH   6  43
HETATM   43  O   UNL     1     -22.587  -5.940  -2.652  1.00  0.00    -0.360 OA
HETATM   44  H   UNL     1     -22.330  -5.022  -2.869  1.00  0.00     0.217 HD
ENDBRANCH   6  43
TORSDOF 12
ENDMDL
MODEL 6
REMARK VINA RESULT:      -6.3      2.635      4.480
REMARK  12 active torsions:
REMARK  status: ('A' for Active; 'I' for Inactive)
REMARK    1  A    between atoms: C_6  and  O_11 
REMARK    2  A    between atoms: C_7  and  C_8 
REMARK    3  A    between atoms: C_8  and  O_10 
REMARK    4  A    between atoms: C_18  and  O_35 
REMARK    5  A    between atoms: C_19  and  C_24 
REMARK    6  A    between atoms: C_20  and  O_23 
REMARK    7  A    between atoms: C_21  and  O_22 
REMARK    8  A    between atoms: C_25  and  O_34 
REMARK    9  A    between atoms: C_26  and  O_33 
REMARK   10  A    between atoms: C_27  and  O_32 
REMARK   11  A    between atoms: C_28  and  C_30 
REMARK   12  A    between atoms: C_30  and  O_31 
ROOT
HETATM    1  C   UNL     1     -21.256  -8.397  -1.717  1.00  0.00     0.050 C 
HETATM    2  C   UNL     1     -20.518  -8.377  -3.046  1.00  0.00    -0.027 A 
HETATM    3  C   UNL     1     -19.409  -9.239  -3.337  1.00  0.00     0.036 A 
HETATM    4  C   UNL     1     -18.763  -9.185  -4.577  1.00  0.00     0.032 A 
HETATM    5  C   UNL     1     -19.191  -8.268  -5.543  1.00  0.00     0.054 A 
HETATM    6  C   UNL     1     -20.262  -7.416  -5.274  1.00  0.00     0.084 A 
HETATM    7  C   UNL     1     -20.951  -7.446  -4.044  1.00  0.00     0.077 A 
HETATM    8  C   UNL     1     -17.618 -10.075  -4.937  1.00  0.00     0.197 A 
HETATM    9  O   UNL     1     -17.135  -9.955  -6.053  1.00  0.00    -0.286 OA
HETATM   10  C   UNL     1     -17.100 -11.045  -3.950  1.00  0.00     0.068 A 
HETATM   11  C   UNL     1     -17.705 -11.069  -2.707  1.00  0.00     0.066 A 
HETATM   12  C   UNL     1     -18.886 -10.244  -2.387  1.00  0.00     0.197 A 
HETATM   13  O   UNL     1     -19.427 -10.456  -1.308  1.00  0.00    -0.286 OA
HETATM   14  C   UNL     1     -17.213 -11.948  -1.736  1.00  0.00     0.092 A 
HETATM   15  C   UNL     1     -16.180 -12.894  -1.972  1.00  0.00     0.043 A 
HETATM   16  C   UNL     1     -15.583 -12.862  -3.221  1.00  0.00     0.111 A 
HETATM   17  C   UNL     1     -16.033 -11.935  -4.195  1.00  0.00     0.115 A 
ENDROOT
BRANCH  15  18
HETATM   18  C   UNL     1     -15.974 -13.832  -0.795  1.00  0.00     0.192 C 
HETATM   19  C   UNL     1     -14.824 -13.291   0.102  1.00  0.00     0.183 C 
HETATM   20  C   UNL     1     -14.137 -14.533   0.671  1.00  0.00     0.181 C 
HETATM   21  C   UNL     1     -15.138 -15.396   1.455  1.00  0.00     0.180 C 
HETATM   22  C   UNL     1     -16.415 -15.664   0.608  1.00  0.00     0.177 C 
HETATM   23  O   UNL     1     -16.996 -14.400   0.073  1.00  0.00    -0.368 OA
BRANCH  19  24
HETATM   24  O   UNL     1     -15.306 -12.407   1.127  1.00  0.00    -0.390 OA
HETATM   25  H   UNL     1     -15.445 -11.534   0.729  1.00  0.00     0.210 HD
ENDBRANCH  19  24
BRANCH  20  26
HETATM   26  O   UNL     1     -13.020 -14.169   1.476  1.00  0.00    -0.390 OA
HETATM   27  H   UNL     1     -12.787 -13.262   1.197  1.00  0.00     0.210 HD
ENDBRANCH  20  26
BRANCH  21  28
HETATM   28  O   UNL     1     -15.438 -14.752   2.703  1.00  0.00    -0.390 OA
HETATM   29  H   UNL     1     -16.033 -13.999   2.554  1.00  0.00     0.210 HD
ENDBRANCH  21  28
BRANCH  22  30
HETATM   30  C   UNL     1     -17.426 -16.507   1.393  1.00  0.00     0.198 C 
BRANCH  30  31
HETATM   31  O   UNL     1     -18.204 -15.683   2.251  1.00  0.00    -0.398 OA
HETATM   32  H   UNL     1     -18.581 -14.978   1.697  1.00  0.00     0.209 HD
ENDBRANCH  30  31
ENDBRANCH  22  30
ENDBRANCH  15  18
BRANCH  14  33
HETATM   33  O   UNL     1     -17.745 -11.947  -0.458  1.00  0.00    -0.359 OA
HETATM   34  H   UNL     1     -18.727 -12.026  -0.511  1.00  0.00     0.217 HD
ENDBRANCH  14  33
BRANCH  16  35
HETATM   35  O   UNL     1     -14.555 -13.688  -3.584  1.00  0.00    -0.357 OA
HETATM   36  H   UNL     1     -14.514 -13.729  -4.558  1.00  0.00     0.217 HD
ENDBRANCH  16  35
BRANCH  17  37
HETATM   37  O   UNL     1     -15.398 -11.943  -5.410  1.00  0.00    -0.357 OA
HETATM   38  H   UNL     1     -14.469 -11.691  -5.242  1.00  0.00     0.217 HD
ENDBRANCH  17  37
BRANCH   7  39
HETATM   39  C   UNL     1     -22.115  -6.501  -3.785  1.00  0.00     0.179 C 
HETATM   40  O   UNL     1     -22.325  -5.933  -2.722  1.00  0.00    -0.646 OA
BRANCH  39  41
HETATM   41  O   UNL     1     -22.949  -6.308  -4.820  1.00  0.00    -0.773 OA
HETATM   42  H   UNL     1     -23.173  -7.136  -5.295  1.00  0.00     0.167 HD
ENDBRANCH  39  41
ENDBRANCH   7  39
BRANCH   6  43
HETATM   43  O   UNL     1     -20.625  -6.533  -6.261  1.00  0.00    -0.360 OA
HETATM   44  H   UNL     1     -20.223  -5.661  -6.075  1.00  0.00     0.217 HD
ENDBRANCH   6  43
TORSDOF 12
ENDMDL
MODEL 7
REMARK VINA RESULT:      -6.2     20.202     23.885
REMARK  12 active torsions:
REMARK  status: ('A' for Active; 'I' for Inactive)
REMARK    1  A    between atoms: C_6  and  O_11 
REMARK    2  A    between atoms: C_7  and  C_8 
REMARK    3  A    between atoms: C_8  and  O_10 
REMARK    4  A    between atoms: C_18  and  O_35 
REMARK    5  A    between atoms: C_19  and  C_24 
REMARK    6  A    between atoms: C_20  and  O_23 
REMARK    7  A    between atoms: C_21  and  O_22 
REMARK    8  A    between atoms: C_25  and  O_34 
REMARK    9  A    between atoms: C_26  and  O_33 
REMARK   10  A    between atoms: C_27  and  O_32 
REMARK   11  A    between atoms: C_28  and  C_30 
REMARK   12  A    between atoms: C_30  and  O_31 
ROOT
HETATM    1  C   UNL     1     -27.617   7.761  -3.306  1.00  0.00     0.050 C 
HETATM    2  C   UNL     1     -26.175   8.004  -2.891  1.00  0.00    -0.027 A 
HETATM    3  C   UNL     1     -25.800   8.394  -1.563  1.00  0.00     0.036 A 
HETATM    4  C   UNL     1     -24.458   8.604  -1.229  1.00  0.00     0.032 A 
HETATM    5  C   UNL     1     -23.467   8.450  -2.204  1.00  0.00     0.054 A 
HETATM    6  C   UNL     1     -23.815   8.080  -3.503  1.00  0.00     0.084 A 
HETATM    7  C   UNL     1     -25.153   7.844  -3.881  1.00  0.00     0.077 A 
HETATM    8  C   UNL     1     -24.012   8.991   0.144  1.00  0.00     0.197 A 
HETATM    9  O   UNL     1     -22.813   9.136   0.333  1.00  0.00    -0.286 OA
HETATM   10  C   UNL     1     -25.012   9.198   1.213  1.00  0.00     0.068 A 
HETATM   11  C   UNL     1     -26.343   9.036   0.875  1.00  0.00     0.066 A 
HETATM   12  C   UNL     1     -26.769   8.577  -0.462  1.00  0.00     0.197 A 
HETATM   13  O   UNL     1     -27.961   8.328  -0.602  1.00  0.00    -0.286 OA
HETATM   14  C   UNL     1     -27.318   9.264   1.851  1.00  0.00     0.092 A 
HETATM   15  C   UNL     1     -27.027   9.565   3.209  1.00  0.00     0.043 A 
HETATM   16  C   UNL     1     -25.691   9.722   3.536  1.00  0.00     0.111 A 
HETATM   17  C   UNL     1     -24.695   9.552   2.540  1.00  0.00     0.115 A 
ENDROOT
BRANCH  15  18
HETATM   18  C   UNL     1     -28.273   9.585   4.078  1.00  0.00     0.192 C 
HETATM   19  C   UNL     1     -28.396   8.233   4.837  1.00  0.00     0.183 C 
HETATM   20  C   UNL     1     -29.898   7.976   4.963  1.00  0.00     0.181 C 
HETATM   21  C   UNL     1     -30.587   9.132   5.705  1.00  0.00     0.180 C 
HETATM   22  C   UNL     1     -30.191  10.500   5.079  1.00  0.00     0.177 C 
HETATM   23  O   UNL     1     -28.711  10.648   4.971  1.00  0.00    -0.368 OA
BRANCH  19  24
HETATM   24  O   UNL     1     -27.732   8.265   6.111  1.00  0.00    -0.390 OA
HETATM   25  H   UNL     1     -27.621   7.350   6.414  1.00  0.00     0.210 HD
ENDBRANCH  19  24
BRANCH  20  26
HETATM   26  O   UNL     1     -30.145   6.727   5.601  1.00  0.00    -0.390 OA
HETATM   27  H   UNL     1     -30.026   6.897   6.555  1.00  0.00     0.210 HD
ENDBRANCH  20  26
BRANCH  21  28
HETATM   28  O   UNL     1     -30.260   9.056   7.101  1.00  0.00    -0.390 OA
HETATM   29  H   UNL     1     -30.161   8.128   7.369  1.00  0.00     0.210 HD
ENDBRANCH  21  28
BRANCH  22  30
HETATM   30  C   UNL     1     -30.859  11.658   5.828  1.00  0.00     0.198 C 
BRANCH  30  31
HETATM   31  O   UNL     1     -32.102  11.243   6.380  1.00  0.00    -0.398 OA
HETATM   32  H   UNL     1     -31.983  11.211   7.345  1.00  0.00     0.209 HD
ENDBRANCH  30  31
ENDBRANCH  22  30
ENDBRANCH  15  18
BRANCH  14  33
HETATM   33  O   UNL     1     -28.663   9.185   1.530  1.00  0.00    -0.359 OA
HETATM   34  H   UNL     1     -28.762   8.818   0.620  1.00  0.00     0.217 HD
ENDBRANCH  14  33
BRANCH  16  35
HETATM   35  O   UNL     1     -25.258  10.044   4.793  1.00  0.00    -0.357 OA
HETATM   36  H   UNL     1     -25.998   9.931   5.419  1.00  0.00     0.217 HD
ENDBRANCH  16  35
BRANCH  17  37
HETATM   37  O   UNL     1     -23.390   9.729   2.921  1.00  0.00    -0.357 OA
HETATM   38  H   UNL     1     -22.990  10.343   2.274  1.00  0.00     0.217 HD
ENDBRANCH  17  37
BRANCH   7  39
HETATM   39  C   UNL     1     -25.495   7.441  -5.307  1.00  0.00     0.179 C 
HETATM   40  O   UNL     1     -25.987   8.190  -6.141  1.00  0.00    -0.646 OA
BRANCH  39  41
HETATM   41  O   UNL     1     -25.226   6.167  -5.633  1.00  0.00    -0.773 OA
HETATM   42  H   UNL     1     -24.461   6.077  -6.240  1.00  0.00     0.167 HD
ENDBRANCH  39  41
ENDBRANCH   7  39
BRANCH   6  43
HETATM   43  O   UNL     1     -22.795   7.956  -4.415  1.00  0.00    -0.360 OA
HETATM   44  H   UNL     1     -23.032   8.443  -5.230  1.00  0.00     0.217 HD
ENDBRANCH   6  43
TORSDOF 12
ENDMDL
MODEL 8
REMARK VINA RESULT:      -6.1     20.309     22.704
REMARK  12 active torsions:
REMARK  status: ('A' for Active; 'I' for Inactive)
REMARK    1  A    between atoms: C_6  and  O_11 
REMARK    2  A    between atoms: C_7  and  C_8 
REMARK    3  A    between atoms: C_8  and  O_10 
REMARK    4  A    between atoms: C_18  and  O_35 
REMARK    5  A    between atoms: C_19  and  C_24 
REMARK    6  A    between atoms: C_20  and  O_23 
REMARK    7  A    between atoms: C_21  and  O_22 
REMARK    8  A    between atoms: C_25  and  O_34 
REMARK    9  A    between atoms: C_26  and  O_33 
REMARK   10  A    between atoms: C_27  and  O_32 
REMARK   11  A    between atoms: C_28  and  C_30 
REMARK   12  A    between atoms: C_30  and  O_31 
ROOT
HETATM    1  C   UNL     1     -24.181   7.827  -2.431  1.00  0.00     0.050 C 
HETATM    2  C   UNL     1     -25.416   8.134  -1.600  1.00  0.00    -0.027 A 
HETATM    3  C   UNL     1     -25.350   8.619  -0.252  1.00  0.00     0.036 A 
HETATM    4  C   UNL     1     -26.516   8.888   0.473  1.00  0.00     0.032 A 
HETATM    5  C   UNL     1     -27.765   8.668  -0.116  1.00  0.00     0.054 A 
HETATM    6  C   UNL     1     -27.849   8.189  -1.423  1.00  0.00     0.084 A 
HETATM    7  C   UNL     1     -26.701   7.917  -2.195  1.00  0.00     0.077 A 
HETATM    8  C   UNL     1     -26.502   9.414   1.872  1.00  0.00     0.197 A 
HETATM    9  O   UNL     1     -27.578   9.629   2.409  1.00  0.00    -0.286 OA
HETATM   10  C   UNL     1     -25.214   9.640   2.561  1.00  0.00     0.068 A 
HETATM   11  C   UNL     1     -24.060   9.330   1.865  1.00  0.00     0.066 A 
HETATM   12  C   UNL     1     -24.080   8.888   0.457  1.00  0.00     0.197 A 
HETATM   13  O   UNL     1     -22.995   8.785  -0.101  1.00  0.00    -0.286 OA
HETATM   14  C   UNL     1     -22.826   9.495   2.502  1.00  0.00     0.092 A 
HETATM   15  C   UNL     1     -22.670  10.052   3.800  1.00  0.00     0.043 A 
HETATM   16  C   UNL     1     -23.832  10.359   4.486  1.00  0.00     0.111 A 
HETATM   17  C   UNL     1     -25.093  10.142   3.873  1.00  0.00     0.115 A 
ENDROOT
BRANCH  15  18
HETATM   18  C   UNL     1     -21.211  10.273   4.163  1.00  0.00     0.192 C 
HETATM   19  C   UNL     1     -20.762   9.185   5.181  1.00  0.00     0.183 C 
HETATM   20  C   UNL     1     -19.736   9.874   6.082  1.00  0.00     0.181 C 
HETATM   21  C   UNL     1     -18.565  10.421   5.251  1.00  0.00     0.180 C 
HETATM   22  C   UNL     1     -19.088  11.271   4.057  1.00  0.00     0.177 C 
HETATM   23  O   UNL     1     -20.102  10.529   3.256  1.00  0.00    -0.368 OA
BRANCH  19  24
HETATM   24  O   UNL     1     -20.232   8.019   4.531  1.00  0.00    -0.390 OA
HETATM   25  H   UNL     1     -19.532   7.654   5.094  1.00  0.00     0.210 HD
ENDBRANCH  19  24
BRANCH  20  26
HETATM   26  O   UNL     1     -19.283   8.988   7.101  1.00  0.00    -0.390 OA
HETATM   27  H   UNL     1     -19.156   9.549   7.890  1.00  0.00     0.210 HD
ENDBRANCH  20  26
BRANCH  21  28
HETATM   28  O   UNL     1     -17.741   9.326   4.821  1.00  0.00    -0.390 OA
HETATM   29  H   UNL     1     -16.896   9.339   5.299  1.00  0.00     0.210 HD
ENDBRANCH  21  28
BRANCH  22  30
HETATM   30  C   UNL     1     -17.924  11.802   3.213  1.00  0.00     0.198 C 
BRANCH  30  31
HETATM   31  O   UNL     1     -17.424  10.785   2.356  1.00  0.00    -0.398 OA
HETATM   32  H   UNL     1     -18.047  10.040   2.411  1.00  0.00     0.209 HD
ENDBRANCH  30  31
ENDBRANCH  22  30
ENDBRANCH  15  18
BRANCH  14  33
HETATM   33  O   UNL     1     -21.654   9.125   1.863  1.00  0.00    -0.359 OA
HETATM   34  H   UNL     1     -21.863   8.796   0.957  1.00  0.00     0.217 HD
ENDBRANCH  14  33
BRANCH  16  35
HETATM   35  O   UNL     1     -23.843  10.871   5.754  1.00  0.00    -0.357 OA
HETATM   36  H   UNL     1     -22.938  11.152   5.987  1.00  0.00     0.217 HD
ENDBRANCH  16  35
BRANCH  17  37
HETATM   37  O   UNL     1     -26.208  10.457   4.605  1.00  0.00    -0.357 OA
HETATM   38  H   UNL     1     -26.927  10.620   3.963  1.00  0.00     0.217 HD
ENDBRANCH  17  37
BRANCH   7  39
HETATM   39  C   UNL     1     -26.829   7.395  -3.618  1.00  0.00     0.179 C 
HETATM   40  O   UNL     1     -26.410   6.311  -4.001  1.00  0.00    -0.646 OA
BRANCH  39  41
HETATM   41  O   UNL     1     -27.449   8.213  -4.485  1.00  0.00    -0.773 OA
HETATM   42  H   UNL     1     -27.995   8.898  -4.044  1.00  0.00     0.167 HD
ENDBRANCH  39  41
ENDBRANCH   7  39
BRANCH   6  43
HETATM   43  O   UNL     1     -29.106   7.985  -1.938  1.00  0.00    -0.360 OA
HETATM   44  H   UNL     1     -29.771   8.172  -1.246  1.00  0.00     0.217 HD
ENDBRANCH   6  43
TORSDOF 12
ENDMDL
MODEL 9
REMARK VINA RESULT:      -6.1      3.327      4.762
REMARK  12 active torsions:
REMARK  status: ('A' for Active; 'I' for Inactive)
REMARK    1  A    between atoms: C_6  and  O_11 
REMARK    2  A    between atoms: C_7  and  C_8 
REMARK    3  A    between atoms: C_8  and  O_10 
REMARK    4  A    between atoms: C_18  and  O_35 
REMARK    5  A    between atoms: C_19  and  C_24 
REMARK    6  A    between atoms: C_20  and  O_23 
REMARK    7  A    between atoms: C_21  and  O_22 
REMARK    8  A    between atoms: C_25  and  O_34 
REMARK    9  A    between atoms: C_26  and  O_33 
REMARK   10  A    between atoms: C_27  and  O_32 
REMARK   11  A    between atoms: C_28  and  C_30 
REMARK   12  A    between atoms: C_30  and  O_31 
ROOT
HETATM    1  C   UNL     1     -21.517  -8.349  -1.558  1.00  0.00     0.050 C 
HETATM    2  C   UNL     1     -20.638  -8.478  -2.791  1.00  0.00    -0.027 A 
HETATM    3  C   UNL     1     -19.563  -9.422  -2.889  1.00  0.00     0.036 A 
HETATM    4  C   UNL     1     -18.782  -9.504  -4.048  1.00  0.00     0.032 A 
HETATM    5  C   UNL     1     -19.039  -8.644  -5.120  1.00  0.00     0.054 A 
HETATM    6  C   UNL     1     -20.075  -7.714  -5.039  1.00  0.00     0.084 A 
HETATM    7  C   UNL     1     -20.895  -7.606  -3.897  1.00  0.00     0.077 A 
HETATM    8  C   UNL     1     -17.665 -10.483  -4.208  1.00  0.00     0.197 A 
HETATM    9  O   UNL     1     -17.054 -10.481  -5.267  1.00  0.00    -0.286 OA
HETATM   10  C   UNL     1     -17.323 -11.400  -3.100  1.00  0.00     0.068 A 
HETATM   11  C   UNL     1     -18.062 -11.290  -1.937  1.00  0.00     0.066 A 
HETATM   12  C   UNL     1     -19.214 -10.376  -1.815  1.00  0.00     0.197 A 
HETATM   13  O   UNL     1     -19.884 -10.471  -0.793  1.00  0.00    -0.286 OA
HETATM   14  C   UNL     1     -17.739 -12.115  -0.854  1.00  0.00     0.092 A 
HETATM   15  C   UNL     1     -16.750 -13.135  -0.900  1.00  0.00     0.043 A 
HETATM   16  C   UNL     1     -16.018 -13.236  -2.071  1.00  0.00     0.111 A 
HETATM   17  C   UNL     1     -16.296 -12.366  -3.155  1.00  0.00     0.115 A 
ENDROOT
BRANCH  15  18
HETATM   18  C   UNL     1     -16.738 -13.986   0.358  1.00  0.00     0.192 C 
HETATM   19  C   UNL     1     -17.405 -15.359   0.059  1.00  0.00     0.183 C 
HETATM   20  C   UNL     1     -18.096 -15.765   1.362  1.00  0.00     0.181 C 
HETATM   21  C   UNL     1     -17.081 -15.842   2.513  1.00  0.00     0.180 C 
HETATM   22  C   UNL     1     -16.228 -14.543   2.582  1.00  0.00     0.177 C 
HETATM   23  O   UNL     1     -15.620 -14.214   1.262  1.00  0.00    -0.368 OA
BRANCH  19  24
HETATM   24  O   UNL     1     -16.455 -16.338  -0.390  1.00  0.00    -0.390 OA
HETATM   25  H   UNL     1     -16.775 -16.705  -1.228  1.00  0.00     0.210 HD
ENDBRANCH  19  24
BRANCH  20  26
HETATM   26  O   UNL     1     -18.796 -16.994   1.201  1.00  0.00    -0.390 OA
HETATM   27  H   UNL     1     -18.180 -17.684   1.513  1.00  0.00     0.210 HD
ENDBRANCH  20  26
BRANCH  21  28
HETATM   28  O   UNL     1     -16.272 -17.017   2.349  1.00  0.00    -0.390 OA
HETATM   29  H   UNL     1     -15.636 -16.885   1.628  1.00  0.00     0.210 HD
ENDBRANCH  21  28
BRANCH  22  30
HETATM   30  C   UNL     1     -15.200 -14.624   3.717  1.00  0.00     0.198 C 
BRANCH  30  31
HETATM   31  O   UNL     1     -14.083 -15.410   3.323  1.00  0.00    -0.398 OA
HETATM   32  H   UNL     1     -14.439 -16.202   2.884  1.00  0.00     0.209 HD
ENDBRANCH  30  31
ENDBRANCH  22  30
ENDBRANCH  15  18
BRANCH  14  33
HETATM   33  O   UNL     1     -18.407 -11.983   0.351  1.00  0.00    -0.359 OA
HETATM   34  H   UNL     1     -17.895 -11.386   0.947  1.00  0.00     0.217 HD
ENDBRANCH  14  33
BRANCH  16  35
HETATM   35  O   UNL     1     -15.013 -14.146  -2.252  1.00  0.00    -0.357 OA
HETATM   36  H   UNL     1     -14.434 -13.835  -2.973  1.00  0.00     0.217 HD
ENDBRANCH  16  35
BRANCH  17  37
HETATM   37  O   UNL     1     -15.533 -12.507  -4.285  1.00  0.00    -0.357 OA
HETATM   38  H   UNL     1     -16.011 -12.051  -5.005  1.00  0.00     0.217 HD
ENDBRANCH  17  37
BRANCH   7  39
HETATM   39  C   UNL     1     -22.017  -6.579  -3.844  1.00  0.00     0.179 C 
HETATM   40  O   UNL     1     -22.319  -5.933  -2.850  1.00  0.00    -0.646 OA
BRANCH  39  41
HETATM   41  O   UNL     1     -22.700  -6.402  -4.987  1.00  0.00    -0.773 OA
HETATM   42  H   UNL     1     -23.630  -6.709  -4.931  1.00  0.00     0.167 HD
ENDBRANCH  39  41
ENDBRANCH   7  39
BRANCH   6  43
HETATM   43  O   UNL     1     -20.268  -6.892  -6.123  1.00  0.00    -0.360 OA
HETATM   44  H   UNL     1     -20.916  -7.306  -6.728  1.00  0.00     0.217 HD
ENDBRANCH   6  43
TORSDOF 12
ENDMDL
