MODEL 1
REMARK VINA RESULT:      -5.9      0.000      0.000
REMARK  8 active torsions:
REMARK  status: ('A' for Active; 'I' for Inactive)
REMARK    1  A    between atoms: C_3  and  O_23 
REMARK    2  A    between atoms: C_5  and  O_10 
REMARK    3  A    between atoms: O_10  and  C_11 
REMARK    4  A    between atoms: C_12  and  O_22 
REMARK    5  A    between atoms: C_13  and  O_20 
REMARK    6  A    between atoms: C_14  and  O_19 
REMARK    7  A    between atoms: C_15  and  C_17 
REMARK    8  A    between atoms: C_17  and  O_18 
ROOT
HETATM    1  C   UNL     1     -21.103  -7.972  -4.955  1.00  0.00     0.292 C 
HETATM    2  C   UNL     1     -20.364  -8.039  -3.602  1.00  0.00     0.204 C 
HETATM    3  C   UNL     1     -19.174  -9.005  -3.774  1.00  0.00     0.185 C 
HETATM    4  C   UNL     1     -19.711 -10.394  -4.196  1.00  0.00     0.180 C 
HETATM    5  C   UNL     1     -20.519 -10.241  -5.505  1.00  0.00     0.179 C 
HETATM    6  O   UNL     1     -21.579  -9.281  -5.332  1.00  0.00    -0.348 OA
ENDROOT
BRANCH   1   7
HETATM    7  O   UNL     1     -20.277  -7.422  -5.998  1.00  0.00    -0.348 OA
BRANCH   7   8
HETATM    8  C   UNL     1     -20.954  -6.509  -6.875  1.00  0.00     0.187 C 
HETATM    9  C   UNL     1     -21.689  -5.379  -6.117  1.00  0.00     0.184 C 
HETATM   10  C   UNL     1     -22.431  -4.413  -7.100  1.00  0.00     0.178 C 
HETATM   11  O   UNL     1     -20.605  -4.607  -5.553  1.00  0.00    -0.378 OA
HETATM   12  C   UNL     1     -22.097  -4.802  -8.555  1.00  0.00     0.149 C 
HETATM   13  C   UNL     1     -22.628  -3.845  -9.606  1.00  0.00     0.042 C 
HETATM   14  O   UNL     1     -20.673  -4.927  -8.720  1.00  0.00    -0.373 OA
HETATM   15  C   UNL     1     -19.993  -5.617  -7.644  1.00  0.00     0.177 C 
HETATM   16  C   UNL     1     -19.541  -4.654  -6.538  1.00  0.00     0.203 C 
BRANCH  10  17
HETATM   17  O   UNL     1     -23.834  -4.371  -6.836  1.00  0.00    -0.390 OA
HETATM   18  H   UNL     1     -24.249  -3.662  -7.349  1.00  0.00     0.210 HD
ENDBRANCH  10  17
ENDBRANCH   7   8
ENDBRANCH   1   7
BRANCH   2  19
HETATM   19  O   UNL     1     -21.261  -8.421  -2.549  1.00  0.00    -0.388 OA
HETATM   20  H   UNL     1     -22.171  -8.262  -2.882  1.00  0.00     0.210 HD
ENDBRANCH   2  19
BRANCH   3  21
HETATM   21  O   UNL     1     -18.379  -9.126  -2.582  1.00  0.00    -0.385 OA
HETATM   22  C   UNL     1     -17.054  -9.582  -2.832  1.00  0.00     0.202 C 
ENDBRANCH   3  21
BRANCH   5  23
HETATM   23  C   UNL     1     -21.149 -11.570  -5.956  1.00  0.00     0.198 C 
BRANCH  23  24
HETATM   24  O   UNL     1     -22.274 -11.895  -5.140  1.00  0.00    -0.398 OA
HETATM   25  H   UNL     1     -23.052 -11.851  -5.730  1.00  0.00     0.209 HD
ENDBRANCH  23  24
ENDBRANCH   5  23
BRANCH   4  26
HETATM   26  O   UNL     1     -20.519 -10.918  -3.120  1.00  0.00    -0.390 OA
HETATM   27  H   UNL     1     -21.421 -10.556  -3.180  1.00  0.00     0.210 HD
ENDBRANCH   4  26
TORSDOF 8
ENDMDL
MODEL 2
REMARK VINA RESULT:      -5.3      2.162      7.206
REMARK  8 active torsions:
REMARK  status: ('A' for Active; 'I' for Inactive)
REMARK    1  A    between atoms: C_3  and  O_23 
REMARK    2  A    between atoms: C_5  and  O_10 
REMARK    3  A    between atoms: O_10  and  C_11 
REMARK    4  A    between atoms: C_12  and  O_22 
REMARK    5  A    between atoms: C_13  and  O_20 
REMARK    6  A    between atoms: C_14  and  O_19 
REMARK    7  A    between atoms: C_15  and  C_17 
REMARK    8  A    between atoms: C_17  and  O_18 
ROOT
HETATM    1  C   UNL     1     -19.845  -9.313  -3.848  1.00  0.00     0.292 C 
HETATM    2  C   UNL     1     -20.119  -8.810  -5.280  1.00  0.00     0.204 C 
HETATM    3  C   UNL     1     -20.101  -7.268  -5.238  1.00  0.00     0.185 C 
HETATM    4  C   UNL     1     -21.186  -6.780  -4.248  1.00  0.00     0.180 C 
HETATM    5  C   UNL     1     -20.907  -7.394  -2.857  1.00  0.00     0.179 C 
HETATM    6  O   UNL     1     -20.861  -8.832  -2.944  1.00  0.00    -0.348 OA
ENDROOT
BRANCH   1   7
HETATM    7  O   UNL     1     -18.538  -8.932  -3.379  1.00  0.00    -0.348 OA
BRANCH   7   8
HETATM    8  C   UNL     1     -17.799  -9.990  -2.748  1.00  0.00     0.187 C 
HETATM    9  C   UNL     1     -17.771 -11.288  -3.588  1.00  0.00     0.184 C 
HETATM   10  C   UNL     1     -16.975 -12.425  -2.866  1.00  0.00     0.178 C 
HETATM   11  O   UNL     1     -16.972 -10.916  -4.734  1.00  0.00    -0.378 OA
HETATM   12  C   UNL     1     -16.336 -11.868  -1.577  1.00  0.00     0.149 C 
HETATM   13  C   UNL     1     -15.403 -12.830  -0.864  1.00  0.00     0.042 C 
HETATM   14  O   UNL     1     -15.618 -10.655  -1.865  1.00  0.00    -0.373 OA
HETATM   15  C   UNL     1     -16.301  -9.737  -2.753  1.00  0.00     0.177 C 
HETATM   16  C   UNL     1     -15.964 -10.005  -4.226  1.00  0.00     0.203 C 
BRANCH  10  17
HETATM   17  O   UNL     1     -17.790 -13.575  -2.639  1.00  0.00    -0.390 OA
HETATM   18  H   UNL     1     -18.171 -13.883  -3.475  1.00  0.00     0.210 HD
ENDBRANCH  10  17
ENDBRANCH   7   8
ENDBRANCH   1   7
BRANCH   2  19
HETATM   19  O   UNL     1     -21.347  -9.352  -5.786  1.00  0.00    -0.388 OA
HETATM   20  H   UNL     1     -21.104  -9.984  -6.498  1.00  0.00     0.210 HD
ENDBRANCH   2  19
BRANCH   3  21
HETATM   21  O   UNL     1     -20.310  -6.673  -6.531  1.00  0.00    -0.385 OA
HETATM   22  C   UNL     1     -20.012  -5.281  -6.565  1.00  0.00     0.202 C 
ENDBRANCH   3  21
BRANCH   5  23
HETATM   23  C   UNL     1     -21.986  -7.014  -1.829  1.00  0.00     0.198 C 
BRANCH  23  24
HETATM   24  O   UNL     1     -22.613  -5.784  -2.189  1.00  0.00    -0.398 OA
HETATM   25  H   UNL     1     -23.461  -5.764  -1.703  1.00  0.00     0.209 HD
ENDBRANCH  23  24
ENDBRANCH   5  23
BRANCH   4  26
HETATM   26  O   UNL     1     -22.479  -7.165  -4.761  1.00  0.00    -0.390 OA
HETATM   27  H   UNL     1     -22.486  -7.081  -5.731  1.00  0.00     0.210 HD
ENDBRANCH   4  26
TORSDOF 8
ENDMDL
MODEL 3
REMARK VINA RESULT:      -5.2      3.484      6.190
REMARK  8 active torsions:
REMARK  status: ('A' for Active; 'I' for Inactive)
REMARK    1  A    between atoms: C_3  and  O_23 
REMARK    2  A    between atoms: C_5  and  O_10 
REMARK    3  A    between atoms: O_10  and  C_11 
REMARK    4  A    between atoms: C_12  and  O_22 
REMARK    5  A    between atoms: C_13  and  O_20 
REMARK    6  A    between atoms: C_14  and  O_19 
REMARK    7  A    between atoms: C_15  and  C_17 
REMARK    8  A    between atoms: C_17  and  O_18 
ROOT
HETATM    1  C   UNL     1     -20.302  -9.768  -1.470  1.00  0.00     0.292 C 
HETATM    2  C   UNL     1     -21.063 -10.621  -0.435  1.00  0.00     0.204 C 
HETATM    3  C   UNL     1     -22.566 -10.316  -0.603  1.00  0.00     0.185 C 
HETATM    4  C   UNL     1     -22.801  -8.804  -0.376  1.00  0.00     0.180 C 
HETATM    5  C   UNL     1     -21.940  -8.006  -1.381  1.00  0.00     0.179 C 
HETATM    6  O   UNL     1     -20.550  -8.364  -1.246  1.00  0.00    -0.348 OA
ENDROOT
BRANCH   1   7
HETATM    7  O   UNL     1     -20.642 -10.124  -2.823  1.00  0.00    -0.348 OA
BRANCH   7   8
HETATM    8  C   UNL     1     -19.515 -10.427  -3.661  1.00  0.00     0.187 C 
HETATM    9  C   UNL     1     -19.920 -10.765  -5.115  1.00  0.00     0.184 C 
HETATM   10  C   UNL     1     -18.672 -11.107  -5.996  1.00  0.00     0.178 C 
HETATM   11  O   UNL     1     -20.419  -9.504  -5.615  1.00  0.00    -0.378 OA
HETATM   12  C   UNL     1     -17.385 -10.875  -5.179  1.00  0.00     0.149 C 
HETATM   13  C   UNL     1     -16.097 -11.018  -5.968  1.00  0.00     0.042 C 
HETATM   14  O   UNL     1     -17.412  -9.571  -4.571  1.00  0.00    -0.373 OA
HETATM   15  C   UNL     1     -18.683  -9.197  -3.985  1.00  0.00     0.177 C 
HETATM   16  C   UNL     1     -19.594  -8.485  -4.994  1.00  0.00     0.203 C 
BRANCH  10  17
HETATM   17  O   UNL     1     -18.762 -12.422  -6.545  1.00  0.00    -0.390 OA
HETATM   18  H   UNL     1     -19.669 -12.754  -6.469  1.00  0.00     0.210 HD
ENDBRANCH  10  17
ENDBRANCH   7   8
ENDBRANCH   1   7
BRANCH   2  19
HETATM   19  O   UNL     1     -20.576 -10.369   0.891  1.00  0.00    -0.388 OA
HETATM   20  H   UNL     1     -19.596 -10.385   0.839  1.00  0.00     0.210 HD
ENDBRANCH   2  19
BRANCH   3  21
HETATM   21  O   UNL     1     -23.393 -11.083   0.289  1.00  0.00    -0.385 OA
HETATM   22  C   UNL     1     -23.340 -12.484   0.043  1.00  0.00     0.202 C 
ENDBRANCH   3  21
BRANCH   5  23
HETATM   23  C   UNL     1     -22.062  -6.487  -1.172  1.00  0.00     0.198 C 
BRANCH  23  24
HETATM   24  O   UNL     1     -22.700  -5.876  -2.291  1.00  0.00    -0.398 OA
HETATM   25  H   UNL     1     -22.344  -4.967  -2.338  1.00  0.00     0.209 HD
ENDBRANCH  23  24
ENDBRANCH   5  23
BRANCH   4  26
HETATM   26  O   UNL     1     -22.466  -8.490   0.993  1.00  0.00    -0.390 OA
HETATM   27  H   UNL     1     -22.427  -9.310   1.518  1.00  0.00     0.210 HD
ENDBRANCH   4  26
TORSDOF 8
ENDMDL
MODEL 4
REMARK VINA RESULT:      -5.2      3.408      7.446
REMARK  8 active torsions:
REMARK  status: ('A' for Active; 'I' for Inactive)
REMARK    1  A    between atoms: C_3  and  O_23 
REMARK    2  A    between atoms: C_5  and  O_10 
REMARK    3  A    between atoms: O_10  and  C_11 
REMARK    4  A    between atoms: C_12  and  O_22 
REMARK    5  A    between atoms: C_13  and  O_20 
REMARK    6  A    between atoms: C_14  and  O_19 
REMARK    7  A    between atoms: C_15  and  C_17 
REMARK    8  A    between atoms: C_17  and  O_18 
ROOT
HETATM    1  C   UNL     1     -21.351 -10.078  -3.725  1.00  0.00     0.292 C 
HETATM    2  C   UNL     1     -20.471 -10.310  -4.970  1.00  0.00     0.204 C 
HETATM    3  C   UNL     1     -19.346  -9.255  -4.942  1.00  0.00     0.185 C 
HETATM    4  C   UNL     1     -19.981  -7.844  -4.952  1.00  0.00     0.180 C 
HETATM    5  C   UNL     1     -20.922  -7.709  -3.733  1.00  0.00     0.179 C 
HETATM    6  O   UNL     1     -21.918  -8.751  -3.751  1.00  0.00    -0.348 OA
ENDROOT
BRANCH   1   7
HETATM    7  O   UNL     1     -20.626 -10.286  -2.499  1.00  0.00    -0.348 OA
BRANCH   7   8
HETATM    8  C   UNL     1     -21.295 -11.126  -1.545  1.00  0.00     0.187 C 
HETATM    9  C   UNL     1     -20.355 -11.633  -0.426  1.00  0.00     0.184 C 
HETATM   10  C   UNL     1     -21.110 -12.559   0.585  1.00  0.00     0.178 C 
HETATM   11  O   UNL     1     -20.040 -10.427   0.306  1.00  0.00    -0.378 OA
HETATM   12  C   UNL     1     -22.613 -12.584   0.237  1.00  0.00     0.149 C 
HETATM   13  C   UNL     1     -23.484 -13.320   1.238  1.00  0.00     0.042 C 
HETATM   14  O   UNL     1     -23.110 -11.242   0.090  1.00  0.00    -0.373 OA
HETATM   15  C   UNL     1     -22.243 -10.348  -0.648  1.00  0.00     0.177 C 
HETATM   16  C   UNL     1     -21.248  -9.624   0.270  1.00  0.00     0.203 C 
BRANCH  10  17
HETATM   17  O   UNL     1     -20.523 -13.859   0.646  1.00  0.00    -0.390 OA
HETATM   18  H   UNL     1     -20.886 -14.422  -0.054  1.00  0.00     0.210 HD
ENDBRANCH  10  17
ENDBRANCH   7   8
ENDBRANCH   1   7
BRANCH   2  19
HETATM   19  O   UNL     1     -21.260 -10.272  -6.167  1.00  0.00    -0.388 OA
HETATM   20  H   UNL     1     -21.384  -9.324  -6.393  1.00  0.00     0.210 HD
ENDBRANCH   2  19
BRANCH   3  21
HETATM   21  O   UNL     1     -18.429  -9.390  -6.041  1.00  0.00    -0.385 OA
HETATM   22  C   UNL     1     -17.724 -10.627  -6.038  1.00  0.00     0.202 C 
ENDBRANCH   3  21
BRANCH   5  23
HETATM   23  C   UNL     1     -21.651  -6.355  -3.710  1.00  0.00     0.198 C 
BRANCH  23  24
HETATM   24  O   UNL     1     -22.643  -6.300  -4.732  1.00  0.00    -0.398 OA
HETATM   25  H   UNL     1     -23.336  -6.937  -4.467  1.00  0.00     0.209 HD
ENDBRANCH  23  24
ENDBRANCH   5  23
BRANCH   4  26
HETATM   26  O   UNL     1     -20.684  -7.668  -6.201  1.00  0.00    -0.390 OA
HETATM   27  H   UNL     1     -20.597  -8.472  -6.743  1.00  0.00     0.210 HD
ENDBRANCH   4  26
TORSDOF 8
ENDMDL
MODEL 5
REMARK VINA RESULT:      -5.1      4.464      6.719
REMARK  8 active torsions:
REMARK  status: ('A' for Active; 'I' for Inactive)
REMARK    1  A    between atoms: C_3  and  O_23 
REMARK    2  A    between atoms: C_5  and  O_10 
REMARK    3  A    between atoms: O_10  and  C_11 
REMARK    4  A    between atoms: C_12  and  O_22 
REMARK    5  A    between atoms: C_13  and  O_20 
REMARK    6  A    between atoms: C_14  and  O_19 
REMARK    7  A    between atoms: C_15  and  C_17 
REMARK    8  A    between atoms: C_17  and  O_18 
ROOT
HETATM    1  C   UNL     1     -20.306  -9.681  -1.146  1.00  0.00     0.292 C 
HETATM    2  C   UNL     1     -21.173 -10.510  -0.177  1.00  0.00     0.204 C 
HETATM    3  C   UNL     1     -22.649 -10.238  -0.532  1.00  0.00     0.185 C 
HETATM    4  C   UNL     1     -22.929  -8.723  -0.388  1.00  0.00     0.180 C 
HETATM    5  C   UNL     1     -21.965  -7.945  -1.313  1.00  0.00     0.179 C 
HETATM    6  O   UNL     1     -20.597  -8.274  -1.002  1.00  0.00    -0.348 OA
ENDROOT
BRANCH   1   7
HETATM    7  O   UNL     1     -20.479 -10.088  -2.516  1.00  0.00    -0.348 OA
BRANCH   7   8
HETATM    8  C   UNL     1     -19.295  -9.987  -3.322  1.00  0.00     0.187 C 
HETATM    9  C   UNL     1     -18.012 -10.395  -2.561  1.00  0.00     0.184 C 
HETATM   10  C   UNL     1     -16.739 -10.256  -3.461  1.00  0.00     0.178 C 
HETATM   11  O   UNL     1     -18.193 -11.814  -2.355  1.00  0.00    -0.378 OA
HETATM   12  C   UNL     1     -17.160  -9.876  -4.895  1.00  0.00     0.149 C 
HETATM   13  C   UNL     1     -16.031  -9.865  -5.908  1.00  0.00     0.042 C 
HETATM   14  O   UNL     1     -18.191 -10.766  -5.361  1.00  0.00    -0.373 OA
HETATM   15  C   UNL     1     -19.223 -11.065  -4.391  1.00  0.00     0.177 C 
HETATM   16  C   UNL     1     -18.875 -12.295  -3.542  1.00  0.00     0.203 C 
BRANCH  10  17
HETATM   17  O   UNL     1     -15.791  -9.352  -2.894  1.00  0.00    -0.390 OA
HETATM   18  H   UNL     1     -15.342  -9.767  -2.142  1.00  0.00     0.210 HD
ENDBRANCH  10  17
ENDBRANCH   7   8
ENDBRANCH   1   7
BRANCH   2  19
HETATM   19  O   UNL     1     -20.849 -10.206   1.186  1.00  0.00    -0.388 OA
HETATM   20  H   UNL     1     -21.701 -10.109   1.664  1.00  0.00     0.210 HD
ENDBRANCH   2  19
BRANCH   3  21
HETATM   21  O   UNL     1     -23.566 -10.988   0.284  1.00  0.00    -0.385 OA
HETATM   22  C   UNL     1     -23.423 -12.397   0.142  1.00  0.00     0.202 C 
ENDBRANCH   3  21
BRANCH   5  23
HETATM   23  C   UNL     1     -22.131  -6.422  -1.174  1.00  0.00     0.198 C 
BRANCH  23  24
HETATM   24  O   UNL     1     -22.705  -5.869  -2.357  1.00  0.00    -0.398 OA
HETATM   25  H   UNL     1     -22.942  -6.632  -2.921  1.00  0.00     0.209 HD
ENDBRANCH  23  24
ENDBRANCH   5  23
BRANCH   4  26
HETATM   26  O   UNL     1     -22.762  -8.357   0.999  1.00  0.00    -0.390 OA
HETATM   27  H   UNL     1     -23.611  -8.448   1.467  1.00  0.00     0.210 HD
ENDBRANCH   4  26
TORSDOF 8
ENDMDL
MODEL 6
REMARK VINA RESULT:      -5.0      4.288      6.397
REMARK  8 active torsions:
REMARK  status: ('A' for Active; 'I' for Inactive)
REMARK    1  A    between atoms: C_3  and  O_23 
REMARK    2  A    between atoms: C_5  and  O_10 
REMARK    3  A    between atoms: O_10  and  C_11 
REMARK    4  A    between atoms: C_12  and  O_22 
REMARK    5  A    between atoms: C_13  and  O_20 
REMARK    6  A    between atoms: C_14  and  O_19 
REMARK    7  A    between atoms: C_15  and  C_17 
REMARK    8  A    between atoms: C_17  and  O_18 
ROOT
HETATM    1  C   UNL     1     -18.462 -11.046  -3.052  1.00  0.00     0.292 C 
HETATM    2  C   UNL     1     -17.705 -11.928  -2.038  1.00  0.00     0.204 C 
HETATM    3  C   UNL     1     -16.444 -11.152  -1.604  1.00  0.00     0.185 C 
HETATM    4  C   UNL     1     -15.581 -10.856  -2.853  1.00  0.00     0.180 C 
HETATM    5  C   UNL     1     -16.426 -10.053  -3.867  1.00  0.00     0.179 C 
HETATM    6  O   UNL     1     -17.630 -10.773  -4.199  1.00  0.00    -0.348 OA
ENDROOT
BRANCH   1   7
HETATM    7  O   UNL     1     -18.922  -9.814  -2.465  1.00  0.00    -0.348 OA
BRANCH   7   8
HETATM    8  C   UNL     1     -20.179  -9.915  -1.778  1.00  0.00     0.187 C 
HETATM    9  C   UNL     1     -20.733  -8.541  -1.334  1.00  0.00     0.184 C 
HETATM   10  C   UNL     1     -22.093  -8.686  -0.573  1.00  0.00     0.178 C 
HETATM   11  O   UNL     1     -21.052  -7.898  -2.589  1.00  0.00    -0.378 OA
HETATM   12  C   UNL     1     -22.547 -10.159  -0.607  1.00  0.00     0.149 C 
HETATM   13  C   UNL     1     -23.932 -10.410  -0.041  1.00  0.00     0.042 C 
HETATM   14  O   UNL     1     -22.501 -10.661  -1.955  1.00  0.00    -0.373 OA
HETATM   15  C   UNL     1     -21.324 -10.281  -2.707  1.00  0.00     0.177 C 
HETATM   16  C   UNL     1     -21.524  -8.958  -3.459  1.00  0.00     0.203 C 
BRANCH  10  17
HETATM   17  O   UNL     1     -22.015  -8.151   0.748  1.00  0.00    -0.390 OA
HETATM   18  H   UNL     1     -21.597  -8.791   1.344  1.00  0.00     0.210 HD
ENDBRANCH  10  17
ENDBRANCH   7   8
ENDBRANCH   1   7
BRANCH   2  19
HETATM   19  O   UNL     1     -17.416 -13.217  -2.597  1.00  0.00    -0.388 OA
HETATM   20  H   UNL     1     -16.768 -13.072  -3.321  1.00  0.00     0.210 HD
ENDBRANCH   2  19
BRANCH   3  21
HETATM   21  O   UNL     1     -15.665 -11.859  -0.623  1.00  0.00    -0.385 OA
HETATM   22  C   UNL     1     -16.359 -12.070   0.602  1.00  0.00     0.202 C 
ENDBRANCH   3  21
BRANCH   5  23
HETATM   23  C   UNL     1     -15.660  -9.779  -5.173  1.00  0.00     0.198 C 
BRANCH  23  24
HETATM   24  O   UNL     1     -15.750 -10.898  -6.053  1.00  0.00    -0.398 OA
HETATM   25  H   UNL     1     -15.296 -10.629  -6.875  1.00  0.00     0.209 HD
ENDBRANCH  23  24
ENDBRANCH   5  23
BRANCH   4  26
HETATM   26  O   UNL     1     -15.126 -12.112  -3.402  1.00  0.00    -0.390 OA
HETATM   27  H   UNL     1     -14.153 -12.126  -3.427  1.00  0.00     0.210 HD
ENDBRANCH   4  26
TORSDOF 8
ENDMDL
MODEL 7
REMARK VINA RESULT:      -4.9      2.308      7.383
REMARK  8 active torsions:
REMARK  status: ('A' for Active; 'I' for Inactive)
REMARK    1  A    between atoms: C_3  and  O_23 
REMARK    2  A    between atoms: C_5  and  O_10 
REMARK    3  A    between atoms: O_10  and  C_11 
REMARK    4  A    between atoms: C_12  and  O_22 
REMARK    5  A    between atoms: C_13  and  O_20 
REMARK    6  A    between atoms: C_14  and  O_19 
REMARK    7  A    between atoms: C_15  and  C_17 
REMARK    8  A    between atoms: C_17  and  O_18 
ROOT
HETATM    1  C   UNL     1     -22.506  -4.350  -7.871  1.00  0.00     0.292 C 
HETATM    2  C   UNL     1     -23.752  -4.274  -8.777  1.00  0.00     0.204 C 
HETATM    3  C   UNL     1     -23.368  -4.883 -10.141  1.00  0.00     0.185 C 
HETATM    4  C   UNL     1     -22.185  -4.080 -10.735  1.00  0.00     0.180 C 
HETATM    5  C   UNL     1     -21.004  -4.117  -9.738  1.00  0.00     0.179 C 
HETATM    6  O   UNL     1     -21.415  -3.607  -8.454  1.00  0.00    -0.348 OA
ENDROOT
BRANCH   1   7
HETATM    7  O   UNL     1     -22.103  -5.708  -7.614  1.00  0.00    -0.348 OA
BRANCH   7   8
HETATM    8  C   UNL     1     -22.000  -6.046  -6.222  1.00  0.00     0.187 C 
HETATM    9  C   UNL     1     -21.314  -7.411  -5.983  1.00  0.00     0.184 C 
HETATM   10  C   UNL     1     -21.234  -7.757  -4.459  1.00  0.00     0.178 C 
HETATM   11  O   UNL     1     -19.952  -7.168  -6.402  1.00  0.00    -0.378 OA
HETATM   12  C   UNL     1     -21.749  -6.562  -3.631  1.00  0.00     0.149 C 
HETATM   13  C   UNL     1     -21.577  -6.707  -2.131  1.00  0.00     0.042 C 
HETATM   14  O   UNL     1     -21.102  -5.349  -4.056  1.00  0.00    -0.373 OA
HETATM   15  C   UNL     1     -20.975  -5.196  -5.490  1.00  0.00     0.177 C 
HETATM   16  C   UNL     1     -19.666  -5.798  -6.019  1.00  0.00     0.203 C 
BRANCH  10  17
HETATM   17  O   UNL     1     -21.907  -8.981  -4.162  1.00  0.00    -0.390 OA
HETATM   18  H   UNL     1     -22.672  -8.811  -3.593  1.00  0.00     0.210 HD
ENDBRANCH  10  17
ENDBRANCH   7   8
ENDBRANCH   1   7
BRANCH   2  19
HETATM   19  O   UNL     1     -24.234  -2.926  -8.870  1.00  0.00    -0.388 OA
HETATM   20  H   UNL     1     -24.995  -2.855  -8.254  1.00  0.00     0.210 HD
ENDBRANCH   2  19
BRANCH   3  21
HETATM   21  O   UNL     1     -24.465  -4.903 -11.071  1.00  0.00    -0.385 OA
HETATM   22  C   UNL     1     -24.053  -4.840 -12.432  1.00  0.00     0.202 C 
ENDBRANCH   3  21
BRANCH   5  23
HETATM   23  C   UNL     1     -19.810  -3.279 -10.223  1.00  0.00     0.198 C 
BRANCH  23  24
HETATM   24  O   UNL     1     -19.999  -2.869 -11.576  1.00  0.00    -0.398 OA
HETATM   25  H   UNL     1     -20.848  -2.385 -11.592  1.00  0.00     0.209 HD
ENDBRANCH  23  24
ENDBRANCH   5  23
BRANCH   4  26
HETATM   26  O   UNL     1     -22.633  -2.731 -10.994  1.00  0.00    -0.390 OA
HETATM   27  H   UNL     1     -22.070  -2.324 -11.676  1.00  0.00     0.210 HD
ENDBRANCH   4  26
TORSDOF 8
ENDMDL
MODEL 8
REMARK VINA RESULT:      -4.8      3.215      4.626
REMARK  8 active torsions:
REMARK  status: ('A' for Active; 'I' for Inactive)
REMARK    1  A    between atoms: C_3  and  O_23 
REMARK    2  A    between atoms: C_5  and  O_10 
REMARK    3  A    between atoms: O_10  and  C_11 
REMARK    4  A    between atoms: C_12  and  O_22 
REMARK    5  A    between atoms: C_13  and  O_20 
REMARK    6  A    between atoms: C_14  and  O_19 
REMARK    7  A    between atoms: C_15  and  C_17 
REMARK    8  A    between atoms: C_17  and  O_18 
ROOT
HETATM    1  C   UNL     1     -22.491 -11.153  -2.393  1.00  0.00     0.292 C 
HETATM    2  C   UNL     1     -22.618 -10.344  -1.086  1.00  0.00     0.204 C 
HETATM    3  C   UNL     1     -21.330 -10.580  -0.271  1.00  0.00     0.185 C 
HETATM    4  C   UNL     1     -21.184 -12.094   0.011  1.00  0.00     0.180 C 
HETATM    5  C   UNL     1     -21.157 -12.854  -1.334  1.00  0.00     0.179 C 
HETATM    6  O   UNL     1     -22.341 -12.558  -2.102  1.00  0.00    -0.348 OA
ENDROOT
BRANCH   1   7
HETATM    7  O   UNL     1     -21.399 -10.694  -3.212  1.00  0.00    -0.348 OA
BRANCH   7   8
HETATM    8  C   UNL     1     -21.609  -9.411  -3.821  1.00  0.00     0.187 C 
HETATM    9  C   UNL     1     -20.925  -8.259  -3.049  1.00  0.00     0.184 C 
HETATM   10  C   UNL     1     -21.188  -6.874  -3.728  1.00  0.00     0.178 C 
HETATM   11  O   UNL     1     -19.517  -8.529  -3.242  1.00  0.00    -0.378 OA
HETATM   12  C   UNL     1     -21.949  -7.085  -5.052  1.00  0.00     0.149 C 
HETATM   13  C   UNL     1     -22.128  -5.832  -5.889  1.00  0.00     0.042 C 
HETATM   14  O   UNL     1     -21.288  -8.084  -5.851  1.00  0.00    -0.373 OA
HETATM   15  C   UNL     1     -20.834  -9.247  -5.118  1.00  0.00     0.177 C 
HETATM   16  C   UNL     1     -19.406  -9.069  -4.584  1.00  0.00     0.203 C 
BRANCH  10  17
HETATM   17  O   UNL     1     -21.843  -5.969  -2.839  1.00  0.00    -0.390 OA
HETATM   18  H   UNL     1     -21.573  -6.146  -1.925  1.00  0.00     0.210 HD
ENDBRANCH  10  17
ENDBRANCH   7   8
ENDBRANCH   1   7
BRANCH   2  19
HETATM   19  O   UNL     1     -23.814 -10.702  -0.379  1.00  0.00    -0.388 OA
HETATM   20  H   UNL     1     -23.535 -11.246   0.390  1.00  0.00     0.210 HD
ENDBRANCH   2  19
BRANCH   3  21
HETATM   21  O   UNL     1     -21.310  -9.844   0.965  1.00  0.00    -0.385 OA
HETATM   22  C   UNL     1     -21.357  -8.434   0.782  1.00  0.00     0.202 C 
ENDBRANCH   3  21
BRANCH   5  23
HETATM   23  C   UNL     1     -21.086 -14.378  -1.139  1.00  0.00     0.198 C 
BRANCH  23  24
HETATM   24  O   UNL     1     -22.375 -14.906  -0.831  1.00  0.00    -0.398 OA
HETATM   25  H   UNL     1     -22.614 -14.537   0.041  1.00  0.00     0.209 HD
ENDBRANCH  23  24
ENDBRANCH   5  23
BRANCH   4  26
HETATM   26  O   UNL     1     -22.286 -12.512   0.847  1.00  0.00    -0.390 OA
HETATM   27  H   UNL     1     -23.069 -12.682   0.296  1.00  0.00     0.210 HD
ENDBRANCH   4  26
TORSDOF 8
ENDMDL
MODEL 9
REMARK VINA RESULT:      -4.8      4.016      6.522
REMARK  8 active torsions:
REMARK  status: ('A' for Active; 'I' for Inactive)
REMARK    1  A    between atoms: C_3  and  O_23 
REMARK    2  A    between atoms: C_5  and  O_10 
REMARK    3  A    between atoms: O_10  and  C_11 
REMARK    4  A    between atoms: C_12  and  O_22 
REMARK    5  A    between atoms: C_13  and  O_20 
REMARK    6  A    between atoms: C_14  and  O_19 
REMARK    7  A    between atoms: C_15  and  C_17 
REMARK    8  A    between atoms: C_17  and  O_18 
ROOT
HETATM    1  C   UNL     1     -20.503 -10.029  -2.667  1.00  0.00     0.292 C 
HETATM    2  C   UNL     1     -21.087 -10.575  -1.348  1.00  0.00     0.204 C 
HETATM    3  C   UNL     1     -22.473  -9.927  -1.154  1.00  0.00     0.185 C 
HETATM    4  C   UNL     1     -22.306  -8.389  -1.106  1.00  0.00     0.180 C 
HETATM    5  C   UNL     1     -21.632  -7.917  -2.414  1.00  0.00     0.179 C 
HETATM    6  O   UNL     1     -20.373  -8.593  -2.601  1.00  0.00    -0.348 OA
ENDROOT
BRANCH   1   7
HETATM    7  O   UNL     1     -21.295 -10.406  -3.809  1.00  0.00    -0.348 OA
BRANCH   7   8
HETATM    8  C   UNL     1     -20.542 -10.961  -4.899  1.00  0.00     0.187 C 
HETATM    9  C   UNL     1     -19.792 -12.257  -4.513  1.00  0.00     0.184 C 
HETATM   10  C   UNL     1     -18.967 -12.826  -5.716  1.00  0.00     0.178 C 
HETATM   11  O   UNL     1     -20.865 -13.200  -4.292  1.00  0.00    -0.378 OA
HETATM   12  C   UNL     1     -19.256 -11.990  -6.979  1.00  0.00     0.149 C 
HETATM   13  C   UNL     1     -18.640 -12.534  -8.255  1.00  0.00     0.042 C 
HETATM   14  O   UNL     1     -20.676 -11.855  -7.172  1.00  0.00    -0.373 OA
HETATM   15  C   UNL     1     -21.430 -11.575  -5.968  1.00  0.00     0.177 C 
HETATM   16  C   UNL     1     -21.887 -12.861  -5.264  1.00  0.00     0.203 C 
BRANCH  10  17
HETATM   17  O   UNL     1     -17.577 -12.916  -5.404  1.00  0.00    -0.390 OA
HETATM   18  H   UNL     1     -17.289 -13.840  -5.428  1.00  0.00     0.210 HD
ENDBRANCH  10  17
ENDBRANCH   7   8
ENDBRANCH   1   7
BRANCH   2  19
HETATM   19  O   UNL     1     -20.189 -10.338  -0.255  1.00  0.00    -0.388 OA
HETATM   20  H   UNL     1     -20.288 -11.096   0.362  1.00  0.00     0.210 HD
ENDBRANCH   2  19
BRANCH   3  21
HETATM   21  O   UNL     1     -23.142 -10.387   0.033  1.00  0.00    -0.385 OA
HETATM   22  C   UNL     1     -23.595 -11.733  -0.061  1.00  0.00     0.202 C 
ENDBRANCH   3  21
BRANCH   5  23
HETATM   23  C   UNL     1     -21.364  -6.403  -2.415  1.00  0.00     0.198 C 
BRANCH  23  24
HETATM   24  O   UNL     1     -22.408  -5.707  -1.736  1.00  0.00    -0.398 OA
HETATM   25  H   UNL     1     -23.108  -5.559  -2.403  1.00  0.00     0.209 HD
ENDBRANCH  23  24
ENDBRANCH   5  23
BRANCH   4  26
HETATM   26  O   UNL     1     -21.523  -8.051   0.060  1.00  0.00    -0.390 OA
HETATM   27  H   UNL     1     -22.096  -7.638   0.731  1.00  0.00     0.210 HD
ENDBRANCH   4  26
TORSDOF 8
ENDMDL
