MODEL 1
REMARK VINA RESULT:      -7.4      0.000      0.000
REMARK  6 active torsions:
REMARK  status: ('A' for Active; 'I' for Inactive)
REMARK    1  A    between atoms: C_3  and  C_10 
REMARK    2  A    between atoms: C_11  and  C_12 
REMARK    3  A    between atoms: C_13  and  C_14 
REMARK    4  A    between atoms: C_15  and  C_16 
REMARK    5  A    between atoms: C_17  and  C_18 
REMARK    6  A    between atoms: C_18  and  O_19 
ROOT
HETATM    1  C   UNL     1     -20.677  -9.137  -2.729  1.00  0.00     0.009 C 
HETATM    2  C   UNL     1     -19.335  -9.021  -2.724  1.00  0.00     0.007 C 
ENDROOT
BRANCH   2   3
HETATM    3  C   UNL     1     -18.479  -9.317  -3.874  1.00  0.00    -0.062 C 
HETATM    4  C   UNL     1     -18.773  -8.993  -5.155  1.00  0.00     0.007 C 
HETATM    5  C   UNL     1     -17.208 -10.086  -3.593  1.00  0.00     0.048 C 
BRANCH   4   6
HETATM    6  C   UNL     1     -19.948  -8.281  -5.613  1.00  0.00     0.001 C 
HETATM    7  C   UNL     1     -20.075  -6.942  -5.630  1.00  0.00     0.006 C 
BRANCH   7   8
HETATM    8  C   UNL     1     -21.246  -6.231  -6.141  1.00  0.00    -0.064 C 
HETATM    9  C   UNL     1     -21.245  -5.493  -7.273  1.00  0.00     0.005 C 
HETATM   10  C   UNL     1     -22.557  -6.347  -5.394  1.00  0.00     0.048 C 
BRANCH   9  11
HETATM   11  C   UNL     1     -20.135  -5.152  -8.208  1.00  0.00     0.192 C 
BRANCH  11  12
HETATM   12  O   UNL     1     -19.862  -3.762  -8.087  1.00  0.00    -0.397 OA
HETATM   13  H   UNL     1     -20.404  -3.436  -7.349  1.00  0.00     0.209 HD
ENDBRANCH  11  12
ENDBRANCH   9  11
ENDBRANCH   7   8
ENDBRANCH   4   6
ENDBRANCH   2   3
BRANCH   1  14
HETATM   14  C   UNL     1     -21.583  -8.815  -1.614  1.00  0.00    -0.048 C 
HETATM   15  C   UNL     1     -21.914  -7.537  -1.300  1.00  0.00    -0.077 C 
HETATM   16  C   UNL     1     -21.481  -6.312  -2.069  1.00  0.00     0.044 C 
HETATM   17  C   UNL     1     -22.829  -7.182  -0.144  1.00  0.00     0.034 C 
HETATM   18  C   UNL     1     -23.087  -8.317   0.836  1.00  0.00     0.005 C 
HETATM   19  C   UNL     1     -23.385  -9.594   0.073  1.00  0.00     0.014 C 
HETATM   20  C   UNL     1     -22.215 -10.018  -0.863  1.00  0.00    -0.020 C 
HETATM   21  C   UNL     1     -22.831 -11.050  -1.838  1.00  0.00     0.020 C 
HETATM   22  C   UNL     1     -21.135 -10.712  -0.005  1.00  0.00     0.020 C 
ENDBRANCH   1  14
TORSDOF 6
ENDMDL
MODEL 2
REMARK VINA RESULT:      -7.4      2.927      5.491
REMARK  6 active torsions:
REMARK  status: ('A' for Active; 'I' for Inactive)
REMARK    1  A    between atoms: C_3  and  C_10 
REMARK    2  A    between atoms: C_11  and  C_12 
REMARK    3  A    between atoms: C_13  and  C_14 
REMARK    4  A    between atoms: C_15  and  C_16 
REMARK    5  A    between atoms: C_17  and  C_18 
REMARK    6  A    between atoms: C_18  and  O_19 
ROOT
HETATM    1  C   UNL     1     -19.769  -6.235  -5.747  1.00  0.00     0.009 C 
HETATM    2  C   UNL     1     -20.195  -5.780  -6.941  1.00  0.00     0.007 C 
ENDROOT
BRANCH   2   3
HETATM    3  C   UNL     1     -19.596  -4.651  -7.652  1.00  0.00    -0.062 C 
HETATM    4  C   UNL     1     -20.220  -3.927  -8.611  1.00  0.00     0.007 C 
HETATM    5  C   UNL     1     -18.160  -4.321  -7.313  1.00  0.00     0.048 C 
BRANCH   4   6
HETATM    6  C   UNL     1     -21.578  -4.111  -9.079  1.00  0.00     0.001 C 
HETATM    7  C   UNL     1     -22.038  -3.702 -10.276  1.00  0.00     0.006 C 
BRANCH   7   8
HETATM    8  C   UNL     1     -23.397  -3.936 -10.760  1.00  0.00    -0.064 C 
HETATM    9  C   UNL     1     -23.871  -3.465 -11.935  1.00  0.00     0.005 C 
HETATM   10  C   UNL     1     -24.334  -4.786  -9.930  1.00  0.00     0.048 C 
BRANCH   9  11
HETATM   11  C   UNL     1     -23.233  -2.584 -12.955  1.00  0.00     0.192 C 
BRANCH  11  12
HETATM   12  O   UNL     1     -22.211  -3.326 -13.607  1.00  0.00    -0.397 OA
HETATM   13  H   UNL     1     -22.458  -3.374 -14.546  1.00  0.00     0.209 HD
ENDBRANCH  11  12
ENDBRANCH   9  11
ENDBRANCH   7   8
ENDBRANCH   4   6
ENDBRANCH   2   3
BRANCH   1  14
HETATM   14  C   UNL     1     -20.312  -7.389  -5.010  1.00  0.00    -0.048 C 
HETATM   15  C   UNL     1     -19.763  -8.628  -5.104  1.00  0.00    -0.077 C 
HETATM   16  C   UNL     1     -18.517  -8.969  -5.883  1.00  0.00     0.044 C 
HETATM   17  C   UNL     1     -20.318  -9.833  -4.370  1.00  0.00     0.034 C 
HETATM   18  C   UNL     1     -21.711  -9.640  -3.789  1.00  0.00     0.005 C 
HETATM   19  C   UNL     1     -21.792  -8.296  -3.090  1.00  0.00     0.014 C 
HETATM   20  C   UNL     1     -21.497  -7.104  -4.049  1.00  0.00    -0.020 C 
HETATM   21  C   UNL     1     -21.212  -5.899  -3.120  1.00  0.00     0.020 C 
HETATM   22  C   UNL     1     -22.770  -6.819  -4.874  1.00  0.00     0.020 C 
ENDBRANCH   1  14
TORSDOF 6
ENDMDL
MODEL 3
REMARK VINA RESULT:      -7.0      1.587      4.361
REMARK  6 active torsions:
REMARK  status: ('A' for Active; 'I' for Inactive)
REMARK    1  A    between atoms: C_3  and  C_10 
REMARK    2  A    between atoms: C_11  and  C_12 
REMARK    3  A    between atoms: C_13  and  C_14 
REMARK    4  A    between atoms: C_15  and  C_16 
REMARK    5  A    between atoms: C_17  and  C_18 
REMARK    6  A    between atoms: C_18  and  O_19 
ROOT
HETATM    1  C   UNL     1     -21.022  -9.485  -1.634  1.00  0.00     0.009 C 
HETATM    2  C   UNL     1     -20.900  -8.223  -1.179  1.00  0.00     0.007 C 
ENDROOT
BRANCH   2   3
HETATM    3  C   UNL     1     -21.996  -7.253  -1.141  1.00  0.00    -0.062 C 
HETATM    4  C   UNL     1     -22.217  -6.306  -2.082  1.00  0.00     0.007 C 
HETATM    5  C   UNL     1     -22.901  -7.299   0.070  1.00  0.00     0.048 C 
BRANCH   4   6
HETATM    6  C   UNL     1     -21.447  -6.099  -3.291  1.00  0.00     0.001 C 
HETATM    7  C   UNL     1     -21.698  -6.694  -4.471  1.00  0.00     0.006 C 
BRANCH   7   8
HETATM    8  C   UNL     1     -20.945  -6.441  -5.698  1.00  0.00    -0.064 C 
HETATM    9  C   UNL     1     -21.334  -5.569  -6.655  1.00  0.00     0.005 C 
HETATM   10  C   UNL     1     -19.629  -7.158  -5.912  1.00  0.00     0.048 C 
BRANCH   9  11
HETATM   11  C   UNL     1     -22.570  -4.743  -6.770  1.00  0.00     0.192 C 
BRANCH  11  12
HETATM   12  O   UNL     1     -22.265  -3.593  -7.548  1.00  0.00    -0.397 OA
HETATM   13  H   UNL     1     -21.354  -3.338  -7.323  1.00  0.00     0.209 HD
ENDBRANCH  11  12
ENDBRANCH   9  11
ENDBRANCH   7   8
ENDBRANCH   4   6
ENDBRANCH   2   3
BRANCH   1  14
HETATM   14  C   UNL     1     -19.963 -10.508  -1.657  1.00  0.00    -0.048 C 
HETATM   15  C   UNL     1     -19.779 -11.379  -0.631  1.00  0.00    -0.077 C 
HETATM   16  C   UNL     1     -20.652 -11.472   0.597  1.00  0.00     0.044 C 
HETATM   17  C   UNL     1     -18.683 -12.426  -0.625  1.00  0.00     0.034 C 
HETATM   18  C   UNL     1     -17.606 -12.228  -1.681  1.00  0.00     0.005 C 
HETATM   19  C   UNL     1     -18.250 -11.895  -3.013  1.00  0.00     0.014 C 
HETATM   20  C   UNL     1     -19.116 -10.602  -2.954  1.00  0.00    -0.020 C 
HETATM   21  C   UNL     1     -20.001 -10.648  -4.222  1.00  0.00     0.020 C 
HETATM   22  C   UNL     1     -18.172  -9.383  -3.039  1.00  0.00     0.020 C 
ENDBRANCH   1  14
TORSDOF 6
ENDMDL
MODEL 4
REMARK VINA RESULT:      -6.9      2.236      4.617
REMARK  6 active torsions:
REMARK  status: ('A' for Active; 'I' for Inactive)
REMARK    1  A    between atoms: C_3  and  C_10 
REMARK    2  A    between atoms: C_11  and  C_12 
REMARK    3  A    between atoms: C_13  and  C_14 
REMARK    4  A    between atoms: C_15  and  C_16 
REMARK    5  A    between atoms: C_17  and  C_18 
REMARK    6  A    between atoms: C_18  and  O_19 
ROOT
HETATM    1  C   UNL     1     -21.915 -10.226  -0.796  1.00  0.00     0.009 C 
HETATM    2  C   UNL     1     -22.803  -9.247  -0.536  1.00  0.00     0.007 C 
ENDROOT
BRANCH   2   3
HETATM    3  C   UNL     1     -22.443  -7.925  -0.023  1.00  0.00    -0.062 C 
HETATM    4  C   UNL     1     -22.170  -6.848  -0.796  1.00  0.00     0.007 C 
HETATM    5  C   UNL     1     -22.323  -7.789   1.479  1.00  0.00     0.048 C 
BRANCH   4   6
HETATM    6  C   UNL     1     -22.212  -6.796  -2.243  1.00  0.00     0.001 C 
HETATM    7  C   UNL     1     -21.194  -7.139  -3.052  1.00  0.00     0.006 C 
BRANCH   7   8
HETATM    8  C   UNL     1     -21.263  -7.130  -4.513  1.00  0.00    -0.064 C 
HETATM    9  C   UNL     1     -20.452  -7.861  -5.310  1.00  0.00     0.005 C 
HETATM   10  C   UNL     1     -22.323  -6.290  -5.191  1.00  0.00     0.048 C 
BRANCH   9  11
HETATM   11  C   UNL     1     -19.303  -8.750  -4.973  1.00  0.00     0.192 C 
BRANCH  11  12
HETATM   12  O   UNL     1     -19.390  -9.916  -5.780  1.00  0.00    -0.397 OA
HETATM   13  H   UNL     1     -20.336 -10.116  -5.878  1.00  0.00     0.209 HD
ENDBRANCH  11  12
ENDBRANCH   9  11
ENDBRANCH   7   8
ENDBRANCH   4   6
ENDBRANCH   2   3
BRANCH   1  14
HETATM   14  C   UNL     1     -22.222 -11.556  -1.349  1.00  0.00    -0.048 C 
HETATM   15  C   UNL     1     -22.426 -11.757  -2.676  1.00  0.00    -0.077 C 
HETATM   16  C   UNL     1     -22.292 -10.700  -3.745  1.00  0.00     0.044 C 
HETATM   17  C   UNL     1     -22.762 -13.114  -3.263  1.00  0.00     0.034 C 
HETATM   18  C   UNL     1     -23.180 -14.163  -2.244  1.00  0.00     0.005 C 
HETATM   19  C   UNL     1     -22.236 -14.128  -1.057  1.00  0.00     0.014 C 
HETATM   20  C   UNL     1     -22.218 -12.742  -0.347  1.00  0.00    -0.020 C 
HETATM   21  C   UNL     1     -20.944 -12.753   0.532  1.00  0.00     0.020 C 
HETATM   22  C   UNL     1     -23.461 -12.648   0.564  1.00  0.00     0.020 C 
ENDBRANCH   1  14
TORSDOF 6
ENDMDL
MODEL 5
REMARK VINA RESULT:      -6.9      4.109      7.174
REMARK  6 active torsions:
REMARK  status: ('A' for Active; 'I' for Inactive)
REMARK    1  A    between atoms: C_3  and  C_10 
REMARK    2  A    between atoms: C_11  and  C_12 
REMARK    3  A    between atoms: C_13  and  C_14 
REMARK    4  A    between atoms: C_15  and  C_16 
REMARK    5  A    between atoms: C_17  and  C_18 
REMARK    6  A    between atoms: C_18  and  O_19 
ROOT
HETATM    1  C   UNL     1     -21.828 -10.414  -0.994  1.00  0.00     0.009 C 
HETATM    2  C   UNL     1     -21.264 -10.940   0.110  1.00  0.00     0.007 C 
ENDROOT
BRANCH   2   3
HETATM    3  C   UNL     1     -21.314 -12.359   0.463  1.00  0.00    -0.062 C 
HETATM    4  C   UNL     1     -20.308 -13.240   0.251  1.00  0.00     0.007 C 
HETATM    5  C   UNL     1     -22.608 -12.865   1.059  1.00  0.00     0.048 C 
BRANCH   4   6
HETATM    6  C   UNL     1     -19.013 -12.943  -0.325  1.00  0.00     0.001 C 
HETATM    7  C   UNL     1     -18.053 -12.221   0.280  1.00  0.00     0.006 C 
BRANCH   7   8
HETATM    8  C   UNL     1     -16.729 -11.969  -0.288  1.00  0.00    -0.064 C 
HETATM    9  C   UNL     1     -15.573 -12.367   0.288  1.00  0.00     0.005 C 
HETATM   10  C   UNL     1     -16.628 -11.256  -1.619  1.00  0.00     0.048 C 
BRANCH   9  11
HETATM   11  C   UNL     1     -15.322 -13.049   1.590  1.00  0.00     0.192 C 
BRANCH  11  12
HETATM   12  O   UNL     1     -14.078 -13.730   1.502  1.00  0.00    -0.397 OA
HETATM   13  H   UNL     1     -13.941 -14.170   2.358  1.00  0.00     0.209 HD
ENDBRANCH  11  12
ENDBRANCH   9  11
ENDBRANCH   7   8
ENDBRANCH   4   6
ENDBRANCH   2   3
BRANCH   1  14
HETATM   14  C   UNL     1     -21.773  -9.003  -1.413  1.00  0.00    -0.048 C 
HETATM   15  C   UNL     1     -22.361  -8.014  -0.694  1.00  0.00    -0.077 C 
HETATM   16  C   UNL     1     -23.060  -8.200   0.631  1.00  0.00     0.044 C 
HETATM   17  C   UNL     1     -22.334  -6.558  -1.118  1.00  0.00     0.034 C 
HETATM   18  C   UNL     1     -21.895  -6.321  -2.555  1.00  0.00     0.005 C 
HETATM   19  C   UNL     1     -20.672  -7.163  -2.862  1.00  0.00     0.014 C 
HETATM   20  C   UNL     1     -20.933  -8.688  -2.680  1.00  0.00    -0.020 C 
HETATM   21  C   UNL     1     -19.529  -9.335  -2.619  1.00  0.00     0.020 C 
HETATM   22  C   UNL     1     -21.676  -9.205  -3.930  1.00  0.00     0.020 C 
ENDBRANCH   1  14
TORSDOF 6
ENDMDL
MODEL 6
REMARK VINA RESULT:      -6.8      3.768      6.170
REMARK  6 active torsions:
REMARK  status: ('A' for Active; 'I' for Inactive)
REMARK    1  A    between atoms: C_3  and  C_10 
REMARK    2  A    between atoms: C_11  and  C_12 
REMARK    3  A    between atoms: C_13  and  C_14 
REMARK    4  A    between atoms: C_15  and  C_16 
REMARK    5  A    between atoms: C_17  and  C_18 
REMARK    6  A    between atoms: C_18  and  O_19 
ROOT
HETATM    1  C   UNL     1     -20.288  -9.260  -2.848  1.00  0.00     0.009 C 
HETATM    2  C   UNL     1     -18.943  -9.268  -2.764  1.00  0.00     0.007 C 
ENDROOT
BRANCH   2   3
HETATM    3  C   UNL     1     -18.053  -9.675  -3.852  1.00  0.00    -0.062 C 
HETATM    4  C   UNL     1     -16.890 -10.346  -3.683  1.00  0.00     0.007 C 
HETATM    5  C   UNL     1     -18.456  -9.261  -5.249  1.00  0.00     0.048 C 
BRANCH   4   6
HETATM    6  C   UNL     1     -16.336 -10.804  -2.425  1.00  0.00     0.001 C 
HETATM    7  C   UNL     1     -16.497 -12.041  -1.922  1.00  0.00     0.006 C 
BRANCH   7   8
HETATM    8  C   UNL     1     -15.893 -12.509  -0.675  1.00  0.00    -0.064 C 
HETATM    9  C   UNL     1     -14.856 -13.374  -0.619  1.00  0.00     0.005 C 
HETATM   10  C   UNL     1     -16.419 -11.974   0.639  1.00  0.00     0.048 C 
BRANCH   9  11
HETATM   11  C   UNL     1     -14.138 -14.102  -1.704  1.00  0.00     0.192 C 
BRANCH  11  12
HETATM   12  O   UNL     1     -14.910 -15.240  -2.063  1.00  0.00    -0.397 OA
HETATM   13  H   UNL     1     -15.720 -14.906  -2.485  1.00  0.00     0.209 HD
ENDBRANCH  11  12
ENDBRANCH   9  11
ENDBRANCH   7   8
ENDBRANCH   4   6
ENDBRANCH   2   3
BRANCH   1  14
HETATM   14  C   UNL     1     -21.224  -8.823  -1.799  1.00  0.00    -0.048 C 
HETATM   15  C   UNL     1     -21.633  -7.533  -1.689  1.00  0.00    -0.077 C 
HETATM   16  C   UNL     1     -21.265  -6.420  -2.640  1.00  0.00     0.044 C 
HETATM   17  C   UNL     1     -22.581  -7.059  -0.604  1.00  0.00     0.034 C 
HETATM   18  C   UNL     1     -22.782  -8.040   0.540  1.00  0.00     0.005 C 
HETATM   19  C   UNL     1     -22.995  -9.436  -0.014  1.00  0.00     0.014 C 
HETATM   20  C   UNL     1     -21.792  -9.930  -0.870  1.00  0.00    -0.020 C 
HETATM   21  C   UNL     1     -22.334 -11.137  -1.673  1.00  0.00     0.020 C 
HETATM   22  C   UNL     1     -20.682 -10.415   0.087  1.00  0.00     0.020 C 
ENDBRANCH   1  14
TORSDOF 6
ENDMDL
MODEL 7
REMARK VINA RESULT:      -6.8      3.238      4.475
REMARK  6 active torsions:
REMARK  status: ('A' for Active; 'I' for Inactive)
REMARK    1  A    between atoms: C_3  and  C_10 
REMARK    2  A    between atoms: C_11  and  C_12 
REMARK    3  A    between atoms: C_13  and  C_14 
REMARK    4  A    between atoms: C_15  and  C_16 
REMARK    5  A    between atoms: C_17  and  C_18 
REMARK    6  A    between atoms: C_18  and  O_19 
ROOT
HETATM    1  C   UNL     1     -21.527 -10.632  -2.781  1.00  0.00     0.009 C 
HETATM    2  C   UNL     1     -21.962 -10.633  -4.056  1.00  0.00     0.007 C 
ENDROOT
BRANCH   2   3
HETATM    3  C   UNL     1     -21.539 -11.601  -5.069  1.00  0.00    -0.062 C 
HETATM    4  C   UNL     1     -20.297 -11.660  -5.605  1.00  0.00     0.007 C 
HETATM    5  C   UNL     1     -22.594 -12.560  -5.574  1.00  0.00     0.048 C 
BRANCH   4   6
HETATM    6  C   UNL     1     -19.172 -10.815  -5.262  1.00  0.00     0.001 C 
HETATM    7  C   UNL     1     -18.217 -11.134  -4.370  1.00  0.00     0.006 C 
BRANCH   7   8
HETATM    8  C   UNL     1     -17.058 -10.296  -4.068  1.00  0.00    -0.064 C 
HETATM    9  C   UNL     1     -15.928 -10.276  -4.809  1.00  0.00     0.005 C 
HETATM   10  C   UNL     1     -17.122  -9.359  -2.881  1.00  0.00     0.048 C 
BRANCH   9  11
HETATM   11  C   UNL     1     -15.534 -11.083  -5.999  1.00  0.00     0.192 C 
BRANCH  11  12
HETATM   12  O   UNL     1     -14.333 -11.776  -5.688  1.00  0.00    -0.397 OA
HETATM   13  H   UNL     1     -14.499 -12.717  -5.868  1.00  0.00     0.209 HD
ENDBRANCH  11  12
ENDBRANCH   9  11
ENDBRANCH   7   8
ENDBRANCH   4   6
ENDBRANCH   2   3
BRANCH   1  14
HETATM   14  C   UNL     1     -21.951  -9.706  -1.717  1.00  0.00    -0.048 C 
HETATM   15  C   UNL     1     -21.675  -8.378  -1.764  1.00  0.00    -0.077 C 
HETATM   16  C   UNL     1     -20.990  -7.673  -2.910  1.00  0.00     0.044 C 
HETATM   17  C   UNL     1     -22.084  -7.411  -0.670  1.00  0.00     0.034 C 
HETATM   18  C   UNL     1     -22.529  -8.068   0.627  1.00  0.00     0.005 C 
HETATM   19  C   UNL     1     -23.468  -9.219   0.322  1.00  0.00     0.014 C 
HETATM   20  C   UNL     1     -22.809 -10.310  -0.573  1.00  0.00    -0.020 C 
HETATM   21  C   UNL     1     -23.986 -11.155  -1.115  1.00  0.00     0.020 C 
HETATM   22  C   UNL     1     -21.918 -11.197   0.323  1.00  0.00     0.020 C 
ENDBRANCH   1  14
TORSDOF 6
ENDMDL
MODEL 8
REMARK VINA RESULT:      -6.7      2.875      4.808
REMARK  6 active torsions:
REMARK  status: ('A' for Active; 'I' for Inactive)
REMARK    1  A    between atoms: C_3  and  C_10 
REMARK    2  A    between atoms: C_11  and  C_12 
REMARK    3  A    between atoms: C_13  and  C_14 
REMARK    4  A    between atoms: C_15  and  C_16 
REMARK    5  A    between atoms: C_17  and  C_18 
REMARK    6  A    between atoms: C_18  and  O_19 
ROOT
HETATM    1  C   UNL     1     -19.790 -11.333   0.314  1.00  0.00     0.009 C 
HETATM    2  C   UNL     1     -18.962 -11.753  -0.663  1.00  0.00     0.007 C 
ENDROOT
BRANCH   2   3
HETATM    3  C   UNL     1     -17.510 -11.858  -0.521  1.00  0.00    -0.062 C 
HETATM    4  C   UNL     1     -16.625 -11.707  -1.535  1.00  0.00     0.007 C 
HETATM    5  C   UNL     1     -16.986 -12.212   0.853  1.00  0.00     0.048 C 
BRANCH   4   6
HETATM    6  C   UNL     1     -16.942 -11.390  -2.912  1.00  0.00     0.001 C 
HETATM    7  C   UNL     1     -16.820 -10.169  -3.465  1.00  0.00     0.006 C 
BRANCH   7   8
HETATM    8  C   UNL     1     -17.096  -9.870  -4.869  1.00  0.00    -0.064 C 
HETATM    9  C   UNL     1     -18.317  -9.539  -5.344  1.00  0.00     0.005 C 
HETATM   10  C   UNL     1     -15.952  -9.887  -5.859  1.00  0.00     0.048 C 
BRANCH   9  11
HETATM   11  C   UNL     1     -19.638  -9.465  -4.656  1.00  0.00     0.192 C 
BRANCH  11  12
HETATM   12  O   UNL     1     -20.629  -9.160  -5.628  1.00  0.00    -0.397 OA
HETATM   13  H   UNL     1     -20.251  -9.389  -6.493  1.00  0.00     0.209 HD
ENDBRANCH  11  12
ENDBRANCH   9  11
ENDBRANCH   7   8
ENDBRANCH   4   6
ENDBRANCH   2   3
BRANCH   1  14
HETATM   14  C   UNL     1     -21.258 -11.247   0.234  1.00  0.00    -0.048 C 
HETATM   15  C   UNL     1     -22.059 -12.305   0.523  1.00  0.00    -0.077 C 
HETATM   16  C   UNL     1     -21.581 -13.646   1.026  1.00  0.00     0.044 C 
HETATM   17  C   UNL     1     -23.571 -12.243   0.428  1.00  0.00     0.034 C 
HETATM   18  C   UNL     1     -24.115 -11.036  -0.320  1.00  0.00     0.005 C 
HETATM   19  C   UNL     1     -23.390  -9.784   0.134  1.00  0.00     0.014 C 
HETATM   20  C   UNL     1     -21.854  -9.857  -0.114  1.00  0.00    -0.020 C 
HETATM   21  C   UNL     1     -21.249  -8.732   0.759  1.00  0.00     0.020 C 
HETATM   22  C   UNL     1     -21.588  -9.543  -1.602  1.00  0.00     0.020 C 
ENDBRANCH   1  14
TORSDOF 6
ENDMDL
MODEL 9
REMARK VINA RESULT:      -6.7     16.067     18.748
REMARK  6 active torsions:
REMARK  status: ('A' for Active; 'I' for Inactive)
REMARK    1  A    between atoms: C_3  and  C_10 
REMARK    2  A    between atoms: C_11  and  C_12 
REMARK    3  A    between atoms: C_13  and  C_14 
REMARK    4  A    between atoms: C_15  and  C_16 
REMARK    5  A    between atoms: C_17  and  C_18 
REMARK    6  A    between atoms: C_18  and  O_19 
ROOT
HETATM    1  C   UNL     1     -25.140   7.984  -0.139  1.00  0.00     0.009 C 
HETATM    2  C   UNL     1     -24.190   8.877   0.199  1.00  0.00     0.007 C 
ENDROOT
BRANCH   2   3
HETATM    3  C   UNL     1     -23.817   9.199   1.577  1.00  0.00    -0.062 C 
HETATM    4  C   UNL     1     -24.692   9.546   2.549  1.00  0.00     0.007 C 
HETATM    5  C   UNL     1     -22.340   9.188   1.899  1.00  0.00     0.048 C 
BRANCH   4   6
HETATM    6  C   UNL     1     -26.132   9.630   2.420  1.00  0.00     0.001 C 
HETATM    7  C   UNL     1     -27.011   9.210   3.348  1.00  0.00     0.006 C 
BRANCH   7   8
HETATM    8  C   UNL     1     -28.462   9.346   3.229  1.00  0.00    -0.064 C 
HETATM    9  C   UNL     1     -29.347   8.695   4.017  1.00  0.00     0.005 C 
HETATM   10  C   UNL     1     -29.027  10.294   2.195  1.00  0.00     0.048 C 
BRANCH   9  11
HETATM   11  C   UNL     1     -29.129   7.682   5.090  1.00  0.00     0.192 C 
BRANCH  11  12
HETATM   12  O   UNL     1     -30.242   6.798   5.099  1.00  0.00    -0.397 OA
HETATM   13  H   UNL     1     -29.934   5.967   5.500  1.00  0.00     0.209 HD
ENDBRANCH  11  12
ENDBRANCH   9  11
ENDBRANCH   7   8
ENDBRANCH   4   6
ENDBRANCH   2   3
BRANCH   1  14
HETATM   14  C   UNL     1     -25.525   7.597  -1.507  1.00  0.00    -0.048 C 
HETATM   15  C   UNL     1     -24.917   6.577  -2.166  1.00  0.00    -0.077 C 
HETATM   16  C   UNL     1     -23.855   5.676  -1.583  1.00  0.00     0.044 C 
HETATM   17  C   UNL     1     -25.284   6.175  -3.581  1.00  0.00     0.034 C 
HETATM   18  C   UNL     1     -26.138   7.186  -4.330  1.00  0.00     0.005 C 
HETATM   19  C   UNL     1     -27.255   7.679  -3.430  1.00  0.00     0.014 C 
HETATM   20  C   UNL     1     -26.724   8.358  -2.133  1.00  0.00    -0.020 C 
HETATM   21  C   UNL     1     -27.939   8.411  -1.176  1.00  0.00     0.020 C 
HETATM   22  C   UNL     1     -26.291   9.798  -2.483  1.00  0.00     0.020 C 
ENDBRANCH   1  14
TORSDOF 6
ENDMDL
