MODEL 1
REMARK VINA RESULT:      -5.2      0.000      0.000
REMARK  9 active torsions:
REMARK  status: ('A' for Active; 'I' for Inactive)
REMARK    1  A    between atoms: C_1  and  N_2 
REMARK    2  A    between atoms: C_1  and  O_19 
REMARK       I    between atoms: N_2  and  C_3 
REMARK       I    between atoms: C_3  and  N_5 
REMARK    3  A    between atoms: N_5  and  C_6 
REMARK    4  A    between atoms: N_5  and  C_8 
REMARK    5  A    between atoms: C_6  and  O_7 
REMARK    6  A    between atoms: N_11  and  C_17 
REMARK    7  A    between atoms: N_14  and  C_15 
REMARK    8  A    between atoms: C_15  and  O_16 
REMARK    9  A    between atoms: C_17  and  O_18 
ROOT
HETATM    1  C   UNL     1     -21.624  -7.773  -4.336  1.00  0.00     0.292 A 
HETATM    2  C   UNL     1     -22.356  -6.642  -5.084  1.00  0.00     0.272 A 
HETATM    3  O   UNL     1     -23.490  -6.232  -4.871  1.00  0.00    -0.268 OA
HETATM    4  N   UNL     1     -21.489  -6.097  -5.987  1.00  0.00    -0.244 N 
HETATM    5  C   UNL     1     -20.321  -6.779  -6.003  1.00  0.00     0.332 A 
HETATM    6  O   UNL     1     -19.378  -6.624  -6.763  1.00  0.00    -0.246 OA
HETATM    7  N   UNL     1     -20.346  -7.727  -4.994  1.00  0.00    -0.282 N 
ENDROOT
BRANCH   1   8
HETATM    8  N   UNL     1     -21.606  -7.475  -2.912  1.00  0.00    -0.282 N 
HETATM    9  C   UNL     1     -21.705  -8.567  -2.075  1.00  0.00     0.323 C 
HETATM   10  N   UNL     1     -21.665  -8.307  -0.745  1.00  0.00    -0.322 N 
HETATM   11  O   UNL     1     -21.835  -9.712  -2.503  1.00  0.00    -0.247 OA
HETATM   12  H   UNL     1     -21.514  -7.351  -0.442  1.00  0.00     0.166 HD
BRANCH  10  13
HETATM   13  C   UNL     1     -21.914  -9.295   0.251  1.00  0.00     0.291 C 
BRANCH  13  14
HETATM   14  O   UNL     1     -23.219  -9.768   0.036  1.00  0.00    -0.382 OA
HETATM   15  H   UNL     1     -23.126 -10.736   0.057  1.00  0.00     0.211 HD
ENDBRANCH  13  14
ENDBRANCH  10  13
BRANCH   8  16
HETATM   16  C   UNL     1     -21.340  -6.107  -2.503  1.00  0.00     0.297 C 
BRANCH  16  17
HETATM   17  O   UNL     1     -22.454  -5.583  -1.813  1.00  0.00    -0.382 OA
HETATM   18  H   UNL     1     -22.561  -6.138  -1.021  1.00  0.00     0.211 HD
ENDBRANCH  16  17
ENDBRANCH   8  16
ENDBRANCH   1   8
BRANCH   7  19
HETATM   19  C   UNL     1     -19.386  -8.779  -4.862  1.00  0.00     0.297 C 
BRANCH  19  20
HETATM   20  O   UNL     1     -19.561  -9.641  -5.964  1.00  0.00    -0.382 OA
HETATM   21  H   UNL     1     -20.350 -10.173  -5.748  1.00  0.00     0.211 HD
ENDBRANCH  19  20
ENDBRANCH   7  19
BRANCH   4  22
HETATM   22  C   UNL     1     -21.806  -4.980  -6.817  1.00  0.00     0.303 C 
BRANCH  22  23
HETATM   23  O   UNL     1     -20.799  -3.997  -6.629  1.00  0.00    -0.382 OA
HETATM   24  H   UNL     1     -21.218  -3.149  -6.871  1.00  0.00     0.211 HD
ENDBRANCH  22  23
ENDBRANCH   4  22
TORSDOF 9
ENDMDL
MODEL 2
REMARK VINA RESULT:      -5.1     13.446     15.866
REMARK  9 active torsions:
REMARK  status: ('A' for Active; 'I' for Inactive)
REMARK    1  A    between atoms: C_1  and  N_2 
REMARK    2  A    between atoms: C_1  and  O_19 
REMARK       I    between atoms: N_2  and  C_3 
REMARK       I    between atoms: C_3  and  N_5 
REMARK    3  A    between atoms: N_5  and  C_6 
REMARK    4  A    between atoms: N_5  and  C_8 
REMARK    5  A    between atoms: C_6  and  O_7 
REMARK    6  A    between atoms: N_11  and  C_17 
REMARK    7  A    between atoms: N_14  and  C_15 
REMARK    8  A    between atoms: C_15  and  O_16 
REMARK    9  A    between atoms: C_17  and  O_18 
ROOT
HETATM    1  C   UNL     1     -28.128  -6.036 -17.741  1.00  0.00     0.292 A 
HETATM    2  C   UNL     1     -27.376  -6.066 -16.397  1.00  0.00     0.272 A 
HETATM    3  O   UNL     1     -27.835  -5.815 -15.290  1.00  0.00    -0.268 OA
HETATM    4  N   UNL     1     -26.106  -6.512 -16.628  1.00  0.00    -0.244 N 
HETATM    5  C   UNL     1     -25.892  -6.684 -17.953  1.00  0.00     0.332 A 
HETATM    6  O   UNL     1     -24.842  -6.969 -18.507  1.00  0.00    -0.246 OA
HETATM    7  N   UNL     1     -27.084  -6.478 -18.626  1.00  0.00    -0.282 N 
ENDROOT
BRANCH   1   8
HETATM    8  N   UNL     1     -29.291  -6.906 -17.662  1.00  0.00    -0.282 N 
HETATM    9  C   UNL     1     -30.511  -6.264 -17.600  1.00  0.00     0.323 C 
HETATM   10  N   UNL     1     -31.605  -7.063 -17.549  1.00  0.00    -0.322 N 
HETATM   11  O   UNL     1     -30.607  -5.038 -17.578  1.00  0.00    -0.247 OA
HETATM   12  H   UNL     1     -31.476  -8.067 -17.612  1.00  0.00     0.166 HD
BRANCH  10  13
HETATM   13  C   UNL     1     -32.922  -6.568 -17.322  1.00  0.00     0.291 C 
BRANCH  13  14
HETATM   14  O   UNL     1     -32.788  -5.390 -16.569  1.00  0.00    -0.382 OA
HETATM   15  H   UNL     1     -33.363  -5.536 -15.797  1.00  0.00     0.211 HD
ENDBRANCH  13  14
ENDBRANCH  10  13
BRANCH   8  16
HETATM   16  C   UNL     1     -29.086  -8.337 -17.802  1.00  0.00     0.297 C 
BRANCH  16  17
HETATM   17  O   UNL     1     -29.537  -8.768 -19.068  1.00  0.00    -0.382 OA
HETATM   18  H   UNL     1     -28.740  -9.034 -19.558  1.00  0.00     0.211 HD
ENDBRANCH  16  17
ENDBRANCH   8  16
ENDBRANCH   1   8
BRANCH   7  19
HETATM   19  C   UNL     1     -27.187  -6.346 -20.047  1.00  0.00     0.297 C 
BRANCH  19  20
HETATM   20  O   UNL     1     -27.004  -7.631 -20.596  1.00  0.00    -0.382 OA
HETATM   21  H   UNL     1     -26.613  -8.162 -19.876  1.00  0.00     0.211 HD
ENDBRANCH  19  20
ENDBRANCH   7  19
BRANCH   4  22
HETATM   22  C   UNL     1     -25.140  -6.727 -15.600  1.00  0.00     0.303 C 
BRANCH  22  23
HETATM   23  O   UNL     1     -24.318  -7.816 -15.993  1.00  0.00    -0.382 OA
HETATM   24  H   UNL     1     -23.776  -7.475 -16.730  1.00  0.00     0.211 HD
ENDBRANCH  22  23
ENDBRANCH   4  22
TORSDOF 9
ENDMDL
MODEL 3
REMARK VINA RESULT:      -5.0      1.631      5.409
REMARK  9 active torsions:
REMARK  status: ('A' for Active; 'I' for Inactive)
REMARK    1  A    between atoms: C_1  and  N_2 
REMARK    2  A    between atoms: C_1  and  O_19 
REMARK       I    between atoms: N_2  and  C_3 
REMARK       I    between atoms: C_3  and  N_5 
REMARK    3  A    between atoms: N_5  and  C_6 
REMARK    4  A    between atoms: N_5  and  C_8 
REMARK    5  A    between atoms: C_6  and  O_7 
REMARK    6  A    between atoms: N_11  and  C_17 
REMARK    7  A    between atoms: N_14  and  C_15 
REMARK    8  A    between atoms: C_15  and  O_16 
REMARK    9  A    between atoms: C_17  and  O_18 
ROOT
HETATM    1  C   UNL     1     -20.552  -7.319  -3.105  1.00  0.00     0.292 A 
HETATM    2  C   UNL     1     -21.698  -6.902  -2.163  1.00  0.00     0.272 A 
HETATM    3  O   UNL     1     -22.446  -5.942  -2.294  1.00  0.00    -0.268 OA
HETATM    4  N   UNL     1     -21.807  -7.844  -1.181  1.00  0.00    -0.244 N 
HETATM    5  C   UNL     1     -20.827  -8.770  -1.292  1.00  0.00     0.332 A 
HETATM    6  O   UNL     1     -20.572  -9.682  -0.521  1.00  0.00    -0.246 OA
HETATM    7  N   UNL     1     -20.115  -8.526  -2.455  1.00  0.00    -0.282 N 
ENDROOT
BRANCH   1   8
HETATM    8  N   UNL     1     -21.073  -7.489  -4.452  1.00  0.00    -0.282 N 
HETATM    9  C   UNL     1     -20.797  -6.461  -5.330  1.00  0.00     0.323 C 
HETATM   10  N   UNL     1     -21.257  -6.617  -6.596  1.00  0.00    -0.322 N 
HETATM   11  O   UNL     1     -20.181  -5.454  -4.988  1.00  0.00    -0.247 OA
HETATM   12  H   UNL     1     -21.722  -7.484  -6.841  1.00  0.00     0.166 HD
BRANCH  10  13
HETATM   13  C   UNL     1     -21.198  -5.587  -7.579  1.00  0.00     0.291 C 
BRANCH  13  14
HETATM   14  O   UNL     1     -22.055  -4.562  -7.144  1.00  0.00    -0.382 OA
HETATM   15  H   UNL     1     -22.215  -4.032  -7.945  1.00  0.00     0.211 HD
ENDBRANCH  13  14
ENDBRANCH  10  13
BRANCH   8  16
HETATM   16  C   UNL     1     -21.693  -8.758  -4.791  1.00  0.00     0.297 C 
BRANCH  16  17
HETATM   17  O   UNL     1     -20.860  -9.484  -5.669  1.00  0.00    -0.382 OA
HETATM   18  H   UNL     1     -19.961  -9.408  -5.306  1.00  0.00     0.211 HD
ENDBRANCH  16  17
ENDBRANCH   8  16
ENDBRANCH   1   8
BRANCH   7  19
HETATM   19  C   UNL     1     -18.872  -9.155  -2.777  1.00  0.00     0.297 C 
BRANCH  19  20
HETATM   20  O   UNL     1     -19.164 -10.478  -3.164  1.00  0.00    -0.382 OA
HETATM   21  H   UNL     1     -20.034 -10.427  -3.605  1.00  0.00     0.211 HD
ENDBRANCH  19  20
ENDBRANCH   7  19
BRANCH   4  22
HETATM   22  C   UNL     1     -22.807  -7.817  -0.163  1.00  0.00     0.303 C 
BRANCH  22  23
HETATM   23  O   UNL     1     -22.152  -7.855   1.095  1.00  0.00    -0.382 OA
HETATM   24  H   UNL     1     -22.814  -7.541   1.740  1.00  0.00     0.211 HD
ENDBRANCH  22  23
ENDBRANCH   4  22
TORSDOF 9
ENDMDL
MODEL 4
REMARK VINA RESULT:      -4.8      2.537      4.864
REMARK  9 active torsions:
REMARK  status: ('A' for Active; 'I' for Inactive)
REMARK    1  A    between atoms: C_1  and  N_2 
REMARK    2  A    between atoms: C_1  and  O_19 
REMARK       I    between atoms: N_2  and  C_3 
REMARK       I    between atoms: C_3  and  N_5 
REMARK    3  A    between atoms: N_5  and  C_6 
REMARK    4  A    between atoms: N_5  and  C_8 
REMARK    5  A    between atoms: C_6  and  O_7 
REMARK    6  A    between atoms: N_11  and  C_17 
REMARK    7  A    between atoms: N_14  and  C_15 
REMARK    8  A    between atoms: C_15  and  O_16 
REMARK    9  A    between atoms: C_17  and  O_18 
ROOT
HETATM    1  C   UNL     1     -20.940  -9.136  -0.886  1.00  0.00     0.292 A 
HETATM    2  C   UNL     1     -20.504  -8.729  -2.307  1.00  0.00     0.272 A 
HETATM    3  O   UNL     1     -19.755  -9.347  -3.053  1.00  0.00    -0.268 OA
HETATM    4  N   UNL     1     -21.168  -7.586  -2.646  1.00  0.00    -0.244 N 
HETATM    5  C   UNL     1     -21.905  -7.132  -1.606  1.00  0.00     0.332 A 
HETATM    6  O   UNL     1     -22.531  -6.086  -1.536  1.00  0.00    -0.246 OA
HETATM    7  N   UNL     1     -21.845  -8.061  -0.581  1.00  0.00    -0.282 N 
ENDROOT
BRANCH   1   8
HETATM    8  N   UNL     1     -21.536 -10.463  -0.927  1.00  0.00    -0.282 N 
HETATM    9  C   UNL     1     -20.870 -11.436  -0.213  1.00  0.00     0.323 C 
HETATM   10  N   UNL     1     -21.427 -12.673  -0.223  1.00  0.00    -0.322 N 
HETATM   11  O   UNL     1     -19.823 -11.207   0.390  1.00  0.00    -0.247 OA
HETATM   12  H   UNL     1     -22.313 -12.802  -0.700  1.00  0.00     0.166 HD
BRANCH  10  13
HETATM   13  C   UNL     1     -20.787 -13.821   0.327  1.00  0.00     0.291 C 
BRANCH  13  14
HETATM   14  O   UNL     1     -19.571 -13.976  -0.360  1.00  0.00    -0.382 OA
HETATM   15  H   UNL     1     -19.102 -13.137  -0.202  1.00  0.00     0.211 HD
ENDBRANCH  13  14
ENDBRANCH  10  13
BRANCH   8  16
HETATM   16  C   UNL     1     -22.828 -10.613  -1.575  1.00  0.00     0.297 C 
BRANCH  16  17
HETATM   17  O   UNL     1     -23.846 -10.724  -0.603  1.00  0.00    -0.382 OA
HETATM   18  H   UNL     1     -23.429 -10.496   0.245  1.00  0.00     0.211 HD
ENDBRANCH  16  17
ENDBRANCH   8  16
ENDBRANCH   1   8
BRANCH   7  19
HETATM   19  C   UNL     1     -22.308  -7.813   0.750  1.00  0.00     0.297 C 
BRANCH  19  20
HETATM   20  O   UNL     1     -23.716  -7.821   0.707  1.00  0.00    -0.382 OA
HETATM   21  H   UNL     1     -23.943  -8.208  -0.160  1.00  0.00     0.211 HD
ENDBRANCH  19  20
ENDBRANCH   7  19
BRANCH   4  22
HETATM   22  C   UNL     1     -21.059  -6.951  -3.920  1.00  0.00     0.303 C 
BRANCH  22  23
HETATM   23  O   UNL     1     -22.308  -6.347  -4.216  1.00  0.00    -0.382 OA
HETATM   24  H   UNL     1     -22.109  -5.402  -4.363  1.00  0.00     0.211 HD
ENDBRANCH  22  23
ENDBRANCH   4  22
TORSDOF 9
ENDMDL
MODEL 5
REMARK VINA RESULT:      -4.8      1.929      5.252
REMARK  9 active torsions:
REMARK  status: ('A' for Active; 'I' for Inactive)
REMARK    1  A    between atoms: C_1  and  N_2 
REMARK    2  A    between atoms: C_1  and  O_19 
REMARK       I    between atoms: N_2  and  C_3 
REMARK       I    between atoms: C_3  and  N_5 
REMARK    3  A    between atoms: N_5  and  C_6 
REMARK    4  A    between atoms: N_5  and  C_8 
REMARK    5  A    between atoms: C_6  and  O_7 
REMARK    6  A    between atoms: N_11  and  C_17 
REMARK    7  A    between atoms: N_14  and  C_15 
REMARK    8  A    between atoms: C_15  and  O_16 
REMARK    9  A    between atoms: C_17  and  O_18 
ROOT
HETATM    1  C   UNL     1     -21.517  -8.902  -3.311  1.00  0.00     0.292 A 
HETATM    2  C   UNL     1     -21.874  -9.058  -1.820  1.00  0.00     0.272 A 
HETATM    3  O   UNL     1     -21.959 -10.104  -1.189  1.00  0.00    -0.268 OA
HETATM    4  N   UNL     1     -21.998  -7.811  -1.279  1.00  0.00    -0.244 N 
HETATM    5  C   UNL     1     -21.870  -6.859  -2.231  1.00  0.00     0.332 A 
HETATM    6  O   UNL     1     -22.032  -5.655  -2.108  1.00  0.00    -0.246 OA
HETATM    7  N   UNL     1     -21.518  -7.468  -3.424  1.00  0.00    -0.282 N 
ENDROOT
BRANCH   1   8
HETATM    8  N   UNL     1     -20.241  -9.549  -3.571  1.00  0.00    -0.282 N 
HETATM    9  C   UNL     1     -20.185 -10.315  -4.717  1.00  0.00     0.323 C 
HETATM   10  N   UNL     1     -18.994 -10.906  -4.985  1.00  0.00    -0.322 N 
HETATM   11  O   UNL     1     -21.160 -10.469  -5.451  1.00  0.00    -0.247 OA
HETATM   12  H   UNL     1     -18.209 -10.714  -4.372  1.00  0.00     0.166 HD
BRANCH  10  13
HETATM   13  C   UNL     1     -18.811 -11.852  -6.034  1.00  0.00     0.291 C 
BRANCH  13  14
HETATM   14  O   UNL     1     -18.863 -11.135  -7.241  1.00  0.00    -0.382 OA
HETATM   15  H   UNL     1     -19.639 -11.502  -7.701  1.00  0.00     0.211 HD
ENDBRANCH  13  14
ENDBRANCH  10  13
BRANCH   8  16
HETATM   16  C   UNL     1     -19.119  -9.222  -2.708  1.00  0.00     0.297 C 
BRANCH  16  17
HETATM   17  O   UNL     1     -18.757 -10.348  -1.938  1.00  0.00    -0.382 OA
HETATM   18  H   UNL     1     -19.549 -10.585  -1.425  1.00  0.00     0.211 HD
ENDBRANCH  16  17
ENDBRANCH   8  16
ENDBRANCH   1   8
BRANCH   7  19
HETATM   19  C   UNL     1     -21.526  -6.806  -4.692  1.00  0.00     0.297 C 
BRANCH  19  20
HETATM   20  O   UNL     1     -22.799  -6.222  -4.847  1.00  0.00    -0.382 OA
HETATM   21  H   UNL     1     -22.795  -5.444  -4.257  1.00  0.00     0.211 HD
ENDBRANCH  19  20
ENDBRANCH   7  19
BRANCH   4  22
HETATM   22  C   UNL     1     -22.263  -7.568   0.103  1.00  0.00     0.303 C 
BRANCH  22  23
HETATM   23  O   UNL     1     -23.646  -7.793   0.329  1.00  0.00    -0.382 OA
HETATM   24  H   UNL     1     -23.981  -8.187  -0.498  1.00  0.00     0.211 HD
ENDBRANCH  22  23
ENDBRANCH   4  22
TORSDOF 9
ENDMDL
MODEL 6
REMARK VINA RESULT:      -4.8     13.361     16.150
REMARK  9 active torsions:
REMARK  status: ('A' for Active; 'I' for Inactive)
REMARK    1  A    between atoms: C_1  and  N_2 
REMARK    2  A    between atoms: C_1  and  O_19 
REMARK       I    between atoms: N_2  and  C_3 
REMARK       I    between atoms: C_3  and  N_5 
REMARK    3  A    between atoms: N_5  and  C_6 
REMARK    4  A    between atoms: N_5  and  C_8 
REMARK    5  A    between atoms: C_6  and  O_7 
REMARK    6  A    between atoms: N_11  and  C_17 
REMARK    7  A    between atoms: N_14  and  C_15 
REMARK    8  A    between atoms: C_15  and  O_16 
REMARK    9  A    between atoms: C_17  and  O_18 
ROOT
HETATM    1  C   UNL     1     -26.718  -6.136 -18.248  1.00  0.00     0.292 A 
HETATM    2  C   UNL     1     -28.219  -5.801 -18.160  1.00  0.00     0.272 A 
HETATM    3  O   UNL     1     -28.904  -5.258 -19.018  1.00  0.00    -0.268 OA
HETATM    4  N   UNL     1     -28.698  -6.293 -16.980  1.00  0.00    -0.244 N 
HETATM    5  C   UNL     1     -27.697  -6.818 -16.238  1.00  0.00     0.332 A 
HETATM    6  O   UNL     1     -27.760  -7.243 -15.094  1.00  0.00    -0.246 OA
HETATM    7  N   UNL     1     -26.532  -6.803 -16.987  1.00  0.00    -0.282 N 
ENDROOT
BRANCH   1   8
HETATM    8  N   UNL     1     -26.475  -6.952 -19.428  1.00  0.00    -0.282 N 
HETATM    9  C   UNL     1     -25.157  -7.048 -19.824  1.00  0.00     0.323 C 
HETATM   10  N   UNL     1     -24.913  -7.824 -20.908  1.00  0.00    -0.322 N 
HETATM   11  O   UNL     1     -24.252  -6.455 -19.239  1.00  0.00    -0.247 OA
HETATM   12  H   UNL     1     -25.687  -8.325 -21.330  1.00  0.00     0.166 HD
BRANCH  10  13
HETATM   13  C   UNL     1     -23.638  -7.902 -21.541  1.00  0.00     0.291 C 
BRANCH  13  14
HETATM   14  O   UNL     1     -22.906  -8.886 -20.856  1.00  0.00    -0.382 OA
HETATM   15  H   UNL     1     -22.248  -8.380 -20.347  1.00  0.00     0.211 HD
ENDBRANCH  13  14
ENDBRANCH  10  13
BRANCH   8  16
HETATM   16  C   UNL     1     -27.590  -7.698 -19.985  1.00  0.00     0.297 C 
BRANCH  16  17
HETATM   17  O   UNL     1     -27.137  -8.544 -21.020  1.00  0.00    -0.382 OA
HETATM   18  H   UNL     1     -27.490  -9.427 -20.814  1.00  0.00     0.211 HD
ENDBRANCH  16  17
ENDBRANCH   8  16
ENDBRANCH   1   8
BRANCH   7  19
HETATM   19  C   UNL     1     -25.232  -7.061 -16.449  1.00  0.00     0.297 C 
BRANCH  19  20
HETATM   20  O   UNL     1     -24.905  -5.974 -15.614  1.00  0.00    -0.382 OA
HETATM   21  H   UNL     1     -24.323  -6.349 -14.925  1.00  0.00     0.211 HD
ENDBRANCH  19  20
ENDBRANCH   7  19
BRANCH   4  22
HETATM   22  C   UNL     1     -30.068  -6.221 -16.587  1.00  0.00     0.303 C 
BRANCH  22  23
HETATM   23  O   UNL     1     -30.141  -5.461 -15.391  1.00  0.00    -0.382 OA
HETATM   24  H   UNL     1     -29.943  -4.542 -15.658  1.00  0.00     0.211 HD
ENDBRANCH  22  23
ENDBRANCH   4  22
TORSDOF 9
ENDMDL
MODEL 7
REMARK VINA RESULT:      -4.5      2.312      4.382
REMARK  9 active torsions:
REMARK  status: ('A' for Active; 'I' for Inactive)
REMARK    1  A    between atoms: C_1  and  N_2 
REMARK    2  A    between atoms: C_1  and  O_19 
REMARK       I    between atoms: N_2  and  C_3 
REMARK       I    between atoms: C_3  and  N_5 
REMARK    3  A    between atoms: N_5  and  C_6 
REMARK    4  A    between atoms: N_5  and  C_8 
REMARK    5  A    between atoms: C_6  and  O_7 
REMARK    6  A    between atoms: N_11  and  C_17 
REMARK    7  A    between atoms: N_14  and  C_15 
REMARK    8  A    between atoms: C_15  and  O_16 
REMARK    9  A    between atoms: C_17  and  O_18 
ROOT
HETATM    1  C   UNL     1     -19.721  -8.835  -3.069  1.00  0.00     0.292 A 
HETATM    2  C   UNL     1     -18.626  -9.915  -2.976  1.00  0.00     0.272 A 
HETATM    3  O   UNL     1     -18.280 -10.528  -1.974  1.00  0.00    -0.268 OA
HETATM    4  N   UNL     1     -18.150 -10.149  -4.234  1.00  0.00    -0.244 N 
HETATM    5  C   UNL     1     -18.712  -9.301  -5.126  1.00  0.00     0.332 A 
HETATM    6  O   UNL     1     -18.433  -9.170  -6.308  1.00  0.00    -0.246 OA
HETATM    7  N   UNL     1     -19.690  -8.563  -4.481  1.00  0.00    -0.282 N 
ENDROOT
BRANCH   1   8
HETATM    8  N   UNL     1     -20.974  -9.374  -2.563  1.00  0.00    -0.282 N 
HETATM    9  C   UNL     1     -21.430  -8.814  -1.387  1.00  0.00     0.323 C 
HETATM   10  N   UNL     1     -22.609  -9.291  -0.916  1.00  0.00    -0.322 N 
HETATM   11  O   UNL     1     -20.802  -7.943  -0.789  1.00  0.00    -0.247 OA
HETATM   12  H   UNL     1     -23.109  -9.979  -1.467  1.00  0.00     0.166 HD
BRANCH  10  13
HETATM   13  C   UNL     1     -23.138  -8.939   0.359  1.00  0.00     0.291 C 
BRANCH  13  14
HETATM   14  O   UNL     1     -23.580  -7.608   0.261  1.00  0.00    -0.382 OA
HETATM   15  H   UNL     1     -23.376  -7.358  -0.658  1.00  0.00     0.211 HD
ENDBRANCH  13  14
ENDBRANCH  10  13
BRANCH   8  16
HETATM   16  C   UNL     1     -21.695 -10.323  -3.393  1.00  0.00     0.297 C 
BRANCH  16  17
HETATM   17  O   UNL     1     -21.804 -11.562  -2.727  1.00  0.00    -0.382 OA
HETATM   18  H   UNL     1     -21.015 -11.631  -2.163  1.00  0.00     0.211 HD
ENDBRANCH  16  17
ENDBRANCH   8  16
ENDBRANCH   1   8
BRANCH   7  19
HETATM   19  C   UNL     1     -20.327  -7.414  -5.047  1.00  0.00     0.297 C 
BRANCH  19  20
HETATM   20  O   UNL     1     -21.131  -7.869  -6.112  1.00  0.00    -0.382 OA
HETATM   21  H   UNL     1     -21.943  -8.211  -5.690  1.00  0.00     0.211 HD
ENDBRANCH  19  20
ENDBRANCH   7  19
BRANCH   4  22
HETATM   22  C   UNL     1     -17.166 -11.137  -4.539  1.00  0.00     0.303 C 
BRANCH  22  23
HETATM   23  O   UNL     1     -15.973 -10.793  -3.852  1.00  0.00    -0.382 OA
HETATM   24  H   UNL     1     -15.585 -10.057  -4.362  1.00  0.00     0.211 HD
ENDBRANCH  22  23
ENDBRANCH   4  22
TORSDOF 9
ENDMDL
MODEL 8
REMARK VINA RESULT:      -4.3      2.560      6.382
REMARK  9 active torsions:
REMARK  status: ('A' for Active; 'I' for Inactive)
REMARK    1  A    between atoms: C_1  and  N_2 
REMARK    2  A    between atoms: C_1  and  O_19 
REMARK       I    between atoms: N_2  and  C_3 
REMARK       I    between atoms: C_3  and  N_5 
REMARK    3  A    between atoms: N_5  and  C_6 
REMARK    4  A    between atoms: N_5  and  C_8 
REMARK    5  A    between atoms: C_6  and  O_7 
REMARK    6  A    between atoms: N_11  and  C_17 
REMARK    7  A    between atoms: N_14  and  C_15 
REMARK    8  A    between atoms: C_15  and  O_16 
REMARK    9  A    between atoms: C_17  and  O_18 
ROOT
HETATM    1  C   UNL     1     -21.218 -10.149  -2.080  1.00  0.00     0.292 A 
HETATM    2  C   UNL     1     -19.806 -10.636  -1.698  1.00  0.00     0.272 A 
HETATM    3  O   UNL     1     -18.757 -10.378  -2.276  1.00  0.00    -0.268 OA
HETATM    4  N   UNL     1     -19.900 -11.346  -0.536  1.00  0.00    -0.244 N 
HETATM    5  C   UNL     1     -21.191 -11.475  -0.155  1.00  0.00     0.332 A 
HETATM    6  O   UNL     1     -21.632 -12.136   0.773  1.00  0.00    -0.246 OA
HETATM    7  N   UNL     1     -21.983 -10.723  -1.006  1.00  0.00    -0.282 N 
ENDROOT
BRANCH   1   8
HETATM    8  N   UNL     1     -21.225  -8.696  -2.145  1.00  0.00    -0.282 N 
HETATM    9  C   UNL     1     -21.411  -8.158  -3.402  1.00  0.00     0.323 C 
HETATM   10  N   UNL     1     -21.443  -6.804  -3.474  1.00  0.00    -0.322 N 
HETATM   11  O   UNL     1     -21.528  -8.860  -4.405  1.00  0.00    -0.247 OA
HETATM   12  H   UNL     1     -21.384  -6.271  -2.614  1.00  0.00     0.166 HD
BRANCH  10  13
HETATM   13  C   UNL     1     -21.467  -6.090  -4.706  1.00  0.00     0.291 C 
BRANCH  13  14
HETATM   14  O   UNL     1     -20.297  -6.441  -5.401  1.00  0.00    -0.382 OA
HETATM   15  H   UNL     1     -19.591  -6.346  -4.738  1.00  0.00     0.211 HD
ENDBRANCH  13  14
ENDBRANCH  10  13
BRANCH   8  16
HETATM   16  C   UNL     1     -21.187  -7.955  -0.896  1.00  0.00     0.297 C 
BRANCH  16  17
HETATM   17  O   UNL     1     -22.452  -7.385  -0.634  1.00  0.00    -0.382 OA
HETATM   18  H   UNL     1     -23.068  -8.134  -0.553  1.00  0.00     0.211 HD
ENDBRANCH  16  17
ENDBRANCH   8  16
ENDBRANCH   1   8
BRANCH   7  19
HETATM   19  C   UNL     1     -23.410 -10.807  -1.051  1.00  0.00     0.297 C 
BRANCH  19  20
HETATM   20  O   UNL     1     -23.903 -10.081   0.052  1.00  0.00    -0.382 OA
HETATM   21  H   UNL     1     -24.492  -9.404  -0.331  1.00  0.00     0.211 HD
ENDBRANCH  19  20
ENDBRANCH   7  19
BRANCH   4  22
HETATM   22  C   UNL     1     -18.776 -11.897   0.150  1.00  0.00     0.303 C 
BRANCH  22  23
HETATM   23  O   UNL     1     -18.969 -13.300   0.247  1.00  0.00    -0.382 OA
HETATM   24  H   UNL     1     -19.046 -13.614  -0.674  1.00  0.00     0.211 HD
ENDBRANCH  22  23
ENDBRANCH   4  22
TORSDOF 9
ENDMDL
MODEL 9
REMARK VINA RESULT:      -4.1      2.799      4.838
REMARK  9 active torsions:
REMARK  status: ('A' for Active; 'I' for Inactive)
REMARK    1  A    between atoms: C_1  and  N_2 
REMARK    2  A    between atoms: C_1  and  O_19 
REMARK       I    between atoms: N_2  and  C_3 
REMARK       I    between atoms: C_3  and  N_5 
REMARK    3  A    between atoms: N_5  and  C_6 
REMARK    4  A    between atoms: N_5  and  C_8 
REMARK    5  A    between atoms: C_6  and  O_7 
REMARK    6  A    between atoms: N_11  and  C_17 
REMARK    7  A    between atoms: N_14  and  C_15 
REMARK    8  A    between atoms: C_15  and  O_16 
REMARK    9  A    between atoms: C_17  and  O_18 
ROOT
HETATM    1  C   UNL     1     -19.298 -10.463  -3.547  1.00  0.00     0.292 A 
HETATM    2  C   UNL     1     -19.629 -11.281  -4.810  1.00  0.00     0.272 A 
HETATM    3  O   UNL     1     -20.743 -11.529  -5.256  1.00  0.00    -0.268 OA
HETATM    4  N   UNL     1     -18.455 -11.623  -5.417  1.00  0.00    -0.244 N 
HETATM    5  C   UNL     1     -17.397 -11.225  -4.673  1.00  0.00     0.332 A 
HETATM    6  O   UNL     1     -16.216 -11.463  -4.871  1.00  0.00    -0.246 OA
HETATM    7  N   UNL     1     -17.861 -10.480  -3.603  1.00  0.00    -0.282 N 
ENDROOT
BRANCH   1   8
HETATM    8  N   UNL     1     -19.912  -9.148  -3.651  1.00  0.00    -0.282 N 
HETATM    9  C   UNL     1     -20.557  -8.702  -2.516  1.00  0.00     0.323 C 
HETATM   10  N   UNL     1     -21.114  -7.468  -2.590  1.00  0.00    -0.322 N 
HETATM   11  O   UNL     1     -20.638  -9.384  -1.496  1.00  0.00    -0.247 OA
HETATM   12  H   UNL     1     -20.985  -6.927  -3.438  1.00  0.00     0.166 HD
BRANCH  10  13
HETATM   13  C   UNL     1     -21.949  -6.926  -1.570  1.00  0.00     0.291 C 
BRANCH  13  14
HETATM   14  O   UNL     1     -22.622  -5.830  -2.137  1.00  0.00    -0.382 OA
HETATM   15  H   UNL     1     -22.510  -5.954  -3.096  1.00  0.00     0.211 HD
ENDBRANCH  13  14
ENDBRANCH  10  13
BRANCH   8  16
HETATM   16  C   UNL     1     -19.672  -8.374  -4.856  1.00  0.00     0.297 C 
BRANCH  16  17
HETATM   17  O   UNL     1     -20.839  -8.340  -5.650  1.00  0.00    -0.382 OA
HETATM   18  H   UNL     1     -20.532  -8.358  -6.573  1.00  0.00     0.211 HD
ENDBRANCH  16  17
ENDBRANCH   8  16
ENDBRANCH   1   8
BRANCH   7  19
HETATM   19  C   UNL     1     -17.053 -10.097  -2.486  1.00  0.00     0.297 C 
BRANCH  19  20
HETATM   20  O   UNL     1     -16.021  -9.276  -2.984  1.00  0.00    -0.382 OA
HETATM   21  H   UNL     1     -15.320  -9.893  -3.266  1.00  0.00     0.211 HD
ENDBRANCH  19  20
ENDBRANCH   7  19
BRANCH   4  22
HETATM   22  C   UNL     1     -18.377 -12.334  -6.652  1.00  0.00     0.303 C 
BRANCH  22  23
HETATM   23  O   UNL     1     -18.958 -11.522  -7.661  1.00  0.00    -0.382 OA
HETATM   24  H   UNL     1     -18.675 -11.920  -8.506  1.00  0.00     0.211 HD
ENDBRANCH  22  23
ENDBRANCH   4  22
TORSDOF 9
ENDMDL
