MODEL 1
REMARK VINA RESULT:      -5.9      0.000      0.000
REMARK  18 active torsions:
REMARK  status: ('A' for Active; 'I' for Inactive)
REMARK    1  A    between atoms: C_1  and  C_2 
REMARK    2  A    between atoms: C_1  and  O_34 
REMARK    3  A    between atoms: C_3  and  O_33 
REMARK    4  A    between atoms: C_4  and  O_32 
REMARK    5  A    between atoms: C_5  and  O_31 
REMARK    6  A    between atoms: C_6  and  O_8 
REMARK    7  A    between atoms: O_8  and  C_9 
REMARK    8  A    between atoms: C_10  and  C_29 
REMARK    9  A    between atoms: C_12  and  O_17 
REMARK   10  A    between atoms: C_13  and  O_16 
REMARK   11  A    between atoms: C_14  and  O_15 
REMARK   12  A    between atoms: O_17  and  C_18 
REMARK   13  A    between atoms: C_19  and  C_27 
REMARK   14  A    between atoms: C_21  and  O_26 
REMARK   15  A    between atoms: C_22  and  O_25 
REMARK   16  A    between atoms: C_23  and  O_24 
REMARK   17  A    between atoms: C_27  and  O_28 
REMARK   18  A    between atoms: C_29  and  O_30 
ROOT
HETATM    1  C   UNL     1     -21.216  -4.691  -7.703  1.00  0.00     0.187 C 
HETATM    2  C   UNL     1     -19.857  -5.254  -7.234  1.00  0.00     0.180 C 
HETATM    3  O   UNL     1     -19.954  -6.653  -6.927  1.00  0.00    -0.348 OA
HETATM    4  C   UNL     1     -20.931  -7.059  -5.971  1.00  0.00     0.292 C 
HETATM    5  C   UNL     1     -22.315  -6.340  -6.119  1.00  0.00     0.204 C 
HETATM    6  C   UNL     1     -22.227  -4.872  -6.565  1.00  0.00     0.183 C 
ENDROOT
BRANCH   1   7
HETATM    7  O   UNL     1     -21.551  -5.394  -8.920  1.00  0.00    -0.348 OA
BRANCH   7   8
HETATM    8  C   UNL     1     -22.279  -4.761  -9.979  1.00  0.00     0.292 C 
HETATM    9  C   UNL     1     -21.536  -4.604 -11.334  1.00  0.00     0.204 C 
HETATM   10  C   UNL     1     -22.476  -3.937 -12.348  1.00  0.00     0.183 C 
HETATM   11  C   UNL     1     -23.053  -2.621 -11.794  1.00  0.00     0.180 C 
HETATM   12  C   UNL     1     -23.749  -2.868 -10.447  1.00  0.00     0.179 C 
HETATM   13  O   UNL     1     -22.884  -3.557  -9.509  1.00  0.00    -0.348 OA
BRANCH   9  14
HETATM   14  O   UNL     1     -20.335  -3.814 -11.286  1.00  0.00    -0.388 OA
HETATM   15  H   UNL     1     -19.576  -4.406 -11.507  1.00  0.00     0.210 HD
ENDBRANCH   9  14
BRANCH  10  16
HETATM   16  O   UNL     1     -21.784  -3.678 -13.579  1.00  0.00    -0.390 OA
HETATM   17  H   UNL     1     -21.270  -4.481 -13.793  1.00  0.00     0.210 HD
ENDBRANCH  10  16
BRANCH  11  18
HETATM   18  O   UNL     1     -22.020  -1.650 -11.572  1.00  0.00    -0.390 OA
HETATM   19  H   UNL     1     -21.172  -2.123 -11.486  1.00  0.00     0.210 HD
ENDBRANCH  11  18
BRANCH  12  20
HETATM   20  C   UNL     1     -25.098  -3.583 -10.603  1.00  0.00     0.198 C 
BRANCH  20  21
HETATM   21  O   UNL     1     -26.006  -3.179  -9.584  1.00  0.00    -0.398 OA
HETATM   22  H   UNL     1     -26.581  -2.490  -9.965  1.00  0.00     0.209 HD
ENDBRANCH  20  21
ENDBRANCH  12  20
ENDBRANCH   7   8
ENDBRANCH   1   7
BRANCH   2  23
HETATM   23  C   UNL     1     -19.158  -4.426  -6.131  1.00  0.00     0.198 C 
BRANCH  23  24
HETATM   24  O   UNL     1     -19.845  -4.424  -4.884  1.00  0.00    -0.398 OA
HETATM   25  H   UNL     1     -19.881  -5.345  -4.559  1.00  0.00     0.209 HD
ENDBRANCH  23  24
ENDBRANCH   2  23
BRANCH   6  26
HETATM   26  O   UNL     1     -23.491  -4.302  -6.935  1.00  0.00    -0.390 OA
HETATM   27  H   UNL     1     -24.141  -5.038  -6.953  1.00  0.00     0.210 HD
ENDBRANCH   6  26
BRANCH   5  28
HETATM   28  O   UNL     1     -23.118  -6.459  -4.939  1.00  0.00    -0.388 OA
HETATM   29  H   UNL     1     -22.716  -7.164  -4.399  1.00  0.00     0.210 HD
ENDBRANCH   5  28
BRANCH   4  30
HETATM   30  O   UNL     1     -20.395  -7.111  -4.625  1.00  0.00    -0.348 OA
BRANCH  30  31
HETATM   31  C   UNL     1     -19.826  -8.423  -4.300  1.00  0.00     0.187 C 
HETATM   32  C   UNL     1     -20.225  -9.542  -5.297  1.00  0.00     0.180 C 
HETATM   33  O   UNL     1     -21.586  -9.966  -5.120  1.00  0.00    -0.349 OA
HETATM   34  C   UNL     1     -21.960 -10.403  -3.829  1.00  0.00     0.288 C 
HETATM   35  C   UNL     1     -21.642  -9.380  -2.725  1.00  0.00     0.204 C 
HETATM   36  C   UNL     1     -20.209  -8.830  -2.864  1.00  0.00     0.183 C 
BRANCH  32  37
HETATM   37  C   UNL     1     -19.235 -10.725  -5.259  1.00  0.00     0.198 C 
BRANCH  37  38
HETATM   38  O   UNL     1     -19.687 -11.770  -6.115  1.00  0.00    -0.398 OA
HETATM   39  H   UNL     1     -20.252 -12.345  -5.560  1.00  0.00     0.209 HD
ENDBRANCH  37  38
ENDBRANCH  32  37
BRANCH  34  40
HETATM   40  O   UNL     1     -21.407 -11.686  -3.546  1.00  0.00    -0.369 OA
HETATM   41  H   UNL     1     -21.244 -11.737  -2.587  1.00  0.00     0.212 HD
ENDBRANCH  34  40
BRANCH  35  42
HETATM   42  O   UNL     1     -21.773 -10.024  -1.439  1.00  0.00    -0.388 OA
HETATM   43  H   UNL     1     -22.483  -9.582  -0.939  1.00  0.00     0.210 HD
ENDBRANCH  35  42
BRANCH  36  44
HETATM   44  O   UNL     1     -19.993  -7.732  -1.965  1.00  0.00    -0.390 OA
HETATM   45  H   UNL     1     -20.477  -6.968  -2.337  1.00  0.00     0.210 HD
ENDBRANCH  36  44
ENDBRANCH  30  31
ENDBRANCH   4  30
TORSDOF 18
ENDMDL
MODEL 2
REMARK VINA RESULT:      -5.9      1.005      2.200
REMARK  18 active torsions:
REMARK  status: ('A' for Active; 'I' for Inactive)
REMARK    1  A    between atoms: C_1  and  C_2 
REMARK    2  A    between atoms: C_1  and  O_34 
REMARK    3  A    between atoms: C_3  and  O_33 
REMARK    4  A    between atoms: C_4  and  O_32 
REMARK    5  A    between atoms: C_5  and  O_31 
REMARK    6  A    between atoms: C_6  and  O_8 
REMARK    7  A    between atoms: O_8  and  C_9 
REMARK    8  A    between atoms: C_10  and  C_29 
REMARK    9  A    between atoms: C_12  and  O_17 
REMARK   10  A    between atoms: C_13  and  O_16 
REMARK   11  A    between atoms: C_14  and  O_15 
REMARK   12  A    between atoms: O_17  and  C_18 
REMARK   13  A    between atoms: C_19  and  C_27 
REMARK   14  A    between atoms: C_21  and  O_26 
REMARK   15  A    between atoms: C_22  and  O_25 
REMARK   16  A    between atoms: C_23  and  O_24 
REMARK   17  A    between atoms: C_27  and  O_28 
REMARK   18  A    between atoms: C_29  and  O_30 
ROOT
HETATM    1  C   UNL     1     -21.244  -4.682  -7.873  1.00  0.00     0.187 C 
HETATM    2  C   UNL     1     -19.932  -5.336  -7.387  1.00  0.00     0.180 C 
HETATM    3  O   UNL     1     -20.124  -6.728  -7.096  1.00  0.00    -0.348 OA
HETATM    4  C   UNL     1     -21.141  -7.078  -6.160  1.00  0.00     0.292 C 
HETATM    5  C   UNL     1     -22.473  -6.271  -6.323  1.00  0.00     0.204 C 
HETATM    6  C   UNL     1     -22.283  -4.808  -6.752  1.00  0.00     0.183 C 
ENDROOT
BRANCH   1   7
HETATM    7  O   UNL     1     -21.603  -5.351  -9.102  1.00  0.00    -0.348 OA
BRANCH   7   8
HETATM    8  C   UNL     1     -22.320  -4.677 -10.144  1.00  0.00     0.292 C 
HETATM    9  C   UNL     1     -21.599  -4.559 -11.515  1.00  0.00     0.204 C 
HETATM   10  C   UNL     1     -22.524  -3.840 -12.507  1.00  0.00     0.183 C 
HETATM   11  C   UNL     1     -23.016  -2.495 -11.940  1.00  0.00     0.180 C 
HETATM   12  C   UNL     1     -23.694  -2.706 -10.578  1.00  0.00     0.179 C 
HETATM   13  O   UNL     1     -22.847  -3.443  -9.659  1.00  0.00    -0.348 OA
BRANCH   9  14
HETATM   14  O   UNL     1     -20.356  -3.835 -11.493  1.00  0.00    -0.388 OA
HETATM   15  H   UNL     1     -20.252  -3.391 -12.368  1.00  0.00     0.210 HD
ENDBRANCH   9  14
BRANCH  10  16
HETATM   16  O   UNL     1     -21.846  -3.617 -13.753  1.00  0.00    -0.390 OA
HETATM   17  H   UNL     1     -21.722  -4.490 -14.173  1.00  0.00     0.210 HD
ENDBRANCH  10  16
BRANCH  11  18
HETATM   18  O   UNL     1     -21.927  -1.582 -11.740  1.00  0.00    -0.390 OA
HETATM   19  H   UNL     1     -21.377  -1.585 -12.545  1.00  0.00     0.210 HD
ENDBRANCH  11  18
BRANCH  12  20
HETATM   20  C   UNL     1     -25.083  -3.347 -10.703  1.00  0.00     0.198 C 
BRANCH  20  21
HETATM   21  O   UNL     1     -25.735  -3.395  -9.439  1.00  0.00    -0.398 OA
HETATM   22  H   UNL     1     -26.662  -3.651  -9.600  1.00  0.00     0.209 HD
ENDBRANCH  20  21
ENDBRANCH  12  20
ENDBRANCH   7   8
ENDBRANCH   1   7
BRANCH   2  23
HETATM   23  C   UNL     1     -19.200  -4.565  -6.265  1.00  0.00     0.198 C 
BRANCH  23  24
HETATM   24  O   UNL     1     -19.932  -4.478  -5.047  1.00  0.00    -0.398 OA
HETATM   25  H   UNL     1     -20.761  -4.983  -5.158  1.00  0.00     0.209 HD
ENDBRANCH  23  24
ENDBRANCH   2  23
BRANCH   6  26
HETATM   26  O   UNL     1     -23.502  -4.153  -7.137  1.00  0.00    -0.390 OA
HETATM   27  H   UNL     1     -23.264  -3.487  -7.818  1.00  0.00     0.210 HD
ENDBRANCH   6  26
BRANCH   5  28
HETATM   28  O   UNL     1     -23.302  -6.348  -5.157  1.00  0.00    -0.388 OA
HETATM   29  H   UNL     1     -22.848  -5.838  -4.460  1.00  0.00     0.210 HD
ENDBRANCH   5  28
BRANCH   4  30
HETATM   30  O   UNL     1     -20.632  -7.178  -4.805  1.00  0.00    -0.348 OA
BRANCH  30  31
HETATM   31  C   UNL     1     -20.910  -8.482  -4.197  1.00  0.00     0.187 C 
HETATM   32  C   UNL     1     -21.127  -8.423  -2.662  1.00  0.00     0.180 C 
HETATM   33  O   UNL     1     -19.896  -8.229  -1.948  1.00  0.00    -0.349 OA
HETATM   34  C   UNL     1     -18.860  -9.159  -2.188  1.00  0.00     0.288 C 
HETATM   35  C   UNL     1     -18.515  -9.314  -3.680  1.00  0.00     0.204 C 
HETATM   36  C   UNL     1     -19.786  -9.479  -4.536  1.00  0.00     0.183 C 
BRANCH  32  37
HETATM   37  C   UNL     1     -21.916  -9.645  -2.145  1.00  0.00     0.198 C 
BRANCH  37  38
HETATM   38  O   UNL     1     -21.980  -9.621  -0.723  1.00  0.00    -0.398 OA
HETATM   39  H   UNL     1     -21.056  -9.533  -0.415  1.00  0.00     0.209 HD
ENDBRANCH  37  38
ENDBRANCH  32  37
BRANCH  34  40
HETATM   40  O   UNL     1     -19.149 -10.412  -1.573  1.00  0.00    -0.369 OA
HETATM   41  H   UNL     1     -18.342 -10.716  -1.117  1.00  0.00     0.212 HD
ENDBRANCH  34  40
BRANCH  35  42
HETATM   42  O   UNL     1     -17.681 -10.481  -3.848  1.00  0.00    -0.388 OA
HETATM   43  H   UNL     1     -18.244 -11.231  -4.111  1.00  0.00     0.210 HD
ENDBRANCH  35  42
BRANCH  36  44
HETATM   44  O   UNL     1     -19.472  -9.413  -5.935  1.00  0.00    -0.390 OA
HETATM   45  H   UNL     1     -19.762 -10.260  -6.327  1.00  0.00     0.210 HD
ENDBRANCH  36  44
ENDBRANCH  30  31
ENDBRANCH   4  30
TORSDOF 18
ENDMDL
MODEL 3
REMARK VINA RESULT:      -5.6      4.111      7.525
REMARK  18 active torsions:
REMARK  status: ('A' for Active; 'I' for Inactive)
REMARK    1  A    between atoms: C_1  and  C_2 
REMARK    2  A    between atoms: C_1  and  O_34 
REMARK    3  A    between atoms: C_3  and  O_33 
REMARK    4  A    between atoms: C_4  and  O_32 
REMARK    5  A    between atoms: C_5  and  O_31 
REMARK    6  A    between atoms: C_6  and  O_8 
REMARK    7  A    between atoms: O_8  and  C_9 
REMARK    8  A    between atoms: C_10  and  C_29 
REMARK    9  A    between atoms: C_12  and  O_17 
REMARK   10  A    between atoms: C_13  and  O_16 
REMARK   11  A    between atoms: C_14  and  O_15 
REMARK   12  A    between atoms: O_17  and  C_18 
REMARK   13  A    between atoms: C_19  and  C_27 
REMARK   14  A    between atoms: C_21  and  O_26 
REMARK   15  A    between atoms: C_22  and  O_25 
REMARK   16  A    between atoms: C_23  and  O_24 
REMARK   17  A    between atoms: C_27  and  O_28 
REMARK   18  A    between atoms: C_29  and  O_30 
ROOT
HETATM    1  C   UNL     1     -19.599 -10.212  -4.947  1.00  0.00     0.187 C 
HETATM    2  C   UNL     1     -18.455 -10.327  -3.916  1.00  0.00     0.180 C 
HETATM    3  O   UNL     1     -17.186 -10.493  -4.567  1.00  0.00    -0.348 OA
HETATM    4  C   UNL     1     -17.043 -11.580  -5.478  1.00  0.00     0.292 C 
HETATM    5  C   UNL     1     -18.276 -11.801  -6.418  1.00  0.00     0.204 C 
HETATM    6  C   UNL     1     -19.636 -11.508  -5.765  1.00  0.00     0.183 C 
ENDROOT
BRANCH   1   7
HETATM    7  O   UNL     1     -19.334  -9.022  -5.721  1.00  0.00    -0.348 OA
BRANCH   7   8
HETATM    8  C   UNL     1     -19.859  -7.744  -5.342  1.00  0.00     0.292 C 
HETATM    9  C   UNL     1     -20.769  -7.715  -4.083  1.00  0.00     0.204 C 
HETATM   10  C   UNL     1     -21.210  -6.268  -3.816  1.00  0.00     0.183 C 
HETATM   11  C   UNL     1     -21.849  -5.638  -5.067  1.00  0.00     0.180 C 
HETATM   12  C   UNL     1     -20.889  -5.730  -6.262  1.00  0.00     0.179 C 
HETATM   13  O   UNL     1     -20.420  -7.086  -6.477  1.00  0.00    -0.348 OA
BRANCH   9  14
HETATM   14  O   UNL     1     -21.963  -8.512  -4.173  1.00  0.00    -0.388 OA
HETATM   15  H   UNL     1     -21.758  -9.300  -4.730  1.00  0.00     0.210 HD
ENDBRANCH   9  14
BRANCH  10  16
HETATM   16  O   UNL     1     -22.141  -6.222  -2.724  1.00  0.00    -0.390 OA
HETATM   17  H   UNL     1     -23.036  -6.294  -3.107  1.00  0.00     0.210 HD
ENDBRANCH  10  16
BRANCH  11  18
HETATM   18  O   UNL     1     -23.059  -6.318  -5.434  1.00  0.00    -0.390 OA
HETATM   19  H   UNL     1     -23.514  -5.782  -6.111  1.00  0.00     0.210 HD
ENDBRANCH  11  18
BRANCH  12  20
HETATM   20  C   UNL     1     -19.722  -4.739  -6.159  1.00  0.00     0.198 C 
BRANCH  20  21
HETATM   21  O   UNL     1     -19.154  -4.491  -7.440  1.00  0.00    -0.398 OA
HETATM   22  H   UNL     1     -18.557  -5.235  -7.642  1.00  0.00     0.209 HD
ENDBRANCH  20  21
ENDBRANCH  12  20
ENDBRANCH   7   8
ENDBRANCH   1   7
BRANCH   2  23
HETATM   23  C   UNL     1     -18.705 -11.344  -2.780  1.00  0.00     0.198 C 
BRANCH  23  24
HETATM   24  O   UNL     1     -17.528 -11.730  -2.078  1.00  0.00    -0.398 OA
HETATM   25  H   UNL     1     -17.412 -11.117  -1.326  1.00  0.00     0.209 HD
ENDBRANCH  23  24
ENDBRANCH   2  23
BRANCH   6  26
HETATM   26  O   UNL     1     -20.730 -11.472  -6.694  1.00  0.00    -0.390 OA
HETATM   27  H   UNL     1     -21.552 -11.597  -6.170  1.00  0.00     0.210 HD
ENDBRANCH   6  26
BRANCH   5  28
HETATM   28  O   UNL     1     -18.277 -13.101  -7.018  1.00  0.00    -0.388 OA
HETATM   29  H   UNL     1     -17.695 -13.660  -6.470  1.00  0.00     0.210 HD
ENDBRANCH   5  28
BRANCH   4  30
HETATM   30  O   UNL     1     -16.526 -12.773  -4.835  1.00  0.00    -0.348 OA
BRANCH  30  31
HETATM   31  C   UNL     1     -15.074 -12.906  -4.986  1.00  0.00     0.187 C 
HETATM   32  C   UNL     1     -14.636 -14.229  -5.670  1.00  0.00     0.180 C 
HETATM   33  O   UNL     1     -14.759 -15.359  -4.793  1.00  0.00    -0.349 OA
HETATM   34  C   UNL     1     -14.086 -15.287  -3.553  1.00  0.00     0.288 C 
HETATM   35  C   UNL     1     -14.439 -14.027  -2.742  1.00  0.00     0.204 C 
HETATM   36  C   UNL     1     -14.380 -12.761  -3.619  1.00  0.00     0.183 C 
BRANCH  32  37
HETATM   37  C   UNL     1     -13.225 -14.117  -6.285  1.00  0.00     0.198 C 
BRANCH  37  38
HETATM   38  O   UNL     1     -12.995 -12.790  -6.748  1.00  0.00    -0.398 OA
HETATM   39  H   UNL     1     -12.042 -12.620  -6.612  1.00  0.00     0.209 HD
ENDBRANCH  37  38
ENDBRANCH  32  37
BRANCH  34  40
HETATM   40  O   UNL     1     -12.680 -15.436  -3.728  1.00  0.00    -0.369 OA
HETATM   41  H   UNL     1     -12.285 -14.545  -3.756  1.00  0.00     0.212 HD
ENDBRANCH  34  40
BRANCH  35  42
HETATM   42  O   UNL     1     -13.495 -13.890  -1.658  1.00  0.00    -0.388 OA
HETATM   43  H   UNL     1     -12.911 -14.670  -1.652  1.00  0.00     0.210 HD
ENDBRANCH  35  42
BRANCH  36  44
HETATM   44  O   UNL     1     -14.908 -11.627  -2.915  1.00  0.00    -0.390 OA
HETATM   45  H   UNL     1     -14.655 -10.836  -3.431  1.00  0.00     0.210 HD
ENDBRANCH  36  44
ENDBRANCH  30  31
ENDBRANCH   4  30
TORSDOF 18
ENDMDL
MODEL 4
REMARK VINA RESULT:      -5.6      6.117      8.634
REMARK  18 active torsions:
REMARK  status: ('A' for Active; 'I' for Inactive)
REMARK    1  A    between atoms: C_1  and  C_2 
REMARK    2  A    between atoms: C_1  and  O_34 
REMARK    3  A    between atoms: C_3  and  O_33 
REMARK    4  A    between atoms: C_4  and  O_32 
REMARK    5  A    between atoms: C_5  and  O_31 
REMARK    6  A    between atoms: C_6  and  O_8 
REMARK    7  A    between atoms: O_8  and  C_9 
REMARK    8  A    between atoms: C_10  and  C_29 
REMARK    9  A    between atoms: C_12  and  O_17 
REMARK   10  A    between atoms: C_13  and  O_16 
REMARK   11  A    between atoms: C_14  and  O_15 
REMARK   12  A    between atoms: O_17  and  C_18 
REMARK   13  A    between atoms: C_19  and  C_27 
REMARK   14  A    between atoms: C_21  and  O_26 
REMARK   15  A    between atoms: C_22  and  O_25 
REMARK   16  A    between atoms: C_23  and  O_24 
REMARK   17  A    between atoms: C_27  and  O_28 
REMARK   18  A    between atoms: C_29  and  O_30 
ROOT
HETATM    1  C   UNL     1     -17.234 -12.587  -3.636  1.00  0.00     0.187 C 
HETATM    2  C   UNL     1     -18.721 -12.805  -3.277  1.00  0.00     0.180 C 
HETATM    3  O   UNL     1     -19.527 -11.705  -3.724  1.00  0.00    -0.348 OA
HETATM    4  C   UNL     1     -19.174 -10.396  -3.281  1.00  0.00     0.292 C 
HETATM    5  C   UNL     1     -17.635 -10.106  -3.293  1.00  0.00     0.204 C 
HETATM    6  C   UNL     1     -16.755 -11.313  -2.932  1.00  0.00     0.183 C 
ENDROOT
BRANCH   1   7
HETATM    7  O   UNL     1     -17.164 -12.539  -5.078  1.00  0.00    -0.348 OA
BRANCH   7   8
HETATM    8  C   UNL     1     -18.198 -13.090  -5.901  1.00  0.00     0.292 C 
HETATM    9  C   UNL     1     -17.984 -14.546  -6.400  1.00  0.00     0.204 C 
HETATM   10  C   UNL     1     -19.199 -14.973  -7.237  1.00  0.00     0.183 C 
HETATM   11  C   UNL     1     -19.487 -13.961  -8.361  1.00  0.00     0.180 C 
HETATM   12  C   UNL     1     -19.663 -12.551  -7.779  1.00  0.00     0.179 C 
HETATM   13  O   UNL     1     -18.546 -12.170  -6.935  1.00  0.00    -0.348 OA
BRANCH   9  14
HETATM   14  O   UNL     1     -16.816 -14.749  -7.214  1.00  0.00    -0.388 OA
HETATM   15  H   UNL     1     -16.179 -15.295  -6.694  1.00  0.00     0.210 HD
ENDBRANCH   9  14
BRANCH  10  16
HETATM   16  O   UNL     1     -18.985 -16.274  -7.804  1.00  0.00    -0.390 OA
HETATM   17  H   UNL     1     -19.462 -16.299  -8.656  1.00  0.00     0.210 HD
ENDBRANCH  10  16
BRANCH  11  18
HETATM   18  O   UNL     1     -18.406 -13.905  -9.304  1.00  0.00    -0.390 OA
HETATM   19  H   UNL     1     -17.571 -13.841  -8.804  1.00  0.00     0.210 HD
ENDBRANCH  11  18
BRANCH  12  20
HETATM   20  C   UNL     1     -21.004 -12.375  -7.055  1.00  0.00     0.198 C 
BRANCH  20  21
HETATM   21  O   UNL     1     -21.060 -11.116  -6.392  1.00  0.00    -0.398 OA
HETATM   22  H   UNL     1     -20.145 -10.786  -6.319  1.00  0.00     0.209 HD
ENDBRANCH  20  21
ENDBRANCH  12  20
ENDBRANCH   7   8
ENDBRANCH   1   7
BRANCH   2  23
HETATM   23  C   UNL     1     -18.982 -13.205  -1.807  1.00  0.00     0.198 C 
BRANCH  23  24
HETATM   24  O   UNL     1     -20.324 -13.000  -1.380  1.00  0.00    -0.398 OA
HETATM   25  H   UNL     1     -20.797 -12.526  -2.091  1.00  0.00     0.209 HD
ENDBRANCH  23  24
ENDBRANCH   2  23
BRANCH   6  26
HETATM   26  O   UNL     1     -15.356 -11.108  -3.185  1.00  0.00    -0.390 OA
HETATM   27  H   UNL     1     -15.267 -10.912  -4.143  1.00  0.00     0.210 HD
ENDBRANCH   6  26
BRANCH   5  28
HETATM   28  O   UNL     1     -17.289  -8.974  -2.486  1.00  0.00    -0.388 OA
HETATM   29  H   UNL     1     -16.373  -9.117  -2.185  1.00  0.00     0.210 HD
ENDBRANCH   5  28
BRANCH   4  30
HETATM   30  O   UNL     1     -19.872 -10.019  -2.067  1.00  0.00    -0.348 OA
BRANCH  30  31
HETATM   31  C   UNL     1     -21.069  -9.217  -2.337  1.00  0.00     0.187 C 
HETATM   32  C   UNL     1     -21.013  -7.788  -1.735  1.00  0.00     0.180 C 
HETATM   33  O   UNL     1     -21.201  -7.792  -0.311  1.00  0.00    -0.349 OA
HETATM   34  C   UNL     1     -22.374  -8.407   0.181  1.00  0.00     0.288 C 
HETATM   35  C   UNL     1     -22.559  -9.851  -0.318  1.00  0.00     0.204 C 
HETATM   36  C   UNL     1     -22.327  -9.954  -1.838  1.00  0.00     0.183 C 
BRANCH  32  37
HETATM   37  C   UNL     1     -21.984  -6.825  -2.450  1.00  0.00     0.198 C 
BRANCH  37  38
HETATM   38  O   UNL     1     -22.106  -5.614  -1.711  1.00  0.00    -0.398 OA
HETATM   39  H   UNL     1     -21.229  -5.457  -1.307  1.00  0.00     0.209 HD
ENDBRANCH  37  38
ENDBRANCH  32  37
BRANCH  34  40
HETATM   40  O   UNL     1     -23.519  -7.599  -0.079  1.00  0.00    -0.369 OA
HETATM   41  H   UNL     1     -23.834  -7.805  -0.978  1.00  0.00     0.212 HD
ENDBRANCH  34  40
BRANCH  35  42
HETATM   42  O   UNL     1     -23.905 -10.280  -0.019  1.00  0.00    -0.388 OA
HETATM   43  H   UNL     1     -24.241 -10.801  -0.771  1.00  0.00     0.210 HD
ENDBRANCH  35  42
BRANCH  36  44
HETATM   44  O   UNL     1     -22.295 -11.326  -2.259  1.00  0.00    -0.390 OA
HETATM   45  H   UNL     1     -23.152 -11.718  -1.998  1.00  0.00     0.210 HD
ENDBRANCH  36  44
ENDBRANCH  30  31
ENDBRANCH   4  30
TORSDOF 18
ENDMDL
MODEL 5
REMARK VINA RESULT:      -5.6      5.778     10.377
REMARK  18 active torsions:
REMARK  status: ('A' for Active; 'I' for Inactive)
REMARK    1  A    between atoms: C_1  and  C_2 
REMARK    2  A    between atoms: C_1  and  O_34 
REMARK    3  A    between atoms: C_3  and  O_33 
REMARK    4  A    between atoms: C_4  and  O_32 
REMARK    5  A    between atoms: C_5  and  O_31 
REMARK    6  A    between atoms: C_6  and  O_8 
REMARK    7  A    between atoms: O_8  and  C_9 
REMARK    8  A    between atoms: C_10  and  C_29 
REMARK    9  A    between atoms: C_12  and  O_17 
REMARK   10  A    between atoms: C_13  and  O_16 
REMARK   11  A    between atoms: C_14  and  O_15 
REMARK   12  A    between atoms: O_17  and  C_18 
REMARK   13  A    between atoms: C_19  and  C_27 
REMARK   14  A    between atoms: C_21  and  O_26 
REMARK   15  A    between atoms: C_22  and  O_25 
REMARK   16  A    between atoms: C_23  and  O_24 
REMARK   17  A    between atoms: C_27  and  O_28 
REMARK   18  A    between atoms: C_29  and  O_30 
ROOT
HETATM    1  C   UNL     1     -17.549 -12.949  -3.286  1.00  0.00     0.187 C 
HETATM    2  C   UNL     1     -18.857 -12.384  -3.881  1.00  0.00     0.180 C 
HETATM    3  O   UNL     1     -19.108 -11.052  -3.408  1.00  0.00    -0.348 OA
HETATM    4  C   UNL     1     -19.162 -10.845  -1.998  1.00  0.00     0.292 C 
HETATM    5  C   UNL     1     -18.060 -11.612  -1.191  1.00  0.00     0.204 C 
HETATM    6  C   UNL     1     -17.698 -12.992  -1.761  1.00  0.00     0.183 C 
ENDROOT
BRANCH   1   7
HETATM    7  O   UNL     1     -16.482 -12.098  -3.761  1.00  0.00    -0.348 OA
BRANCH   7   8
HETATM    8  C   UNL     1     -15.196 -12.624  -4.107  1.00  0.00     0.292 C 
HETATM    9  C   UNL     1     -14.671 -12.291  -5.530  1.00  0.00     0.204 C 
HETATM   10  C   UNL     1     -13.277 -12.909  -5.709  1.00  0.00     0.183 C 
HETATM   11  C   UNL     1     -13.287 -14.414  -5.380  1.00  0.00     0.180 C 
HETATM   12  C   UNL     1     -13.838 -14.649  -3.966  1.00  0.00     0.179 C 
HETATM   13  O   UNL     1     -15.126 -14.010  -3.774  1.00  0.00    -0.348 OA
BRANCH   9  14
HETATM   14  O   UNL     1     -15.489 -12.770  -6.612  1.00  0.00    -0.388 OA
HETATM   15  H   UNL     1     -14.922 -12.820  -7.419  1.00  0.00     0.210 HD
ENDBRANCH   9  14
BRANCH  10  16
HETATM   16  O   UNL     1     -12.810 -12.713  -7.052  1.00  0.00    -0.390 OA
HETATM   17  H   UNL     1     -12.838 -13.583  -7.496  1.00  0.00     0.210 HD
ENDBRANCH  10  16
BRANCH  11  18
HETATM   18  O   UNL     1     -14.121 -15.143  -6.293  1.00  0.00    -0.390 OA
HETATM   19  H   UNL     1     -14.814 -15.594  -5.776  1.00  0.00     0.210 HD
ENDBRANCH  11  18
BRANCH  12  20
HETATM   20  C   UNL     1     -12.841 -14.250  -2.870  1.00  0.00     0.198 C 
BRANCH  20  21
HETATM   21  O   UNL     1     -13.463 -14.264  -1.590  1.00  0.00    -0.398 OA
HETATM   22  H   UNL     1     -14.385 -14.553  -1.719  1.00  0.00     0.209 HD
ENDBRANCH  20  21
ENDBRANCH  12  20
ENDBRANCH   7   8
ENDBRANCH   1   7
BRANCH   2  23
HETATM   23  C   UNL     1     -20.080 -13.321  -3.765  1.00  0.00     0.198 C 
BRANCH  23  24
HETATM   24  O   UNL     1     -21.323 -12.691  -4.056  1.00  0.00    -0.398 OA
HETATM   25  H   UNL     1     -21.214 -12.175  -4.879  1.00  0.00     0.209 HD
ENDBRANCH  23  24
ENDBRANCH   2  23
BRANCH   6  26
HETATM   26  O   UNL     1     -16.526 -13.574  -1.169  1.00  0.00    -0.390 OA
HETATM   27  H   UNL     1     -16.711 -14.531  -1.055  1.00  0.00     0.210 HD
ENDBRANCH   6  26
BRANCH   5  28
HETATM   28  O   UNL     1     -18.378 -11.711   0.202  1.00  0.00    -0.388 OA
HETATM   29  H   UNL     1     -17.554 -11.968   0.656  1.00  0.00     0.210 HD
ENDBRANCH   5  28
BRANCH   4  30
HETATM   30  O   UNL     1     -20.511 -10.957  -1.477  1.00  0.00    -0.348 OA
BRANCH  30  31
HETATM   31  C   UNL     1     -21.424  -9.978  -2.073  1.00  0.00     0.187 C 
HETATM   32  C   UNL     1     -20.798  -8.570  -2.259  1.00  0.00     0.180 C 
HETATM   33  O   UNL     1     -20.675  -7.863  -1.015  1.00  0.00    -0.349 OA
HETATM   34  C   UNL     1     -21.851  -7.699  -0.250  1.00  0.00     0.288 C 
HETATM   35  C   UNL     1     -22.580  -9.024   0.036  1.00  0.00     0.204 C 
HETATM   36  C   UNL     1     -22.716  -9.878  -1.239  1.00  0.00     0.183 C 
BRANCH  32  37
HETATM   37  C   UNL     1     -21.545  -7.746  -3.328  1.00  0.00     0.198 C 
BRANCH  37  38
HETATM   38  O   UNL     1     -21.116  -6.388  -3.289  1.00  0.00    -0.398 OA
HETATM   39  H   UNL     1     -20.614  -6.242  -4.115  1.00  0.00     0.209 HD
ENDBRANCH  37  38
ENDBRANCH  32  37
BRANCH  34  40
HETATM   40  O   UNL     1     -22.713  -6.731  -0.842  1.00  0.00    -0.369 OA
HETATM   41  H   UNL     1     -22.393  -5.847  -0.586  1.00  0.00     0.212 HD
ENDBRANCH  34  40
BRANCH  35  42
HETATM   42  O   UNL     1     -23.899  -8.731   0.547  1.00  0.00    -0.388 OA
HETATM   43  H   UNL     1     -23.944  -7.784   0.770  1.00  0.00     0.210 HD
ENDBRANCH  35  42
BRANCH  36  44
HETATM   44  O   UNL     1     -23.205 -11.190  -0.927  1.00  0.00    -0.390 OA
HETATM   45  H   UNL     1     -22.422 -11.770  -0.853  1.00  0.00     0.210 HD
ENDBRANCH  36  44
ENDBRANCH  30  31
ENDBRANCH   4  30
TORSDOF 18
ENDMDL
MODEL 6
REMARK VINA RESULT:      -5.5      7.010      9.633
REMARK  18 active torsions:
REMARK  status: ('A' for Active; 'I' for Inactive)
REMARK    1  A    between atoms: C_1  and  C_2 
REMARK    2  A    between atoms: C_1  and  O_34 
REMARK    3  A    between atoms: C_3  and  O_33 
REMARK    4  A    between atoms: C_4  and  O_32 
REMARK    5  A    between atoms: C_5  and  O_31 
REMARK    6  A    between atoms: C_6  and  O_8 
REMARK    7  A    between atoms: O_8  and  C_9 
REMARK    8  A    between atoms: C_10  and  C_29 
REMARK    9  A    between atoms: C_12  and  O_17 
REMARK   10  A    between atoms: C_13  and  O_16 
REMARK   11  A    between atoms: C_14  and  O_15 
REMARK   12  A    between atoms: O_17  and  C_18 
REMARK   13  A    between atoms: C_19  and  C_27 
REMARK   14  A    between atoms: C_21  and  O_26 
REMARK   15  A    between atoms: C_22  and  O_25 
REMARK   16  A    between atoms: C_23  and  O_24 
REMARK   17  A    between atoms: C_27  and  O_28 
REMARK   18  A    between atoms: C_29  and  O_30 
ROOT
HETATM    1  C   UNL     1     -18.769 -10.416  -2.219  1.00  0.00     0.187 C 
HETATM    2  C   UNL     1     -17.949 -10.093  -3.487  1.00  0.00     0.180 C 
HETATM    3  O   UNL     1     -18.029 -11.163  -4.441  1.00  0.00    -0.348 OA
HETATM    4  C   UNL     1     -17.646 -12.467  -4.012  1.00  0.00     0.292 C 
HETATM    5  C   UNL     1     -18.153 -12.850  -2.581  1.00  0.00     0.204 C 
HETATM    6  C   UNL     1     -18.185 -11.683  -1.582  1.00  0.00     0.183 C 
ENDROOT
BRANCH   1   7
HETATM    7  O   UNL     1     -20.145 -10.536  -2.640  1.00  0.00    -0.348 OA
BRANCH   7   8
HETATM    8  C   UNL     1     -21.214  -9.928  -1.907  1.00  0.00     0.292 C 
HETATM    9  C   UNL     1     -21.272  -8.376  -1.927  1.00  0.00     0.204 C 
HETATM   10  C   UNL     1     -22.491  -7.908  -1.117  1.00  0.00     0.183 C 
HETATM   11  C   UNL     1     -22.489  -8.518   0.297  1.00  0.00     0.180 C 
HETATM   12  C   UNL     1     -22.409 -10.050   0.220  1.00  0.00     0.179 C 
HETATM   13  O   UNL     1     -21.296 -10.493  -0.598  1.00  0.00    -0.348 OA
BRANCH   9  14
HETATM   14  O   UNL     1     -20.120  -7.712  -1.378  1.00  0.00    -0.388 OA
HETATM   15  H   UNL     1     -19.316  -8.136  -1.764  1.00  0.00     0.210 HD
ENDBRANCH   9  14
BRANCH  10  16
HETATM   16  O   UNL     1     -22.512  -6.476  -1.024  1.00  0.00    -0.390 OA
HETATM   17  H   UNL     1     -22.136  -6.239  -0.154  1.00  0.00     0.210 HD
ENDBRANCH  10  16
BRANCH  11  18
HETATM   18  O   UNL     1     -21.360  -8.067   1.060  1.00  0.00    -0.390 OA
HETATM   19  H   UNL     1     -20.874  -7.412   0.524  1.00  0.00     0.210 HD
ENDBRANCH  11  18
BRANCH  12  20
HETATM   20  C   UNL     1     -23.730 -10.687  -0.230  1.00  0.00     0.198 C 
BRANCH  20  21
HETATM   21  O   UNL     1     -23.873 -11.994   0.316  1.00  0.00    -0.398 OA
HETATM   22  H   UNL     1     -24.631 -12.414  -0.131  1.00  0.00     0.209 HD
ENDBRANCH  20  21
ENDBRANCH  12  20
ENDBRANCH   7   8
ENDBRANCH   1   7
BRANCH   2  23
HETATM   23  C   UNL     1     -16.505  -9.609  -3.221  1.00  0.00     0.198 C 
BRANCH  23  24
HETATM   24  O   UNL     1     -15.650  -9.684  -4.356  1.00  0.00    -0.398 OA
HETATM   25  H   UNL     1     -16.153 -10.094  -5.085  1.00  0.00     0.209 HD
ENDBRANCH  23  24
ENDBRANCH   2  23
BRANCH   6  26
HETATM   26  O   UNL     1     -18.877 -11.983  -0.360  1.00  0.00    -0.390 OA
HETATM   27  H   UNL     1     -18.325 -11.633   0.372  1.00  0.00     0.210 HD
ENDBRANCH   6  26
BRANCH   5  28
HETATM   28  O   UNL     1     -17.437 -13.962  -2.030  1.00  0.00    -0.388 OA
HETATM   29  H   UNL     1     -16.504 -13.687  -1.966  1.00  0.00     0.210 HD
ENDBRANCH   5  28
BRANCH   4  30
HETATM   30  O   UNL     1     -16.247 -12.745  -4.275  1.00  0.00    -0.348 OA
BRANCH  30  31
HETATM   31  C   UNL     1     -16.054 -13.557  -5.480  1.00  0.00     0.187 C 
HETATM   32  C   UNL     1     -15.707 -15.041  -5.185  1.00  0.00     0.180 C 
HETATM   33  O   UNL     1     -14.355 -15.200  -4.728  1.00  0.00    -0.349 OA
HETATM   34  C   UNL     1     -13.331 -14.688  -5.556  1.00  0.00     0.288 C 
HETATM   35  C   UNL     1     -13.529 -13.205  -5.921  1.00  0.00     0.204 C 
HETATM   36  C   UNL     1     -14.973 -12.928  -6.380  1.00  0.00     0.183 C 
BRANCH  32  37
HETATM   37  C   UNL     1     -16.029 -15.955  -6.385  1.00  0.00     0.198 C 
BRANCH  37  38
HETATM   38  O   UNL     1     -17.244 -15.543  -7.004  1.00  0.00    -0.398 OA
HETATM   39  H   UNL     1     -17.789 -16.351  -7.088  1.00  0.00     0.209 HD
ENDBRANCH  37  38
ENDBRANCH  32  37
BRANCH  34  40
HETATM   40  O   UNL     1     -13.154 -15.505  -6.710  1.00  0.00    -0.369 OA
HETATM   41  H   UNL     1     -13.670 -15.112  -7.437  1.00  0.00     0.212 HD
ENDBRANCH  34  40
BRANCH  35  42
HETATM   42  O   UNL     1     -12.623 -12.864  -6.992  1.00  0.00    -0.388 OA
HETATM   43  H   UNL     1     -12.521 -11.895  -7.018  1.00  0.00     0.210 HD
ENDBRANCH  35  42
BRANCH  36  44
HETATM   44  O   UNL     1     -15.204 -11.518  -6.517  1.00  0.00    -0.390 OA
HETATM   45  H   UNL     1     -15.883 -11.280  -5.855  1.00  0.00     0.210 HD
ENDBRANCH  36  44
ENDBRANCH  30  31
ENDBRANCH   4  30
TORSDOF 18
ENDMDL
MODEL 7
REMARK VINA RESULT:      -5.5      6.475     10.483
REMARK  18 active torsions:
REMARK  status: ('A' for Active; 'I' for Inactive)
REMARK    1  A    between atoms: C_1  and  C_2 
REMARK    2  A    between atoms: C_1  and  O_34 
REMARK    3  A    between atoms: C_3  and  O_33 
REMARK    4  A    between atoms: C_4  and  O_32 
REMARK    5  A    between atoms: C_5  and  O_31 
REMARK    6  A    between atoms: C_6  and  O_8 
REMARK    7  A    between atoms: O_8  and  C_9 
REMARK    8  A    between atoms: C_10  and  C_29 
REMARK    9  A    between atoms: C_12  and  O_17 
REMARK   10  A    between atoms: C_13  and  O_16 
REMARK   11  A    between atoms: C_14  and  O_15 
REMARK   12  A    between atoms: O_17  and  C_18 
REMARK   13  A    between atoms: C_19  and  C_27 
REMARK   14  A    between atoms: C_21  and  O_26 
REMARK   15  A    between atoms: C_22  and  O_25 
REMARK   16  A    between atoms: C_23  and  O_24 
REMARK   17  A    between atoms: C_27  and  O_28 
REMARK   18  A    between atoms: C_29  and  O_30 
ROOT
HETATM    1  C   UNL     1     -17.007 -12.700  -2.550  1.00  0.00     0.187 C 
HETATM    2  C   UNL     1     -18.431 -12.916  -1.993  1.00  0.00     0.180 C 
HETATM    3  O   UNL     1     -19.383 -12.081  -2.669  1.00  0.00    -0.348 OA
HETATM    4  C   UNL     1     -19.145 -10.676  -2.684  1.00  0.00     0.292 C 
HETATM    5  C   UNL     1     -17.652 -10.278  -2.941  1.00  0.00     0.204 C 
HETATM    6  C   UNL     1     -16.622 -11.234  -2.320  1.00  0.00     0.183 C 
ENDROOT
BRANCH   1   7
HETATM    7  O   UNL     1     -17.046 -13.101  -3.937  1.00  0.00    -0.348 OA
BRANCH   7   8
HETATM    8  C   UNL     1     -16.252 -14.186  -4.430  1.00  0.00     0.292 C 
HETATM    9  C   UNL     1     -14.862 -14.386  -3.766  1.00  0.00     0.204 C 
HETATM   10  C   UNL     1     -14.174 -15.604  -4.399  1.00  0.00     0.183 C 
HETATM   11  C   UNL     1     -14.123 -15.483  -5.933  1.00  0.00     0.180 C 
HETATM   12  C   UNL     1     -15.535 -15.268  -6.499  1.00  0.00     0.179 C 
HETATM   13  O   UNL     1     -16.212 -14.158  -5.857  1.00  0.00    -0.348 OA
BRANCH   9  14
HETATM   14  O   UNL     1     -13.957 -13.275  -3.892  1.00  0.00    -0.388 OA
HETATM   15  H   UNL     1     -14.493 -12.473  -4.104  1.00  0.00     0.210 HD
ENDBRANCH   9  14
BRANCH  10  16
HETATM   16  O   UNL     1     -12.842 -15.751  -3.883  1.00  0.00    -0.390 OA
HETATM   17  H   UNL     1     -12.482 -14.852  -3.757  1.00  0.00     0.210 HD
ENDBRANCH  10  16
BRANCH  11  18
HETATM   18  O   UNL     1     -13.321 -14.366  -6.343  1.00  0.00    -0.390 OA
HETATM   19  H   UNL     1     -12.396 -14.667  -6.415  1.00  0.00     0.210 HD
ENDBRANCH  11  18
BRANCH  12  20
HETATM   20  C   UNL     1     -16.385 -16.544  -6.465  1.00  0.00     0.198 C 
BRANCH  20  21
HETATM   21  O   UNL     1     -17.540 -16.406  -7.285  1.00  0.00    -0.398 OA
HETATM   22  H   UNL     1     -17.835 -17.304  -7.526  1.00  0.00     0.209 HD
ENDBRANCH  20  21
ENDBRANCH  12  20
ENDBRANCH   7   8
ENDBRANCH   1   7
BRANCH   2  23
HETATM   23  C   UNL     1     -18.541 -12.855  -0.452  1.00  0.00     0.198 C 
BRANCH  23  24
HETATM   24  O   UNL     1     -19.842 -12.528   0.024  1.00  0.00    -0.398 OA
HETATM   25  H   UNL     1     -19.893 -12.790   0.964  1.00  0.00     0.209 HD
ENDBRANCH  23  24
ENDBRANCH   2  23
BRANCH   6  26
HETATM   26  O   UNL     1     -15.275 -11.005  -2.765  1.00  0.00    -0.390 OA
HETATM   27  H   UNL     1     -14.687 -11.213  -2.007  1.00  0.00     0.210 HD
ENDBRANCH   6  26
BRANCH   5  28
HETATM   28  O   UNL     1     -17.376  -8.926  -2.557  1.00  0.00    -0.388 OA
HETATM   29  H   UNL     1     -17.842  -8.776  -1.714  1.00  0.00     0.210 HD
ENDBRANCH   5  28
BRANCH   4  30
HETATM   30  O   UNL     1     -19.792  -9.996  -1.579  1.00  0.00    -0.348 OA
BRANCH  30  31
HETATM   31  C   UNL     1     -21.004  -9.282  -1.993  1.00  0.00     0.187 C 
HETATM   32  C   UNL     1     -21.064  -7.812  -1.499  1.00  0.00     0.180 C 
HETATM   33  O   UNL     1     -21.357  -7.724  -0.096  1.00  0.00    -0.349 OA
HETATM   34  C   UNL     1     -22.532  -8.365   0.357  1.00  0.00     0.288 C 
HETATM   35  C   UNL     1     -22.607  -9.849  -0.043  1.00  0.00     0.204 C 
HETATM   36  C   UNL     1     -22.257 -10.049  -1.530  1.00  0.00     0.183 C 
BRANCH  32  37
HETATM   37  C   UNL     1     -22.025  -6.958  -2.352  1.00  0.00     0.198 C 
BRANCH  37  38
HETATM   38  O   UNL     1     -22.335  -5.745  -1.674  1.00  0.00    -0.398 OA
HETATM   39  H   UNL     1     -23.030  -5.972  -1.024  1.00  0.00     0.209 HD
ENDBRANCH  37  38
ENDBRANCH  32  37
BRANCH  34  40
HETATM   40  O   UNL     1     -23.693  -7.643  -0.045  1.00  0.00    -0.369 OA
HETATM   41  H   UNL     1     -24.250  -7.507   0.743  1.00  0.00     0.212 HD
ENDBRANCH  34  40
BRANCH  35  42
HETATM   42  O   UNL     1     -23.950 -10.329   0.191  1.00  0.00    -0.388 OA
HETATM   43  H   UNL     1     -24.551  -9.563   0.239  1.00  0.00     0.210 HD
ENDBRANCH  35  42
BRANCH  36  44
HETATM   44  O   UNL     1     -22.127 -11.444  -1.842  1.00  0.00    -0.390 OA
HETATM   45  H   UNL     1     -21.308 -11.752  -1.407  1.00  0.00     0.210 HD
ENDBRANCH  36  44
ENDBRANCH  30  31
ENDBRANCH   4  30
TORSDOF 18
ENDMDL
MODEL 8
REMARK VINA RESULT:      -5.5      1.104      2.158
REMARK  18 active torsions:
REMARK  status: ('A' for Active; 'I' for Inactive)
REMARK    1  A    between atoms: C_1  and  C_2 
REMARK    2  A    between atoms: C_1  and  O_34 
REMARK    3  A    between atoms: C_3  and  O_33 
REMARK    4  A    between atoms: C_4  and  O_32 
REMARK    5  A    between atoms: C_5  and  O_31 
REMARK    6  A    between atoms: C_6  and  O_8 
REMARK    7  A    between atoms: O_8  and  C_9 
REMARK    8  A    between atoms: C_10  and  C_29 
REMARK    9  A    between atoms: C_12  and  O_17 
REMARK   10  A    between atoms: C_13  and  O_16 
REMARK   11  A    between atoms: C_14  and  O_15 
REMARK   12  A    between atoms: O_17  and  C_18 
REMARK   13  A    between atoms: C_19  and  C_27 
REMARK   14  A    between atoms: C_21  and  O_26 
REMARK   15  A    between atoms: C_22  and  O_25 
REMARK   16  A    between atoms: C_23  and  O_24 
REMARK   17  A    between atoms: C_27  and  O_28 
REMARK   18  A    between atoms: C_29  and  O_30 
ROOT
HETATM    1  C   UNL     1     -21.465  -4.800  -7.168  1.00  0.00     0.187 C 
HETATM    2  C   UNL     1     -19.987  -5.200  -6.973  1.00  0.00     0.180 C 
HETATM    3  O   UNL     1     -19.832  -6.627  -6.973  1.00  0.00    -0.348 OA
HETATM    4  C   UNL     1     -20.599  -7.379  -6.035  1.00  0.00     0.292 C 
HETATM    5  C   UNL     1     -22.081  -6.898  -5.881  1.00  0.00     0.204 C 
HETATM    6  C   UNL     1     -22.274  -5.378  -6.000  1.00  0.00     0.183 C 
ENDROOT
BRANCH   1   7
HETATM    7  O   UNL     1     -21.855  -5.292  -8.469  1.00  0.00    -0.348 OA
BRANCH   7   8
HETATM    8  C   UNL     1     -22.340  -4.415  -9.492  1.00  0.00     0.292 C 
HETATM    9  C   UNL     1     -23.878  -4.206  -9.553  1.00  0.00     0.204 C 
HETATM   10  C   UNL     1     -24.206  -3.219 -10.684  1.00  0.00     0.183 C 
HETATM   11  C   UNL     1     -23.581  -3.670 -12.017  1.00  0.00     0.180 C 
HETATM   12  C   UNL     1     -22.067  -3.872 -11.857  1.00  0.00     0.179 C 
HETATM   13  O   UNL     1     -21.752  -4.752 -10.748  1.00  0.00    -0.348 OA
BRANCH   9  14
HETATM   14  O   UNL     1     -24.649  -5.396  -9.792  1.00  0.00    -0.388 OA
HETATM   15  H   UNL     1     -24.031  -6.097 -10.110  1.00  0.00     0.210 HD
ENDBRANCH   9  14
BRANCH  10  16
HETATM   16  O   UNL     1     -25.627  -3.089 -10.838  1.00  0.00    -0.390 OA
HETATM   17  H   UNL     1     -25.801  -2.948 -11.789  1.00  0.00     0.210 HD
ENDBRANCH  10  16
BRANCH  11  18
HETATM   18  O   UNL     1     -24.136  -4.918 -12.459  1.00  0.00    -0.390 OA
HETATM   19  H   UNL     1     -24.513  -4.784 -13.348  1.00  0.00     0.210 HD
ENDBRANCH  11  18
BRANCH  12  20
HETATM   20  C   UNL     1     -21.302  -2.545 -11.760  1.00  0.00     0.198 C 
BRANCH  20  21
HETATM   21  O   UNL     1     -19.931  -2.772 -11.452  1.00  0.00    -0.398 OA
HETATM   22  H   UNL     1     -19.476  -1.911 -11.505  1.00  0.00     0.209 HD
ENDBRANCH  20  21
ENDBRANCH  12  20
ENDBRANCH   7   8
ENDBRANCH   1   7
BRANCH   2  23
HETATM   23  C   UNL     1     -19.275  -4.501  -5.793  1.00  0.00     0.198 C 
BRANCH  23  24
HETATM   24  O   UNL     1     -20.023  -4.503  -4.582  1.00  0.00    -0.398 OA
HETATM   25  H   UNL     1     -19.731  -3.739  -4.047  1.00  0.00     0.209 HD
ENDBRANCH  23  24
ENDBRANCH   2  23
BRANCH   6  26
HETATM   26  O   UNL     1     -23.647  -4.973  -6.106  1.00  0.00    -0.390 OA
HETATM   27  H   UNL     1     -23.866  -4.958  -7.063  1.00  0.00     0.210 HD
ENDBRANCH   6  26
BRANCH   5  28
HETATM   28  O   UNL     1     -22.690  -7.388  -4.680  1.00  0.00    -0.388 OA
HETATM   29  H   UNL     1     -23.624  -7.563  -4.894  1.00  0.00     0.210 HD
ENDBRANCH   5  28
BRANCH   4  30
HETATM   30  O   UNL     1     -19.883  -7.606  -4.795  1.00  0.00    -0.348 OA
BRANCH  30  31
HETATM   31  C   UNL     1     -19.436  -8.995  -4.653  1.00  0.00     0.187 C 
HETATM   32  C   UNL     1     -20.151  -9.984  -5.612  1.00  0.00     0.180 C 
HETATM   33  O   UNL     1     -21.498 -10.259  -5.199  1.00  0.00    -0.349 OA
HETATM   34  C   UNL     1     -21.682 -10.745  -3.885  1.00  0.00     0.288 C 
HETATM   35  C   UNL     1     -21.039  -9.850  -2.811  1.00  0.00     0.204 C 
HETATM   36  C   UNL     1     -19.598  -9.461  -3.193  1.00  0.00     0.183 C 
BRANCH  32  37
HETATM   37  C   UNL     1     -19.330 -11.273  -5.824  1.00  0.00     0.198 C 
BRANCH  37  38
HETATM   38  O   UNL     1     -19.512 -11.757  -7.151  1.00  0.00    -0.398 OA
HETATM   39  H   UNL     1     -19.995 -12.603  -7.064  1.00  0.00     0.209 HD
ENDBRANCH  37  38
ENDBRANCH  32  37
BRANCH  34  40
HETATM   40  O   UNL     1     -21.255 -12.101  -3.779  1.00  0.00    -0.369 OA
HETATM   41  H   UNL     1     -20.802 -12.338  -4.609  1.00  0.00     0.212 HD
ENDBRANCH  34  40
BRANCH  35  42
HETATM   42  O   UNL     1     -21.013 -10.569  -1.558  1.00  0.00    -0.388 OA
HETATM   43  H   UNL     1     -20.510 -11.394  -1.682  1.00  0.00     0.210 HD
ENDBRANCH  35  42
BRANCH  36  44
HETATM   44  O   UNL     1     -19.082  -8.465  -2.297  1.00  0.00    -0.390 OA
HETATM   45  H   UNL     1     -18.207  -8.204  -2.644  1.00  0.00     0.210 HD
ENDBRANCH  36  44
ENDBRANCH  30  31
ENDBRANCH   4  30
TORSDOF 18
ENDMDL
MODEL 9
REMARK VINA RESULT:      -5.4      4.971     10.841
REMARK  18 active torsions:
REMARK  status: ('A' for Active; 'I' for Inactive)
REMARK    1  A    between atoms: C_1  and  C_2 
REMARK    2  A    between atoms: C_1  and  O_34 
REMARK    3  A    between atoms: C_3  and  O_33 
REMARK    4  A    between atoms: C_4  and  O_32 
REMARK    5  A    between atoms: C_5  and  O_31 
REMARK    6  A    between atoms: C_6  and  O_8 
REMARK    7  A    between atoms: O_8  and  C_9 
REMARK    8  A    between atoms: C_10  and  C_29 
REMARK    9  A    between atoms: C_12  and  O_17 
REMARK   10  A    between atoms: C_13  and  O_16 
REMARK   11  A    between atoms: C_14  and  O_15 
REMARK   12  A    between atoms: O_17  and  C_18 
REMARK   13  A    between atoms: C_19  and  C_27 
REMARK   14  A    between atoms: C_21  and  O_26 
REMARK   15  A    between atoms: C_22  and  O_25 
REMARK   16  A    between atoms: C_23  and  O_24 
REMARK   17  A    between atoms: C_27  and  O_28 
REMARK   18  A    between atoms: C_29  and  O_30 
ROOT
HETATM    1  C   UNL     1     -17.303 -12.706  -1.853  1.00  0.00     0.187 C 
HETATM    2  C   UNL     1     -18.796 -12.739  -1.462  1.00  0.00     0.180 C 
HETATM    3  O   UNL     1     -19.598 -12.031  -2.420  1.00  0.00    -0.348 OA
HETATM    4  C   UNL     1     -19.263 -10.672  -2.693  1.00  0.00     0.292 C 
HETATM    5  C   UNL     1     -17.726 -10.400  -2.822  1.00  0.00     0.204 C 
HETATM    6  C   UNL     1     -16.849 -11.242  -1.883  1.00  0.00     0.183 C 
ENDROOT
BRANCH   1   7
HETATM    7  O   UNL     1     -17.196 -13.393  -3.120  1.00  0.00    -0.348 OA
BRANCH   7   8
HETATM    8  C   UNL     1     -15.997 -14.070  -3.511  1.00  0.00     0.292 C 
HETATM    9  C   UNL     1     -15.235 -14.833  -2.393  1.00  0.00     0.204 C 
HETATM   10  C   UNL     1     -14.001 -15.515  -3.001  1.00  0.00     0.183 C 
HETATM   11  C   UNL     1     -13.131 -14.508  -3.777  1.00  0.00     0.180 C 
HETATM   12  C   UNL     1     -13.970 -13.789  -4.845  1.00  0.00     0.179 C 
HETATM   13  O   UNL     1     -15.170 -13.199  -4.283  1.00  0.00    -0.348 OA
BRANCH   9  14
HETATM   14  O   UNL     1     -14.774 -14.018  -1.301  1.00  0.00    -0.388 OA
HETATM   15  H   UNL     1     -13.788 -14.068  -1.284  1.00  0.00     0.210 HD
ENDBRANCH   9  14
BRANCH  10  16
HETATM   16  O   UNL     1     -13.215 -16.138  -1.974  1.00  0.00    -0.390 OA
HETATM   17  H   UNL     1     -13.538 -15.796  -1.118  1.00  0.00     0.210 HD
ENDBRANCH  10  16
BRANCH  11  18
HETATM   18  O   UNL     1     -12.591 -13.503  -2.907  1.00  0.00    -0.390 OA
HETATM   19  H   UNL     1     -12.589 -13.858  -1.998  1.00  0.00     0.210 HD
ENDBRANCH  11  18
BRANCH  12  20
HETATM   20  C   UNL     1     -14.291 -14.687  -6.047  1.00  0.00     0.198 C 
BRANCH  20  21
HETATM   21  O   UNL     1     -13.115 -15.329  -6.527  1.00  0.00    -0.398 OA
HETATM   22  H   UNL     1     -12.442 -14.637  -6.665  1.00  0.00     0.209 HD
ENDBRANCH  20  21
ENDBRANCH  12  20
ENDBRANCH   7   8
ENDBRANCH   1   7
BRANCH   2  23
HETATM   23  C   UNL     1     -19.092 -12.345   0.003  1.00  0.00     0.198 C 
BRANCH  23  24
HETATM   24  O   UNL     1     -20.436 -11.940   0.235  1.00  0.00    -0.398 OA
HETATM   25  H   UNL     1     -20.416 -11.084   0.705  1.00  0.00     0.209 HD
ENDBRANCH  23  24
ENDBRANCH   2  23
BRANCH   6  26
HETATM   26  O   UNL     1     -15.445 -11.169  -2.179  1.00  0.00    -0.390 OA
HETATM   27  H   UNL     1     -15.110 -10.346  -1.762  1.00  0.00     0.210 HD
ENDBRANCH   6  26
BRANCH   5  28
HETATM   28  O   UNL     1     -17.408  -9.010  -2.693  1.00  0.00    -0.388 OA
HETATM   29  H   UNL     1     -17.979  -8.659  -1.986  1.00  0.00     0.210 HD
ENDBRANCH   5  28
BRANCH   4  30
HETATM   30  O   UNL     1     -19.994  -9.745  -1.851  1.00  0.00    -0.348 OA
BRANCH  30  31
HETATM   31  C   UNL     1     -21.178  -9.197  -2.518  1.00  0.00     0.187 C 
HETATM   32  C   UNL     1     -20.902  -7.889  -3.308  1.00  0.00     0.180 C 
HETATM   33  O   UNL     1     -20.731  -6.758  -2.439  1.00  0.00    -0.349 OA
HETATM   34  C   UNL     1     -21.775  -6.483  -1.528  1.00  0.00     0.288 C 
HETATM   35  C   UNL     1     -22.151  -7.692  -0.652  1.00  0.00     0.204 C 
HETATM   36  C   UNL     1     -22.309  -8.971  -1.497  1.00  0.00     0.183 C 
BRANCH  32  37
HETATM   37  C   UNL     1     -21.969  -7.637  -4.392  1.00  0.00     0.198 C 
BRANCH  37  38
HETATM   38  O   UNL     1     -21.784  -6.349  -4.972  1.00  0.00    -0.398 OA
HETATM   39  H   UNL     1     -22.570  -5.826  -4.720  1.00  0.00     0.209 HD
ENDBRANCH  37  38
ENDBRANCH  32  37
BRANCH  34  40
HETATM   40  O   UNL     1     -22.906  -5.936  -2.200  1.00  0.00    -0.369 OA
HETATM   41  H   UNL     1     -22.894  -6.258  -3.120  1.00  0.00     0.212 HD
ENDBRANCH  34  40
BRANCH  35  42
HETATM   42  O   UNL     1     -23.402  -7.414   0.015  1.00  0.00    -0.388 OA
HETATM   43  H   UNL     1     -23.510  -6.448   0.084  1.00  0.00     0.210 HD
ENDBRANCH  35  42
BRANCH  36  44
HETATM   44  O   UNL     1     -22.453 -10.125  -0.656  1.00  0.00    -0.390 OA
HETATM   45  H   UNL     1     -22.774  -9.802   0.209  1.00  0.00     0.210 HD
ENDBRANCH  36  44
ENDBRANCH  30  31
ENDBRANCH   4  30
TORSDOF 18
ENDMDL
