MODEL 1
REMARK VINA RESULT:      -8.3      0.000      0.000
REMARK  19 active torsions:
REMARK  status: ('A' for Active; 'I' for Inactive)
REMARK    1  A    between atoms: C_3  and  C_10 
REMARK    2  A    between atoms: C_11  and  C_12 
REMARK    3  A    between atoms: C_13  and  C_14 
REMARK    4  A    between atoms: C_15  and  C_16 
REMARK    5  A    between atoms: C_17  and  C_18 
REMARK    6  A    between atoms: C_18  and  O_20 
REMARK    7  A    between atoms: O_20  and  C_21 
REMARK    8  A    between atoms: C_30  and  C_34 
REMARK    9  A    between atoms: C_34  and  C_35 
REMARK   10  A    between atoms: C_35  and  C_36 
REMARK   11  A    between atoms: C_36  and  C_37 
REMARK   12  A    between atoms: C_37  and  C_39 
REMARK   13  A    between atoms: C_39  and  C_40 
REMARK   14  A    between atoms: C_40  and  C_41 
REMARK   15  A    between atoms: C_41  and  C_42 
REMARK   16  A    between atoms: C_42  and  C_44 
REMARK   17  A    between atoms: C_44  and  C_45 
REMARK   18  A    between atoms: C_45  and  C_46 
REMARK   19  A    between atoms: C_46  and  C_47 
ROOT
HETATM    1  C   UNL     1     -14.753 -14.739  -2.436  1.00  0.00     0.092 A 
HETATM    2  C   UNL     1     -16.141 -14.949  -2.527  1.00  0.00    -0.018 A 
HETATM    3  C   UNL     1     -16.906 -14.205  -3.463  1.00  0.00    -0.015 A 
HETATM    4  C   UNL     1     -16.291 -13.246  -4.282  1.00  0.00     0.083 A 
HETATM    5  C   UNL     1     -14.897 -13.034  -4.198  1.00  0.00    -0.019 A 
HETATM    6  C   UNL     1     -14.122 -13.747  -3.224  1.00  0.00    -0.019 A 
HETATM    7  C   UNL     1     -12.657 -13.444  -3.062  1.00  0.00     0.052 C 
HETATM    8  C   UNL     1     -14.232 -12.109  -5.196  1.00  0.00     0.052 C 
HETATM    9  O   UNL     1     -17.009 -12.463  -5.167  1.00  0.00    -0.339 OA
HETATM   10  C   UNL     1     -18.240 -13.026  -5.661  1.00  0.00     0.064 C 
HETATM   11  C   UNL     1     -19.091 -13.551  -4.500  1.00  0.00     0.043 C 
HETATM   12  C   UNL     1     -18.368 -14.511  -3.601  1.00  0.00     0.045 C 
HETATM   13  C   UNL     1     -17.897 -14.080  -6.728  1.00  0.00     0.046 C 
HETATM   14  C   UNL     1     -16.851 -15.940  -1.639  1.00  0.00     0.052 C 
ENDROOT
BRANCH   1  15
HETATM   15  O   UNL     1     -14.077 -15.512  -1.434  1.00  0.00    -0.274 OA
BRANCH  15  16
HETATM   16  C   UNL     1     -13.447 -14.874  -0.353  1.00  0.00     0.288 C 
HETATM   17  O   UNL     1     -12.279 -14.522  -0.334  1.00  0.00    -0.260 OA
BRANCH  16  18
HETATM   18  C   UNL     1     -14.438 -14.698   0.767  1.00  0.00     0.089 C 
HETATM   19  C   UNL     1     -15.250 -13.633   0.936  1.00  0.00    -0.056 C 
HETATM   20  C   UNL     1     -16.246 -13.525   2.066  1.00  0.00     0.048 C 
BRANCH  19  21
HETATM   21  C   UNL     1     -15.243 -12.496   0.029  1.00  0.00     0.007 C 
HETATM   22  C   UNL     1     -16.337 -12.123  -0.650  1.00  0.00     0.001 C 
BRANCH  22  23
HETATM   23  C   UNL     1     -16.407 -10.980  -1.528  1.00  0.00     0.007 C 
HETATM   24  C   UNL     1     -17.521 -10.489  -2.111  1.00  0.00    -0.062 C 
HETATM   25  C   UNL     1     -17.318  -9.415  -3.163  1.00  0.00     0.048 C 
BRANCH  24  26
HETATM   26  C   UNL     1     -18.877 -11.030  -1.886  1.00  0.00     0.007 C 
HETATM   27  C   UNL     1     -19.669 -10.743  -0.838  1.00  0.00     0.009 C 
BRANCH  27  28
HETATM   28  C   UNL     1     -21.145 -10.860  -0.766  1.00  0.00    -0.048 C 
HETATM   29  C   UNL     1     -21.787  -9.675  -0.571  1.00  0.00    -0.077 C 
HETATM   30  C   UNL     1     -21.157  -8.322  -0.734  1.00  0.00     0.044 C 
HETATM   31  C   UNL     1     -23.190  -9.571  -0.043  1.00  0.00     0.034 C 
HETATM   32  C   UNL     1     -24.075 -10.796  -0.074  1.00  0.00     0.005 C 
HETATM   33  C   UNL     1     -23.432 -12.084  -0.563  1.00  0.00     0.014 C 
HETATM   34  C   UNL     1     -21.866 -12.218  -0.608  1.00  0.00    -0.020 C 
HETATM   35  C   UNL     1     -21.647 -13.210  -1.789  1.00  0.00     0.020 C 
HETATM   36  C   UNL     1     -21.346 -12.952   0.649  1.00  0.00     0.020 C 
ENDBRANCH  27  28
ENDBRANCH  24  26
ENDBRANCH  22  23
ENDBRANCH  19  21
ENDBRANCH  16  18
ENDBRANCH  15  16
ENDBRANCH   1  15
BRANCH  10  37
HETATM   37  C   UNL     1     -19.035 -11.906  -6.389  1.00  0.00     0.038 C 
BRANCH  37  38
HETATM   38  C   UNL     1     -20.099 -11.267  -5.502  1.00  0.00     0.003 C 
BRANCH  38  39
HETATM   39  C   UNL     1     -19.909  -9.777  -5.352  1.00  0.00     0.004 C 
BRANCH  39  40
HETATM   40  C   UNL     1     -21.251  -9.106  -4.994  1.00  0.00    -0.019 C 
HETATM   41  C   UNL     1     -22.088  -9.978  -4.058  1.00  0.00     0.010 C 
BRANCH  40  42
HETATM   42  C   UNL     1     -21.010  -7.729  -4.375  1.00  0.00     0.004 C 
BRANCH  42  43
HETATM   43  C   UNL     1     -21.577  -6.636  -5.278  1.00  0.00     0.001 C 
BRANCH  43  44
HETATM   44  C   UNL     1     -20.509  -6.081  -6.194  1.00  0.00     0.004 C 
BRANCH  44  45
HETATM   45  C   UNL     1     -21.111  -5.438  -7.455  1.00  0.00    -0.019 C 
HETATM   46  C   UNL     1     -21.878  -4.155  -7.125  1.00  0.00     0.010 C 
BRANCH  45  47
HETATM   47  C   UNL     1     -20.005  -5.163  -8.487  1.00  0.00     0.004 C 
BRANCH  47  48
HETATM   48  C   UNL     1     -20.380  -3.987  -9.390  1.00  0.00     0.001 C 
BRANCH  48  49
HETATM   49  C   UNL     1     -21.113  -4.418 -10.653  1.00  0.00     0.004 C 
BRANCH  49  50
HETATM   50  C   UNL     1     -22.472  -3.702 -10.787  1.00  0.00    -0.023 C 
HETATM   51  C   UNL     1     -22.540  -2.803 -12.023  1.00  0.00     0.009 C 
HETATM   52  C   UNL     1     -23.594  -4.738 -10.825  1.00  0.00     0.009 C 
ENDBRANCH  49  50
ENDBRANCH  48  49
ENDBRANCH  47  48
ENDBRANCH  45  47
ENDBRANCH  44  45
ENDBRANCH  43  44
ENDBRANCH  42  43
ENDBRANCH  40  42
ENDBRANCH  39  40
ENDBRANCH  38  39
ENDBRANCH  37  38
ENDBRANCH  10  37
TORSDOF 19
ENDMDL
MODEL 2
REMARK VINA RESULT:      -8.2      2.542      6.764
REMARK  19 active torsions:
REMARK  status: ('A' for Active; 'I' for Inactive)
REMARK    1  A    between atoms: C_3  and  C_10 
REMARK    2  A    between atoms: C_11  and  C_12 
REMARK    3  A    between atoms: C_13  and  C_14 
REMARK    4  A    between atoms: C_15  and  C_16 
REMARK    5  A    between atoms: C_17  and  C_18 
REMARK    6  A    between atoms: C_18  and  O_20 
REMARK    7  A    between atoms: O_20  and  C_21 
REMARK    8  A    between atoms: C_30  and  C_34 
REMARK    9  A    between atoms: C_34  and  C_35 
REMARK   10  A    between atoms: C_35  and  C_36 
REMARK   11  A    between atoms: C_36  and  C_37 
REMARK   12  A    between atoms: C_37  and  C_39 
REMARK   13  A    between atoms: C_39  and  C_40 
REMARK   14  A    between atoms: C_40  and  C_41 
REMARK   15  A    between atoms: C_41  and  C_42 
REMARK   16  A    between atoms: C_42  and  C_44 
REMARK   17  A    between atoms: C_44  and  C_45 
REMARK   18  A    between atoms: C_45  and  C_46 
REMARK   19  A    between atoms: C_46  and  C_47 
ROOT
HETATM    1  C   UNL     1     -21.206 -10.754  -1.508  1.00  0.00     0.092 A 
HETATM    2  C   UNL     1     -21.625  -9.462  -1.145  1.00  0.00    -0.018 A 
HETATM    3  C   UNL     1     -21.393  -8.373  -2.025  1.00  0.00    -0.015 A 
HETATM    4  C   UNL     1     -20.731  -8.573  -3.245  1.00  0.00     0.083 A 
HETATM    5  C   UNL     1     -20.312  -9.870  -3.618  1.00  0.00    -0.019 A 
HETATM    6  C   UNL     1     -20.499 -10.969  -2.715  1.00  0.00    -0.019 A 
HETATM    7  C   UNL     1     -19.958 -12.329  -3.066  1.00  0.00     0.052 C 
HETATM    8  C   UNL     1     -19.740 -10.090  -5.003  1.00  0.00     0.052 C 
HETATM    9  O   UNL     1     -20.439  -7.531  -4.106  1.00  0.00    -0.339 OA
HETATM   10  C   UNL     1     -21.309  -6.385  -4.036  1.00  0.00     0.064 C 
HETATM   11  C   UNL     1     -21.479  -5.931  -2.582  1.00  0.00     0.043 C 
HETATM   12  C   UNL     1     -21.928  -7.021  -1.653  1.00  0.00     0.045 C 
HETATM   13  C   UNL     1     -22.625  -6.731  -4.753  1.00  0.00     0.046 C 
HETATM   14  C   UNL     1     -22.304  -9.192   0.175  1.00  0.00     0.052 C 
ENDROOT
BRANCH   1  15
HETATM   15  O   UNL     1     -21.451 -11.778  -0.533  1.00  0.00    -0.274 OA
BRANCH  15  16
HETATM   16  C   UNL     1     -22.647 -12.513  -0.561  1.00  0.00     0.288 C 
HETATM   17  O   UNL     1     -23.750 -12.062  -0.300  1.00  0.00    -0.260 OA
BRANCH  16  18
HETATM   18  C   UNL     1     -22.349 -13.934  -0.963  1.00  0.00     0.089 C 
HETATM   19  C   UNL     1     -21.268 -14.646  -0.580  1.00  0.00    -0.056 C 
HETATM   20  C   UNL     1     -21.036 -16.080  -0.995  1.00  0.00     0.048 C 
BRANCH  19  21
HETATM   21  C   UNL     1     -20.235 -14.094   0.281  1.00  0.00     0.007 C 
HETATM   22  C   UNL     1     -18.934 -14.168  -0.035  1.00  0.00     0.001 C 
BRANCH  22  23
HETATM   23  C   UNL     1     -17.866 -13.601   0.753  1.00  0.00     0.007 C 
HETATM   24  C   UNL     1     -16.897 -12.774   0.307  1.00  0.00    -0.062 C 
HETATM   25  C   UNL     1     -15.760 -12.482   1.268  1.00  0.00     0.048 C 
BRANCH  24  26
HETATM   26  C   UNL     1     -16.818 -12.268  -1.078  1.00  0.00     0.007 C 
HETATM   27  C   UNL     1     -15.792 -11.575  -1.600  1.00  0.00     0.009 C 
BRANCH  27  28
HETATM   28  C   UNL     1     -15.432 -11.438  -3.032  1.00  0.00    -0.048 C 
HETATM   29  C   UNL     1     -16.017 -10.377  -3.652  1.00  0.00    -0.077 C 
HETATM   30  C   UNL     1     -16.698  -9.241  -2.947  1.00  0.00     0.044 C 
HETATM   31  C   UNL     1     -16.165 -10.269  -5.144  1.00  0.00     0.034 C 
HETATM   32  C   UNL     1     -15.322 -11.160  -6.028  1.00  0.00     0.005 C 
HETATM   33  C   UNL     1     -14.441 -12.177  -5.322  1.00  0.00     0.014 C 
HETATM   34  C   UNL     1     -14.722 -12.560  -3.823  1.00  0.00    -0.020 C 
HETATM   35  C   UNL     1     -13.302 -12.927  -3.298  1.00  0.00     0.020 C 
HETATM   36  C   UNL     1     -15.543 -13.869  -3.740  1.00  0.00     0.020 C 
ENDBRANCH  27  28
ENDBRANCH  24  26
ENDBRANCH  22  23
ENDBRANCH  19  21
ENDBRANCH  16  18
ENDBRANCH  15  16
ENDBRANCH   1  15
BRANCH  10  37
HETATM   37  C   UNL     1     -20.660  -5.225  -4.842  1.00  0.00     0.038 C 
BRANCH  37  38
HETATM   38  C   UNL     1     -20.030  -5.696  -6.149  1.00  0.00     0.003 C 
BRANCH  38  39
HETATM   39  C   UNL     1     -19.244  -4.608  -6.839  1.00  0.00     0.004 C 
BRANCH  39  40
HETATM   40  C   UNL     1     -19.950  -4.191  -8.145  1.00  0.00    -0.019 C 
HETATM   41  C   UNL     1     -19.768  -5.238  -9.245  1.00  0.00     0.010 C 
BRANCH  40  42
HETATM   42  C   UNL     1     -21.435  -3.933  -7.888  1.00  0.00     0.004 C 
BRANCH  42  43
HETATM   43  C   UNL     1     -22.280  -4.556  -8.997  1.00  0.00     0.001 C 
BRANCH  43  44
HETATM   44  C   UNL     1     -23.191  -3.526  -9.628  1.00  0.00     0.004 C 
BRANCH  44  45
HETATM   45  C   UNL     1     -22.853  -3.292 -11.110  1.00  0.00    -0.019 C 
HETATM   46  C   UNL     1     -21.354  -3.063 -11.319  1.00  0.00     0.010 C 
BRANCH  45  47
HETATM   47  C   UNL     1     -23.349  -4.474 -11.958  1.00  0.00     0.004 C 
BRANCH  47  48
HETATM   48  C   UNL     1     -24.188  -3.985 -13.140  1.00  0.00     0.001 C 
BRANCH  48  49
HETATM   49  C   UNL     1     -24.341  -2.471 -13.173  1.00  0.00     0.004 C 
BRANCH  49  50
HETATM   50  C   UNL     1     -23.379  -1.830 -14.193  1.00  0.00    -0.023 C 
HETATM   51  C   UNL     1     -22.705  -2.868 -15.094  1.00  0.00     0.009 C 
HETATM   52  C   UNL     1     -24.138  -0.810 -15.040  1.00  0.00     0.009 C 
ENDBRANCH  49  50
ENDBRANCH  48  49
ENDBRANCH  47  48
ENDBRANCH  45  47
ENDBRANCH  44  45
ENDBRANCH  43  44
ENDBRANCH  42  43
ENDBRANCH  40  42
ENDBRANCH  39  40
ENDBRANCH  38  39
ENDBRANCH  37  38
ENDBRANCH  10  37
TORSDOF 19
ENDMDL
MODEL 3
REMARK VINA RESULT:      -8.2      2.196      5.863
REMARK  19 active torsions:
REMARK  status: ('A' for Active; 'I' for Inactive)
REMARK    1  A    between atoms: C_3  and  C_10 
REMARK    2  A    between atoms: C_11  and  C_12 
REMARK    3  A    between atoms: C_13  and  C_14 
REMARK    4  A    between atoms: C_15  and  C_16 
REMARK    5  A    between atoms: C_17  and  C_18 
REMARK    6  A    between atoms: C_18  and  O_20 
REMARK    7  A    between atoms: O_20  and  C_21 
REMARK    8  A    between atoms: C_30  and  C_34 
REMARK    9  A    between atoms: C_34  and  C_35 
REMARK   10  A    between atoms: C_35  and  C_36 
REMARK   11  A    between atoms: C_36  and  C_37 
REMARK   12  A    between atoms: C_37  and  C_39 
REMARK   13  A    between atoms: C_39  and  C_40 
REMARK   14  A    between atoms: C_40  and  C_41 
REMARK   15  A    between atoms: C_41  and  C_42 
REMARK   16  A    between atoms: C_42  and  C_44 
REMARK   17  A    between atoms: C_44  and  C_45 
REMARK   18  A    between atoms: C_45  and  C_46 
REMARK   19  A    between atoms: C_46  and  C_47 
ROOT
HETATM    1  C   UNL     1     -20.770 -13.147  -1.104  1.00  0.00     0.092 A 
HETATM    2  C   UNL     1     -19.922 -12.028  -1.180  1.00  0.00    -0.018 A 
HETATM    3  C   UNL     1     -20.480 -10.723  -1.210  1.00  0.00    -0.015 A 
HETATM    4  C   UNL     1     -21.870 -10.543  -1.187  1.00  0.00     0.083 A 
HETATM    5  C   UNL     1     -22.727 -11.663  -1.107  1.00  0.00    -0.019 A 
HETATM    6  C   UNL     1     -22.176 -12.988  -1.123  1.00  0.00    -0.019 A 
HETATM    7  C   UNL     1     -23.092 -14.182  -1.145  1.00  0.00     0.052 C 
HETATM    8  C   UNL     1     -24.215 -11.442  -0.926  1.00  0.00     0.052 C 
HETATM    9  O   UNL     1     -22.454  -9.292  -1.269  1.00  0.00    -0.339 OA
HETATM   10  C   UNL     1     -21.662  -8.188  -0.790  1.00  0.00     0.064 C 
HETATM   11  C   UNL     1     -20.257  -8.235  -1.399  1.00  0.00     0.043 C 
HETATM   12  C   UNL     1     -19.551  -9.544  -1.203  1.00  0.00     0.045 C 
HETATM   13  C   UNL     1     -21.691  -8.203   0.748  1.00  0.00     0.046 C 
HETATM   14  C   UNL     1     -18.422 -12.175  -1.249  1.00  0.00     0.052 C 
ENDROOT
BRANCH   1  15
HETATM   15  O   UNL     1     -20.111 -14.422  -1.119  1.00  0.00    -0.274 OA
BRANCH  15  16
HETATM   16  C   UNL     1     -20.232 -15.296  -0.026  1.00  0.00     0.288 C 
HETATM   17  O   UNL     1     -21.045 -16.201   0.059  1.00  0.00    -0.260 OA
BRANCH  16  18
HETATM   18  C   UNL     1     -19.203 -14.935   1.013  1.00  0.00     0.089 C 
HETATM   19  C   UNL     1     -17.866 -15.040   0.862  1.00  0.00    -0.056 C 
HETATM   20  C   UNL     1     -16.880 -14.637   1.933  1.00  0.00     0.048 C 
BRANCH  19  21
HETATM   21  C   UNL     1     -17.256 -15.542  -0.359  1.00  0.00     0.007 C 
HETATM   22  C   UNL     1     -16.053 -15.121  -0.777  1.00  0.00     0.001 C 
BRANCH  22  23
HETATM   23  C   UNL     1     -15.376 -15.612  -1.952  1.00  0.00     0.007 C 
HETATM   24  C   UNL     1     -15.234 -14.958  -3.124  1.00  0.00    -0.062 C 
HETATM   25  C   UNL     1     -14.675 -15.758  -4.285  1.00  0.00     0.048 C 
BRANCH  24  26
HETATM   26  C   UNL     1     -15.715 -13.582  -3.363  1.00  0.00     0.007 C 
HETATM   27  C   UNL     1     -16.480 -13.189  -4.396  1.00  0.00     0.009 C 
BRANCH  27  28
HETATM   28  C   UNL     1     -17.356 -11.995  -4.466  1.00  0.00    -0.048 C 
HETATM   29  C   UNL     1     -18.654 -12.275  -4.764  1.00  0.00    -0.077 C 
HETATM   30  C   UNL     1     -19.269 -13.643  -4.715  1.00  0.00     0.044 C 
HETATM   31  C   UNL     1     -19.617 -11.257  -5.307  1.00  0.00     0.034 C 
HETATM   32  C   UNL     1     -19.278  -9.789  -5.176  1.00  0.00     0.005 C 
HETATM   33  C   UNL     1     -17.922  -9.457  -4.576  1.00  0.00     0.014 C 
HETATM   34  C   UNL     1     -16.798 -10.554  -4.511  1.00  0.00    -0.020 C 
HETATM   35  C   UNL     1     -15.988 -10.131  -3.248  1.00  0.00     0.020 C 
HETATM   36  C   UNL     1     -15.818 -10.401  -5.698  1.00  0.00     0.020 C 
ENDBRANCH  27  28
ENDBRANCH  24  26
ENDBRANCH  22  23
ENDBRANCH  19  21
ENDBRANCH  16  18
ENDBRANCH  15  16
ENDBRANCH   1  15
BRANCH  10  37
HETATM   37  C   UNL     1     -22.347  -6.864  -1.230  1.00  0.00     0.038 C 
BRANCH  37  38
HETATM   38  C   UNL     1     -21.580  -6.142  -2.333  1.00  0.00     0.003 C 
BRANCH  38  39
HETATM   39  C   UNL     1     -22.186  -6.359  -3.699  1.00  0.00     0.004 C 
BRANCH  39  40
HETATM   40  C   UNL     1     -21.074  -6.604  -4.739  1.00  0.00    -0.019 C 
HETATM   41  C   UNL     1     -21.577  -7.436  -5.920  1.00  0.00     0.010 C 
BRANCH  40  42
HETATM   42  C   UNL     1     -20.497  -5.274  -5.224  1.00  0.00     0.004 C 
BRANCH  42  43
HETATM   43  C   UNL     1     -19.831  -5.453  -6.587  1.00  0.00     0.001 C 
BRANCH  43  44
HETATM   44  C   UNL     1     -20.019  -4.223  -7.447  1.00  0.00     0.004 C 
BRANCH  44  45
HETATM   45  C   UNL     1     -20.996  -4.478  -8.607  1.00  0.00    -0.019 C 
HETATM   46  C   UNL     1     -22.454  -4.371  -8.153  1.00  0.00     0.010 C 
BRANCH  45  47
HETATM   47  C   UNL     1     -20.711  -3.503  -9.762  1.00  0.00     0.004 C 
BRANCH  47  48
HETATM   48  C   UNL     1     -20.634  -4.245 -11.097  1.00  0.00     0.001 C 
BRANCH  48  49
HETATM   49  C   UNL     1     -21.999  -4.459 -11.737  1.00  0.00     0.004 C 
BRANCH  49  50
HETATM   50  C   UNL     1     -22.727  -3.121 -11.971  1.00  0.00    -0.023 C 
HETATM   51  C   UNL     1     -22.905  -2.803 -13.457  1.00  0.00     0.009 C 
HETATM   52  C   UNL     1     -24.084  -3.149 -11.271  1.00  0.00     0.009 C 
ENDBRANCH  49  50
ENDBRANCH  48  49
ENDBRANCH  47  48
ENDBRANCH  45  47
ENDBRANCH  44  45
ENDBRANCH  43  44
ENDBRANCH  42  43
ENDBRANCH  40  42
ENDBRANCH  39  40
ENDBRANCH  38  39
ENDBRANCH  37  38
ENDBRANCH  10  37
TORSDOF 19
ENDMDL
MODEL 4
REMARK VINA RESULT:      -8.1      2.890      6.620
REMARK  19 active torsions:
REMARK  status: ('A' for Active; 'I' for Inactive)
REMARK    1  A    between atoms: C_3  and  C_10 
REMARK    2  A    between atoms: C_11  and  C_12 
REMARK    3  A    between atoms: C_13  and  C_14 
REMARK    4  A    between atoms: C_15  and  C_16 
REMARK    5  A    between atoms: C_17  and  C_18 
REMARK    6  A    between atoms: C_18  and  O_20 
REMARK    7  A    between atoms: O_20  and  C_21 
REMARK    8  A    between atoms: C_30  and  C_34 
REMARK    9  A    between atoms: C_34  and  C_35 
REMARK   10  A    between atoms: C_35  and  C_36 
REMARK   11  A    between atoms: C_36  and  C_37 
REMARK   12  A    between atoms: C_37  and  C_39 
REMARK   13  A    between atoms: C_39  and  C_40 
REMARK   14  A    between atoms: C_40  and  C_41 
REMARK   15  A    between atoms: C_41  and  C_42 
REMARK   16  A    between atoms: C_42  and  C_44 
REMARK   17  A    between atoms: C_44  and  C_45 
REMARK   18  A    between atoms: C_45  and  C_46 
REMARK   19  A    between atoms: C_46  and  C_47 
ROOT
HETATM    1  C   UNL     1     -22.398 -10.551  -1.299  1.00  0.00     0.092 A 
HETATM    2  C   UNL     1     -22.310  -9.180  -0.995  1.00  0.00    -0.018 A 
HETATM    3  C   UNL     1     -21.929  -8.259  -2.004  1.00  0.00    -0.015 A 
HETATM    4  C   UNL     1     -21.618  -8.706  -3.296  1.00  0.00     0.083 A 
HETATM    5  C   UNL     1     -21.708 -10.081  -3.609  1.00  0.00    -0.019 A 
HETATM    6  C   UNL     1     -22.047 -11.026  -2.585  1.00  0.00    -0.019 A 
HETATM    7  C   UNL     1     -22.040 -12.501  -2.891  1.00  0.00     0.052 C 
HETATM    8  C   UNL     1     -21.520 -10.524  -5.046  1.00  0.00     0.052 C 
HETATM    9  O   UNL     1     -21.190  -7.847  -4.293  1.00  0.00    -0.339 OA
HETATM   10  C   UNL     1     -21.626  -6.478  -4.182  1.00  0.00     0.064 C 
HETATM   11  C   UNL     1     -21.354  -5.943  -2.772  1.00  0.00     0.043 C 
HETATM   12  C   UNL     1     -21.928  -6.794  -1.677  1.00  0.00     0.045 C 
HETATM   13  C   UNL     1     -23.099  -6.402  -4.620  1.00  0.00     0.046 C 
HETATM   14  C   UNL     1     -22.595  -8.658   0.391  1.00  0.00     0.052 C 
ENDROOT
BRANCH   1  15
HETATM   15  O   UNL     1     -22.752 -11.404  -0.201  1.00  0.00    -0.274 OA
BRANCH  15  16
HETATM   16  C   UNL     1     -21.755 -12.070   0.530  1.00  0.00     0.288 C 
HETATM   17  O   UNL     1     -20.556 -11.895   0.397  1.00  0.00    -0.260 OA
BRANCH  16  18
HETATM   18  C   UNL     1     -22.404 -13.027   1.496  1.00  0.00     0.089 C 
HETATM   19  C   UNL     1     -22.303 -14.372   1.454  1.00  0.00    -0.056 C 
HETATM   20  C   UNL     1     -22.955 -15.281   2.469  1.00  0.00     0.048 C 
BRANCH  19  21
HETATM   21  C   UNL     1     -21.541 -15.066   0.427  1.00  0.00     0.007 C 
HETATM   22  C   UNL     1     -20.207 -15.186   0.492  1.00  0.00     0.001 C 
BRANCH  22  23
HETATM   23  C   UNL     1     -19.401 -15.899  -0.469  1.00  0.00     0.007 C 
HETATM   24  C   UNL     1     -18.818 -15.375  -1.567  1.00  0.00    -0.062 C 
HETATM   25  C   UNL     1     -18.202 -16.359  -2.543  1.00  0.00     0.048 C 
BRANCH  24  26
HETATM   26  C   UNL     1     -18.873 -13.943  -1.926  1.00  0.00     0.007 C 
HETATM   27  C   UNL     1     -17.938 -13.275  -2.625  1.00  0.00     0.009 C 
BRANCH  27  28
HETATM   28  C   UNL     1     -18.115 -12.022  -3.397  1.00  0.00    -0.048 C 
HETATM   29  C   UNL     1     -18.322 -12.216  -4.728  1.00  0.00    -0.077 C 
HETATM   30  C   UNL     1     -18.674 -13.531  -5.359  1.00  0.00     0.044 C 
HETATM   31  C   UNL     1     -18.101 -11.149  -5.764  1.00  0.00     0.034 C 
HETATM   32  C   UNL     1     -18.009  -9.707  -5.319  1.00  0.00     0.005 C 
HETATM   33  C   UNL     1     -18.059  -9.455  -3.821  1.00  0.00     0.014 C 
HETATM   34  C   UNL     1     -17.783 -10.630  -2.813  1.00  0.00    -0.020 C 
HETATM   35  C   UNL     1     -18.640 -10.222  -1.577  1.00  0.00     0.020 C 
HETATM   36  C   UNL     1     -16.315 -10.595  -2.326  1.00  0.00     0.020 C 
ENDBRANCH  27  28
ENDBRANCH  24  26
ENDBRANCH  22  23
ENDBRANCH  19  21
ENDBRANCH  16  18
ENDBRANCH  15  16
ENDBRANCH   1  15
BRANCH  10  37
HETATM   37  C   UNL     1     -20.820  -5.622  -5.199  1.00  0.00     0.038 C 
BRANCH  37  38
HETATM   38  C   UNL     1     -19.959  -6.470  -6.130  1.00  0.00     0.003 C 
BRANCH  38  39
HETATM   39  C   UNL     1     -19.877  -5.898  -7.525  1.00  0.00     0.004 C 
BRANCH  39  40
HETATM   40  C   UNL     1     -19.426  -4.424  -7.467  1.00  0.00    -0.019 C 
HETATM   41  C   UNL     1     -17.903  -4.299  -7.434  1.00  0.00     0.010 C 
BRANCH  40  42
HETATM   42  C   UNL     1     -20.005  -3.644  -8.649  1.00  0.00     0.004 C 
BRANCH  42  43
HETATM   43  C   UNL     1     -21.250  -4.345  -9.186  1.00  0.00     0.001 C 
BRANCH  43  44
HETATM   44  C   UNL     1     -22.509  -3.656  -8.707  1.00  0.00     0.004 C 
BRANCH  44  45
HETATM   45  C   UNL     1     -23.777  -4.314  -9.278  1.00  0.00    -0.019 C 
HETATM   46  C   UNL     1     -24.838  -3.274  -9.644  1.00  0.00     0.010 C 
BRANCH  45  47
HETATM   47  C   UNL     1     -23.419  -5.181 -10.496  1.00  0.00     0.004 C 
BRANCH  47  48
HETATM   48  C   UNL     1     -23.818  -4.485 -11.799  1.00  0.00     0.001 C 
BRANCH  48  49
HETATM   49  C   UNL     1     -22.660  -3.751 -12.459  1.00  0.00     0.004 C 
BRANCH  49  50
HETATM   50  C   UNL     1     -23.159  -2.587 -13.337  1.00  0.00    -0.023 C 
HETATM   51  C   UNL     1     -22.727  -2.729 -14.798  1.00  0.00     0.009 C 
HETATM   52  C   UNL     1     -24.680  -2.491 -13.243  1.00  0.00     0.009 C 
ENDBRANCH  49  50
ENDBRANCH  48  49
ENDBRANCH  47  48
ENDBRANCH  45  47
ENDBRANCH  44  45
ENDBRANCH  43  44
ENDBRANCH  42  43
ENDBRANCH  40  42
ENDBRANCH  39  40
ENDBRANCH  38  39
ENDBRANCH  37  38
ENDBRANCH  10  37
TORSDOF 19
ENDMDL
MODEL 5
REMARK VINA RESULT:      -7.3      2.373      6.585
REMARK  19 active torsions:
REMARK  status: ('A' for Active; 'I' for Inactive)
REMARK    1  A    between atoms: C_3  and  C_10 
REMARK    2  A    between atoms: C_11  and  C_12 
REMARK    3  A    between atoms: C_13  and  C_14 
REMARK    4  A    between atoms: C_15  and  C_16 
REMARK    5  A    between atoms: C_17  and  C_18 
REMARK    6  A    between atoms: C_18  and  O_20 
REMARK    7  A    between atoms: O_20  and  C_21 
REMARK    8  A    between atoms: C_30  and  C_34 
REMARK    9  A    between atoms: C_34  and  C_35 
REMARK   10  A    between atoms: C_35  and  C_36 
REMARK   11  A    between atoms: C_36  and  C_37 
REMARK   12  A    between atoms: C_37  and  C_39 
REMARK   13  A    between atoms: C_39  and  C_40 
REMARK   14  A    between atoms: C_40  and  C_41 
REMARK   15  A    between atoms: C_41  and  C_42 
REMARK   16  A    between atoms: C_42  and  C_44 
REMARK   17  A    between atoms: C_44  and  C_45 
REMARK   18  A    between atoms: C_45  and  C_46 
REMARK   19  A    between atoms: C_46  and  C_47 
ROOT
HETATM    1  C   UNL     1     -21.367 -10.795  -1.684  1.00  0.00     0.092 A 
HETATM    2  C   UNL     1     -21.790  -9.509  -1.302  1.00  0.00    -0.018 A 
HETATM    3  C   UNL     1     -21.513  -8.399  -2.141  1.00  0.00    -0.015 A 
HETATM    4  C   UNL     1     -20.801  -8.570  -3.337  1.00  0.00     0.083 A 
HETATM    5  C   UNL     1     -20.376  -9.860  -3.728  1.00  0.00    -0.019 A 
HETATM    6  C   UNL     1     -20.610 -10.982  -2.866  1.00  0.00    -0.019 A 
HETATM    7  C   UNL     1     -20.065 -12.337  -3.232  1.00  0.00     0.052 C 
HETATM    8  C   UNL     1     -19.748 -10.046  -5.094  1.00  0.00     0.052 C 
HETATM    9  O   UNL     1     -20.464  -7.507  -4.154  1.00  0.00    -0.339 OA
HETATM   10  C   UNL     1     -21.327  -6.355  -4.089  1.00  0.00     0.064 C 
HETATM   11  C   UNL     1     -21.555  -5.942  -2.631  1.00  0.00     0.043 C 
HETATM   12  C   UNL     1     -22.052  -7.053  -1.753  1.00  0.00     0.045 C 
HETATM   13  C   UNL     1     -22.614  -6.669  -4.871  1.00  0.00     0.046 C 
HETATM   14  C   UNL     1     -22.522  -9.271  -0.005  1.00  0.00     0.052 C 
ENDROOT
BRANCH   1  15
HETATM   15  O   UNL     1     -21.660 -11.844  -0.750  1.00  0.00    -0.274 OA
BRANCH  15  16
HETATM   16  C   UNL     1     -20.761 -12.143   0.286  1.00  0.00     0.288 C 
HETATM   17  O   UNL     1     -19.593 -11.794   0.321  1.00  0.00    -0.260 OA
BRANCH  16  18
HETATM   18  C   UNL     1     -21.469 -12.957   1.338  1.00  0.00     0.089 C 
HETATM   19  C   UNL     1     -21.497 -14.305   1.398  1.00  0.00    -0.056 C 
HETATM   20  C   UNL     1     -22.202 -15.068   2.495  1.00  0.00     0.048 C 
BRANCH  19  21
HETATM   21  C   UNL     1     -20.836 -15.144   0.412  1.00  0.00     0.007 C 
HETATM   22  C   UNL     1     -19.501 -15.256   0.356  1.00  0.00     0.001 C 
BRANCH  22  23
HETATM   23  C   UNL     1     -18.788 -16.106  -0.567  1.00  0.00     0.007 C 
HETATM   24  C   UNL     1     -17.896 -15.703  -1.497  1.00  0.00    -0.062 C 
HETATM   25  C   UNL     1     -17.439 -16.748  -2.496  1.00  0.00     0.048 C 
BRANCH  24  26
HETATM   26  C   UNL     1     -17.464 -14.301  -1.672  1.00  0.00     0.007 C 
HETATM   27  C   UNL     1     -16.328 -13.901  -2.268  1.00  0.00     0.009 C 
BRANCH  27  28
HETATM   28  C   UNL     1     -16.047 -12.579  -2.877  1.00  0.00    -0.048 C 
HETATM   29  C   UNL     1     -16.163 -11.534  -2.013  1.00  0.00    -0.077 C 
HETATM   30  C   UNL     1     -16.239 -11.661  -0.520  1.00  0.00     0.044 C 
HETATM   31  C   UNL     1     -16.355 -10.111  -2.456  1.00  0.00     0.034 C 
HETATM   32  C   UNL     1     -16.041  -9.743  -3.889  1.00  0.00     0.005 C 
HETATM   33  C   UNL     1     -15.633 -10.883  -4.807  1.00  0.00     0.014 C 
HETATM   34  C   UNL     1     -15.944 -12.371  -4.406  1.00  0.00    -0.020 C 
HETATM   35  C   UNL     1     -14.785 -13.154  -5.092  1.00  0.00     0.020 C 
HETATM   36  C   UNL     1     -17.238 -12.862  -5.096  1.00  0.00     0.020 C 
ENDBRANCH  27  28
ENDBRANCH  24  26
ENDBRANCH  22  23
ENDBRANCH  19  21
ENDBRANCH  16  18
ENDBRANCH  15  16
ENDBRANCH   1  15
BRANCH  10  37
HETATM   37  C   UNL     1     -20.635  -5.179  -4.833  1.00  0.00     0.038 C 
BRANCH  37  38
HETATM   38  C   UNL     1     -21.327  -4.824  -6.145  1.00  0.00     0.003 C 
BRANCH  38  39
HETATM   39  C   UNL     1     -20.592  -3.755  -6.918  1.00  0.00     0.004 C 
BRANCH  39  40
HETATM   40  C   UNL     1     -19.589  -4.403  -7.894  1.00  0.00    -0.019 C 
HETATM   41  C   UNL     1     -19.855  -5.899  -8.067  1.00  0.00     0.010 C 
BRANCH  40  42
HETATM   42  C   UNL     1     -19.625  -3.690  -9.246  1.00  0.00     0.004 C 
BRANCH  42  43
HETATM   43  C   UNL     1     -20.610  -4.384 -10.184  1.00  0.00     0.001 C 
BRANCH  43  44
HETATM   44  C   UNL     1     -21.909  -3.614 -10.272  1.00  0.00     0.004 C 
BRANCH  44  45
HETATM   45  C   UNL     1     -23.124  -4.549 -10.392  1.00  0.00    -0.019 C 
HETATM   46  C   UNL     1     -24.269  -4.110  -9.477  1.00  0.00     0.010 C 
BRANCH  45  47
HETATM   47  C   UNL     1     -23.591  -4.623 -11.855  1.00  0.00     0.004 C 
BRANCH  47  48
HETATM   48  C   UNL     1     -24.326  -3.343 -12.260  1.00  0.00     0.001 C 
BRANCH  48  49
HETATM   49  C   UNL     1     -23.422  -2.334 -12.954  1.00  0.00     0.004 C 
BRANCH  49  50
HETATM   50  C   UNL     1     -23.727  -2.251 -14.462  1.00  0.00    -0.023 C 
HETATM   51  C   UNL     1     -24.107  -0.836 -14.906  1.00  0.00     0.009 C 
HETATM   52  C   UNL     1     -22.519  -2.746 -15.256  1.00  0.00     0.009 C 
ENDBRANCH  49  50
ENDBRANCH  48  49
ENDBRANCH  47  48
ENDBRANCH  45  47
ENDBRANCH  44  45
ENDBRANCH  43  44
ENDBRANCH  42  43
ENDBRANCH  40  42
ENDBRANCH  39  40
ENDBRANCH  38  39
ENDBRANCH  37  38
ENDBRANCH  10  37
TORSDOF 19
ENDMDL
MODEL 6
REMARK VINA RESULT:      -7.2     19.516     23.851
REMARK  19 active torsions:
REMARK  status: ('A' for Active; 'I' for Inactive)
REMARK    1  A    between atoms: C_3  and  C_10 
REMARK    2  A    between atoms: C_11  and  C_12 
REMARK    3  A    between atoms: C_13  and  C_14 
REMARK    4  A    between atoms: C_15  and  C_16 
REMARK    5  A    between atoms: C_17  and  C_18 
REMARK    6  A    between atoms: C_18  and  O_20 
REMARK    7  A    between atoms: O_20  and  C_21 
REMARK    8  A    between atoms: C_30  and  C_34 
REMARK    9  A    between atoms: C_34  and  C_35 
REMARK   10  A    between atoms: C_35  and  C_36 
REMARK   11  A    between atoms: C_36  and  C_37 
REMARK   12  A    between atoms: C_37  and  C_39 
REMARK   13  A    between atoms: C_39  and  C_40 
REMARK   14  A    between atoms: C_40  and  C_41 
REMARK   15  A    between atoms: C_41  and  C_42 
REMARK   16  A    between atoms: C_42  and  C_44 
REMARK   17  A    between atoms: C_44  and  C_45 
REMARK   18  A    between atoms: C_45  and  C_46 
REMARK   19  A    between atoms: C_46  and  C_47 
ROOT
HETATM    1  C   UNL     1     -26.126   9.449   1.052  1.00  0.00     0.092 A 
HETATM    2  C   UNL     1     -25.479   9.939   2.200  1.00  0.00    -0.018 A 
HETATM    3  C   UNL     1     -24.106   9.647   2.413  1.00  0.00    -0.015 A 
HETATM    4  C   UNL     1     -23.396   8.857   1.498  1.00  0.00     0.083 A 
HETATM    5  C   UNL     1     -24.040   8.365   0.340  1.00  0.00    -0.019 A 
HETATM    6  C   UNL     1     -25.438   8.614   0.139  1.00  0.00    -0.019 A 
HETATM    7  C   UNL     1     -26.148   8.002  -1.039  1.00  0.00     0.052 C 
HETATM    8  C   UNL     1     -23.218   7.647  -0.711  1.00  0.00     0.052 C 
HETATM    9  O   UNL     1     -22.073   8.506   1.696  1.00  0.00    -0.339 OA
HETATM   10  C   UNL     1     -21.288   9.410   2.497  1.00  0.00     0.064 C 
HETATM   11  C   UNL     1     -22.022   9.743   3.801  1.00  0.00     0.043 C 
HETATM   12  C   UNL     1     -23.418  10.255   3.600  1.00  0.00     0.045 C 
HETATM   13  C   UNL     1     -20.931  10.634   1.637  1.00  0.00     0.046 C 
HETATM   14  C   UNL     1     -26.212  10.758   3.232  1.00  0.00     0.052 C 
ENDROOT
BRANCH   1  15
HETATM   15  O   UNL     1     -27.522   9.765   0.948  1.00  0.00    -0.274 OA
BRANCH  15  16
HETATM   16  C   UNL     1     -27.944  10.876   0.201  1.00  0.00     0.288 C 
HETATM   17  O   UNL     1     -27.353  11.337  -0.761  1.00  0.00    -0.260 OA
BRANCH  16  18
HETATM   18  C   UNL     1     -29.234  11.400   0.776  1.00  0.00     0.089 C 
HETATM   19  C   UNL     1     -30.259  11.914   0.064  1.00  0.00    -0.056 C 
HETATM   20  C   UNL     1     -31.542  12.399   0.696  1.00  0.00     0.048 C 
BRANCH  19  21
HETATM   21  C   UNL     1     -30.219  12.032  -1.385  1.00  0.00     0.007 C 
HETATM   22  C   UNL     1     -30.789  11.121  -2.188  1.00  0.00     0.001 C 
BRANCH  22  23
HETATM   23  C   UNL     1     -30.823  11.205  -3.628  1.00  0.00     0.007 C 
HETATM   24  C   UNL     1     -29.903  10.706  -4.479  1.00  0.00    -0.062 C 
HETATM   25  C   UNL     1     -30.039  11.104  -5.935  1.00  0.00     0.048 C 
BRANCH  24  26
HETATM   26  C   UNL     1     -28.721   9.929  -4.052  1.00  0.00     0.007 C 
HETATM   27  C   UNL     1     -27.766   9.447  -4.866  1.00  0.00     0.009 C 
BRANCH  27  28
HETATM   28  C   UNL     1     -26.375   9.082  -4.506  1.00  0.00    -0.048 C 
HETATM   29  C   UNL     1     -25.574  10.148  -4.235  1.00  0.00    -0.077 C 
HETATM   30  C   UNL     1     -26.062  11.546  -3.986  1.00  0.00     0.044 C 
HETATM   31  C   UNL     1     -24.072  10.087  -4.273  1.00  0.00     0.034 C 
HETATM   32  C   UNL     1     -23.396   8.735  -4.237  1.00  0.00     0.005 C 
HETATM   33  C   UNL     1     -24.308   7.520  -4.257  1.00  0.00     0.014 C 
HETATM   34  C   UNL     1     -25.803   7.662  -4.723  1.00  0.00    -0.020 C 
HETATM   35  C   UNL     1     -26.518   6.542  -3.909  1.00  0.00     0.020 C 
HETATM   36  C   UNL     1     -25.953   7.251  -6.207  1.00  0.00     0.020 C 
ENDBRANCH  27  28
ENDBRANCH  24  26
ENDBRANCH  22  23
ENDBRANCH  19  21
ENDBRANCH  16  18
ENDBRANCH  15  16
ENDBRANCH   1  15
BRANCH  10  37
HETATM   37  C   UNL     1     -19.944   8.713   2.851  1.00  0.00     0.038 C 
BRANCH  37  38
HETATM   38  C   UNL     1     -19.665   8.699   4.350  1.00  0.00     0.003 C 
BRANCH  38  39
HETATM   39  C   UNL     1     -18.239   9.074   4.678  1.00  0.00     0.004 C 
BRANCH  39  40
HETATM   40  C   UNL     1     -18.204  10.428   5.414  1.00  0.00    -0.019 C 
HETATM   41  C   UNL     1     -18.114  10.245   6.930  1.00  0.00     0.010 C 
BRANCH  40  42
HETATM   42  C   UNL     1     -17.041  11.281   4.905  1.00  0.00     0.004 C 
BRANCH  42  43
HETATM   43  C   UNL     1     -15.801  11.051   5.765  1.00  0.00     0.001 C 
BRANCH  43  44
HETATM   44  C   UNL     1     -14.673  10.464   4.945  1.00  0.00     0.004 C 
BRANCH  44  45
HETATM   45  C   UNL     1     -14.265   9.068   5.446  1.00  0.00    -0.019 C 
HETATM   46  C   UNL     1     -14.613   8.873   6.924  1.00  0.00     0.010 C 
BRANCH  45  47
HETATM   47  C   UNL     1     -14.925   7.982   4.582  1.00  0.00     0.004 C 
BRANCH  47  48
HETATM   48  C   UNL     1     -14.346   7.983   3.166  1.00  0.00     0.001 C 
BRANCH  48  49
HETATM   49  C   UNL     1     -15.379   8.331   2.103  1.00  0.00     0.004 C 
BRANCH  49  50
HETATM   50  C   UNL     1     -14.902   9.497   1.216  1.00  0.00    -0.023 C 
HETATM   51  C   UNL     1     -15.746  10.760   1.404  1.00  0.00     0.009 C 
HETATM   52  C   UNL     1     -13.433   9.796   1.510  1.00  0.00     0.009 C 
ENDBRANCH  49  50
ENDBRANCH  48  49
ENDBRANCH  47  48
ENDBRANCH  45  47
ENDBRANCH  44  45
ENDBRANCH  43  44
ENDBRANCH  42  43
ENDBRANCH  40  42
ENDBRANCH  39  40
ENDBRANCH  38  39
ENDBRANCH  37  38
ENDBRANCH  10  37
TORSDOF 19
ENDMDL
MODEL 7
REMARK VINA RESULT:      -6.8      2.407      6.259
REMARK  19 active torsions:
REMARK  status: ('A' for Active; 'I' for Inactive)
REMARK    1  A    between atoms: C_3  and  C_10 
REMARK    2  A    between atoms: C_11  and  C_12 
REMARK    3  A    between atoms: C_13  and  C_14 
REMARK    4  A    between atoms: C_15  and  C_16 
REMARK    5  A    between atoms: C_17  and  C_18 
REMARK    6  A    between atoms: C_18  and  O_20 
REMARK    7  A    between atoms: O_20  and  C_21 
REMARK    8  A    between atoms: C_30  and  C_34 
REMARK    9  A    between atoms: C_34  and  C_35 
REMARK   10  A    between atoms: C_35  and  C_36 
REMARK   11  A    between atoms: C_36  and  C_37 
REMARK   12  A    between atoms: C_37  and  C_39 
REMARK   13  A    between atoms: C_39  and  C_40 
REMARK   14  A    between atoms: C_40  and  C_41 
REMARK   15  A    between atoms: C_41  and  C_42 
REMARK   16  A    between atoms: C_42  and  C_44 
REMARK   17  A    between atoms: C_44  and  C_45 
REMARK   18  A    between atoms: C_45  and  C_46 
REMARK   19  A    between atoms: C_46  and  C_47 
ROOT
HETATM    1  C   UNL     1     -20.902 -13.244  -2.127  1.00  0.00     0.092 A 
HETATM    2  C   UNL     1     -20.021 -12.168  -2.338  1.00  0.00    -0.018 A 
HETATM    3  C   UNL     1     -20.483 -10.837  -2.169  1.00  0.00    -0.015 A 
HETATM    4  C   UNL     1     -21.816 -10.586  -1.816  1.00  0.00     0.083 A 
HETATM    5  C   UNL     1     -22.705 -11.662  -1.598  1.00  0.00    -0.019 A 
HETATM    6  C   UNL     1     -22.261 -13.010  -1.811  1.00  0.00    -0.019 A 
HETATM    7  C   UNL     1     -23.236 -14.150  -1.683  1.00  0.00     0.052 C 
HETATM    8  C   UNL     1     -24.094 -11.375  -1.067  1.00  0.00     0.052 C 
HETATM    9  O   UNL     1     -22.319  -9.303  -1.695  1.00  0.00    -0.339 OA
HETATM   10  C   UNL     1     -21.367  -8.276  -1.354  1.00  0.00     0.064 C 
HETATM   11  C   UNL     1     -20.144  -8.356  -2.273  1.00  0.00     0.043 C 
HETATM   12  C   UNL     1     -19.501  -9.711  -2.315  1.00  0.00     0.045 C 
HETATM   13  C   UNL     1     -21.046  -8.392   0.146  1.00  0.00     0.046 C 
HETATM   14  C   UNL     1     -18.589 -12.389  -2.759  1.00  0.00     0.052 C 
ENDROOT
BRANCH   1  15
HETATM   15  O   UNL     1     -20.350 -14.548  -2.361  1.00  0.00    -0.274 OA
BRANCH  15  16
HETATM   16  C   UNL     1     -20.178 -15.447  -1.296  1.00  0.00     0.288 C 
HETATM   17  O   UNL     1     -20.595 -16.593  -1.274  1.00  0.00    -0.260 OA
BRANCH  16  18
HETATM   18  C   UNL     1     -19.402 -14.771  -0.196  1.00  0.00     0.089 C 
HETATM   19  C   UNL     1     -18.058 -14.745  -0.086  1.00  0.00    -0.056 C 
HETATM   20  C   UNL     1     -17.333 -14.026   1.027  1.00  0.00     0.048 C 
BRANCH  19  21
HETATM   21  C   UNL     1     -17.184 -15.402  -1.046  1.00  0.00     0.007 C 
HETATM   22  C   UNL     1     -15.999 -14.883  -1.398  1.00  0.00     0.001 C 
BRANCH  22  23
HETATM   23  C   UNL     1     -15.069 -15.507  -2.308  1.00  0.00     0.007 C 
HETATM   24  C   UNL     1     -15.123 -15.467  -3.656  1.00  0.00    -0.062 C 
HETATM   25  C   UNL     1     -14.164 -16.376  -4.400  1.00  0.00     0.048 C 
BRANCH  24  26
HETATM   26  C   UNL     1     -16.137 -14.711  -4.419  1.00  0.00     0.007 C 
HETATM   27  C   UNL     1     -15.959 -14.177  -5.640  1.00  0.00     0.009 C 
BRANCH  27  28
HETATM   28  C   UNL     1     -17.005 -13.827  -6.630  1.00  0.00    -0.048 C 
HETATM   29  C   UNL     1     -17.275 -12.494  -6.704  1.00  0.00    -0.077 C 
HETATM   30  C   UNL     1     -16.417 -11.412  -6.117  1.00  0.00     0.044 C 
HETATM   31  C   UNL     1     -18.546 -11.938  -7.282  1.00  0.00     0.034 C 
HETATM   32  C   UNL     1     -19.403 -12.828  -8.155  1.00  0.00     0.005 C 
HETATM   33  C   UNL     1     -18.947 -14.270  -8.306  1.00  0.00     0.014 C 
HETATM   34  C   UNL     1     -17.922 -14.886  -7.285  1.00  0.00    -0.020 C 
HETATM   35  C   UNL     1     -17.176 -15.943  -8.153  1.00  0.00     0.020 C 
HETATM   36  C   UNL     1     -18.661 -15.695  -6.193  1.00  0.00     0.020 C 
ENDBRANCH  27  28
ENDBRANCH  24  26
ENDBRANCH  22  23
ENDBRANCH  19  21
ENDBRANCH  16  18
ENDBRANCH  15  16
ENDBRANCH   1  15
BRANCH  10  37
HETATM   37  C   UNL     1     -22.045  -6.891  -1.554  1.00  0.00     0.038 C 
BRANCH  37  38
HETATM   38  C   UNL     1     -21.325  -6.025  -2.582  1.00  0.00     0.003 C 
BRANCH  38  39
HETATM   39  C   UNL     1     -21.830  -6.252  -3.986  1.00  0.00     0.004 C 
BRANCH  39  40
HETATM   40  C   UNL     1     -20.649  -6.262  -4.978  1.00  0.00    -0.019 C 
HETATM   41  C   UNL     1     -20.924  -7.170  -6.177  1.00  0.00     0.010 C 
BRANCH  40  42
HETATM   42  C   UNL     1     -20.331  -4.840  -5.442  1.00  0.00     0.004 C 
BRANCH  42  43
HETATM   43  C   UNL     1     -20.534  -4.718  -6.950  1.00  0.00     0.001 C 
BRANCH  43  44
HETATM   44  C   UNL     1     -21.654  -3.752  -7.270  1.00  0.00     0.004 C 
BRANCH  44  45
HETATM   45  C   UNL     1     -22.898  -4.476  -7.811  1.00  0.00    -0.019 C 
HETATM   46  C   UNL     1     -23.780  -5.010  -6.679  1.00  0.00     0.010 C 
BRANCH  45  47
HETATM   47  C   UNL     1     -23.698  -3.536  -8.729  1.00  0.00     0.004 C 
BRANCH  47  48
HETATM   48  C   UNL     1     -24.014  -4.213 -10.064  1.00  0.00     0.001 C 
BRANCH  48  49
HETATM   49  C   UNL     1     -22.768  -4.686 -10.799  1.00  0.00     0.004 C 
BRANCH  49  50
HETATM   50  C   UNL     1     -21.834  -3.509 -11.139  1.00  0.00    -0.023 C 
HETATM   51  C   UNL     1     -20.373  -3.942 -11.284  1.00  0.00     0.009 C 
HETATM   52  C   UNL     1     -22.313  -2.830 -12.421  1.00  0.00     0.009 C 
ENDBRANCH  49  50
ENDBRANCH  48  49
ENDBRANCH  47  48
ENDBRANCH  45  47
ENDBRANCH  44  45
ENDBRANCH  43  44
ENDBRANCH  42  43
ENDBRANCH  40  42
ENDBRANCH  39  40
ENDBRANCH  38  39
ENDBRANCH  37  38
ENDBRANCH  10  37
TORSDOF 19
ENDMDL
MODEL 8
REMARK VINA RESULT:      -6.7      2.894      7.231
REMARK  19 active torsions:
REMARK  status: ('A' for Active; 'I' for Inactive)
REMARK    1  A    between atoms: C_3  and  C_10 
REMARK    2  A    between atoms: C_11  and  C_12 
REMARK    3  A    between atoms: C_13  and  C_14 
REMARK    4  A    between atoms: C_15  and  C_16 
REMARK    5  A    between atoms: C_17  and  C_18 
REMARK    6  A    between atoms: C_18  and  O_20 
REMARK    7  A    between atoms: O_20  and  C_21 
REMARK    8  A    between atoms: C_30  and  C_34 
REMARK    9  A    between atoms: C_34  and  C_35 
REMARK   10  A    between atoms: C_35  and  C_36 
REMARK   11  A    between atoms: C_36  and  C_37 
REMARK   12  A    between atoms: C_37  and  C_39 
REMARK   13  A    between atoms: C_39  and  C_40 
REMARK   14  A    between atoms: C_40  and  C_41 
REMARK   15  A    between atoms: C_41  and  C_42 
REMARK   16  A    between atoms: C_42  and  C_44 
REMARK   17  A    between atoms: C_44  and  C_45 
REMARK   18  A    between atoms: C_45  and  C_46 
REMARK   19  A    between atoms: C_46  and  C_47 
ROOT
HETATM    1  C   UNL     1     -22.130  -9.583  -1.678  1.00  0.00     0.092 A 
HETATM    2  C   UNL     1     -21.917  -8.193  -1.633  1.00  0.00    -0.018 A 
HETATM    3  C   UNL     1     -21.465  -7.513  -2.793  1.00  0.00    -0.015 A 
HETATM    4  C   UNL     1     -21.210  -8.218  -3.978  1.00  0.00     0.083 A 
HETATM    5  C   UNL     1     -21.427  -9.613  -4.031  1.00  0.00    -0.019 A 
HETATM    6  C   UNL     1     -21.838 -10.318  -2.851  1.00  0.00    -0.019 A 
HETATM    7  C   UNL     1     -21.966 -11.818  -2.879  1.00  0.00     0.052 C 
HETATM    8  C   UNL     1     -21.295 -10.330  -5.359  1.00  0.00     0.052 C 
HETATM    9  O   UNL     1     -20.718  -7.601  -5.114  1.00  0.00    -0.339 OA
HETATM   10  C   UNL     1     -21.028  -6.201  -5.262  1.00  0.00     0.064 C 
HETATM   11  C   UNL     1     -20.694  -5.441  -3.974  1.00  0.00     0.043 C 
HETATM   12  C   UNL     1     -21.330  -6.019  -2.743  1.00  0.00     0.045 C 
HETATM   13  C   UNL     1     -22.493  -6.075  -5.715  1.00  0.00     0.046 C 
HETATM   14  C   UNL     1     -22.138  -7.400  -0.370  1.00  0.00     0.052 C 
ENDROOT
BRANCH   1  15
HETATM   15  O   UNL     1     -22.548 -10.183  -0.443  1.00  0.00    -0.274 OA
BRANCH  15  16
HETATM   16  C   UNL     1     -21.595 -10.661   0.471  1.00  0.00     0.288 C 
HETATM   17  O   UNL     1     -20.798  -9.965   1.077  1.00  0.00    -0.260 OA
BRANCH  16  18
HETATM   18  C   UNL     1     -21.719 -12.158   0.579  1.00  0.00     0.089 C 
HETATM   19  C   UNL     1     -20.727 -13.045   0.352  1.00  0.00    -0.056 C 
HETATM   20  C   UNL     1     -20.904 -14.538   0.504  1.00  0.00     0.048 C 
BRANCH  19  21
HETATM   21  C   UNL     1     -19.390 -12.636  -0.048  1.00  0.00     0.007 C 
HETATM   22  C   UNL     1     -18.337 -13.460   0.046  1.00  0.00     0.001 C 
BRANCH  22  23
HETATM   23  C   UNL     1     -16.997 -13.129  -0.375  1.00  0.00     0.007 C 
HETATM   24  C   UNL     1     -16.545 -13.100  -1.647  1.00  0.00    -0.062 C 
HETATM   25  C   UNL     1     -15.048 -12.938  -1.830  1.00  0.00     0.048 C 
BRANCH  24  26
HETATM   26  C   UNL     1     -17.393 -13.354  -2.829  1.00  0.00     0.007 C 
HETATM   27  C   UNL     1     -18.021 -12.414  -3.557  1.00  0.00     0.009 C 
BRANCH  27  28
HETATM   28  C   UNL     1     -18.485 -12.523  -4.961  1.00  0.00    -0.048 C 
HETATM   29  C   UNL     1     -19.363 -13.540  -5.178  1.00  0.00    -0.077 C 
HETATM   30  C   UNL     1     -20.079 -14.299  -4.100  1.00  0.00     0.044 C 
HETATM   31  C   UNL     1     -19.636 -14.122  -6.537  1.00  0.00     0.034 C 
HETATM   32  C   UNL     1     -19.229 -13.337  -7.763  1.00  0.00     0.005 C 
HETATM   33  C   UNL     1     -18.481 -12.037  -7.518  1.00  0.00     0.014 C 
HETATM   34  C   UNL     1     -17.805 -11.766  -6.125  1.00  0.00    -0.020 C 
HETATM   35  C   UNL     1     -17.870 -10.213  -6.015  1.00  0.00     0.020 C 
HETATM   36  C   UNL     1     -16.298 -12.112  -6.174  1.00  0.00     0.020 C 
ENDBRANCH  27  28
ENDBRANCH  24  26
ENDBRANCH  22  23
ENDBRANCH  19  21
ENDBRANCH  16  18
ENDBRANCH  15  16
ENDBRANCH   1  15
BRANCH  10  37
HETATM   37  C   UNL     1     -20.160  -5.625  -6.415  1.00  0.00     0.038 C 
BRANCH  37  38
HETATM   38  C   UNL     1     -20.967  -5.351  -7.680  1.00  0.00     0.003 C 
BRANCH  38  39
HETATM   39  C   UNL     1     -20.510  -4.104  -8.400  1.00  0.00     0.004 C 
BRANCH  39  40
HETATM   40  C   UNL     1     -21.366  -3.880  -9.663  1.00  0.00    -0.019 C 
HETATM   41  C   UNL     1     -20.704  -4.474 -10.908  1.00  0.00     0.010 C 
BRANCH  40  42
HETATM   42  C   UNL     1     -22.766  -4.463  -9.468  1.00  0.00     0.004 C 
BRANCH  42  43
HETATM   43  C   UNL     1     -23.434  -4.699 -10.821  1.00  0.00     0.001 C 
BRANCH  43  44
HETATM   44  C   UNL     1     -24.049  -3.424 -11.352  1.00  0.00     0.004 C 
BRANCH  44  45
HETATM   45  C   UNL     1     -24.206  -3.455 -12.882  1.00  0.00    -0.019 C 
HETATM   46  C   UNL     1     -23.066  -2.713 -13.583  1.00  0.00     0.010 C 
BRANCH  45  47
HETATM   47  C   UNL     1     -24.296  -4.909 -13.374  1.00  0.00     0.004 C 
BRANCH  47  48
HETATM   48  C   UNL     1     -24.688  -4.963 -14.851  1.00  0.00     0.001 C 
BRANCH  48  49
HETATM   49  C   UNL     1     -25.172  -6.338 -15.287  1.00  0.00     0.004 C 
BRANCH  49  50
HETATM   50  C   UNL     1     -26.380  -6.234 -16.238  1.00  0.00    -0.023 C 
HETATM   51  C   UNL     1     -26.032  -6.636 -17.673  1.00  0.00     0.009 C 
HETATM   52  C   UNL     1     -27.522  -7.100 -15.710  1.00  0.00     0.009 C 
ENDBRANCH  49  50
ENDBRANCH  48  49
ENDBRANCH  47  48
ENDBRANCH  45  47
ENDBRANCH  44  45
ENDBRANCH  43  44
ENDBRANCH  42  43
ENDBRANCH  40  42
ENDBRANCH  39  40
ENDBRANCH  38  39
ENDBRANCH  37  38
ENDBRANCH  10  37
TORSDOF 19
ENDMDL
MODEL 9
REMARK VINA RESULT:      -6.6     19.201     23.431
REMARK  19 active torsions:
REMARK  status: ('A' for Active; 'I' for Inactive)
REMARK    1  A    between atoms: C_3  and  C_10 
REMARK    2  A    between atoms: C_11  and  C_12 
REMARK    3  A    between atoms: C_13  and  C_14 
REMARK    4  A    between atoms: C_15  and  C_16 
REMARK    5  A    between atoms: C_17  and  C_18 
REMARK    6  A    between atoms: C_18  and  O_20 
REMARK    7  A    between atoms: O_20  and  C_21 
REMARK    8  A    between atoms: C_30  and  C_34 
REMARK    9  A    between atoms: C_34  and  C_35 
REMARK   10  A    between atoms: C_35  and  C_36 
REMARK   11  A    between atoms: C_36  and  C_37 
REMARK   12  A    between atoms: C_37  and  C_39 
REMARK   13  A    between atoms: C_39  and  C_40 
REMARK   14  A    between atoms: C_40  and  C_41 
REMARK   15  A    between atoms: C_41  and  C_42 
REMARK   16  A    between atoms: C_42  and  C_44 
REMARK   17  A    between atoms: C_44  and  C_45 
REMARK   18  A    between atoms: C_45  and  C_46 
REMARK   19  A    between atoms: C_46  and  C_47 
ROOT
HETATM    1  C   UNL     1     -22.929   9.324  -2.208  1.00  0.00     0.092 A 
HETATM    2  C   UNL     1     -23.460   8.871  -0.987  1.00  0.00    -0.018 A 
HETATM    3  C   UNL     1     -23.072   9.500   0.225  1.00  0.00    -0.015 A 
HETATM    4  C   UNL     1     -22.148  10.554   0.216  1.00  0.00     0.083 A 
HETATM    5  C   UNL     1     -21.615  11.017  -1.008  1.00  0.00    -0.019 A 
HETATM    6  C   UNL     1     -21.963  10.358  -2.234  1.00  0.00    -0.019 A 
HETATM    7  C   UNL     1     -21.314  10.781  -3.525  1.00  0.00     0.052 C 
HETATM    8  C   UNL     1     -20.741  12.254  -1.010  1.00  0.00     0.052 C 
HETATM    9  O   UNL     1     -21.704  11.157   1.379  1.00  0.00    -0.339 OA
HETATM   10  C   UNL     1     -22.605  11.111   2.503  1.00  0.00     0.064 C 
HETATM   11  C   UNL     1     -23.110   9.681   2.724  1.00  0.00     0.043 C 
HETATM   12  C   UNL     1     -23.720   9.055   1.504  1.00  0.00     0.045 C 
HETATM   13  C   UNL     1     -23.715  12.151   2.277  1.00  0.00     0.046 C 
HETATM   14  C   UNL     1     -24.425   7.713  -0.925  1.00  0.00     0.052 C 
ENDROOT
BRANCH   1  15
HETATM   15  O   UNL     1     -23.352   8.598  -3.371  1.00  0.00    -0.274 OA
BRANCH  15  16
HETATM   16  C   UNL     1     -24.255   9.176  -4.278  1.00  0.00     0.288 C 
HETATM   17  O   UNL     1     -23.940   9.827  -5.260  1.00  0.00    -0.260 OA
BRANCH  16  18
HETATM   18  C   UNL     1     -25.663   8.862  -3.845  1.00  0.00     0.089 C 
HETATM   19  C   UNL     1     -26.412   7.834  -4.295  1.00  0.00    -0.056 C 
HETATM   20  C   UNL     1     -27.811   7.553  -3.801  1.00  0.00     0.048 C 
BRANCH  19  21
HETATM   21  C   UNL     1     -25.926   6.893  -5.291  1.00  0.00     0.007 C 
HETATM   22  C   UNL     1     -26.280   6.979  -6.582  1.00  0.00     0.001 C 
BRANCH  22  23
HETATM   23  C   UNL     1     -25.798   6.105  -7.624  1.00  0.00     0.007 C 
HETATM   24  C   UNL     1     -25.732   6.394  -8.941  1.00  0.00    -0.062 C 
HETATM   25  C   UNL     1     -25.395   5.246  -9.871  1.00  0.00     0.048 C 
BRANCH  24  26
HETATM   26  C   UNL     1     -26.102   7.704  -9.516  1.00  0.00     0.007 C 
HETATM   27  C   UNL     1     -25.265   8.738  -9.708  1.00  0.00     0.009 C 
BRANCH  27  28
HETATM   28  C   UNL     1     -25.427   9.864 -10.659  1.00  0.00    -0.048 C 
HETATM   29  C   UNL     1     -24.679   9.747 -11.790  1.00  0.00    -0.077 C 
HETATM   30  C   UNL     1     -23.998   8.488 -12.241  1.00  0.00     0.044 C 
HETATM   31  C   UNL     1     -24.334  10.909 -12.679  1.00  0.00     0.034 C 
HETATM   32  C   UNL     1     -25.132  12.187 -12.552  1.00  0.00     0.005 C 
HETATM   33  C   UNL     1     -26.180  12.225 -11.452  1.00  0.00     0.014 C 
HETATM   34  C   UNL     1     -26.125  11.188 -10.272  1.00  0.00    -0.020 C 
HETATM   35  C   UNL     1     -27.627  11.041  -9.883  1.00  0.00     0.020 C 
HETATM   36  C   UNL     1     -25.437  11.807  -9.033  1.00  0.00     0.020 C 
ENDBRANCH  27  28
ENDBRANCH  24  26
ENDBRANCH  22  23
ENDBRANCH  19  21
ENDBRANCH  16  18
ENDBRANCH  15  16
ENDBRANCH   1  15
BRANCH  10  37
HETATM   37  C   UNL     1     -21.829  11.562   3.773  1.00  0.00     0.038 C 
BRANCH  37  38
HETATM   38  C   UNL     1     -21.624  10.429   4.772  1.00  0.00     0.003 C 
BRANCH  38  39
HETATM   39  C   UNL     1     -20.273  10.486   5.445  1.00  0.00     0.004 C 
BRANCH  39  40
HETATM   40  C   UNL     1     -19.597   9.101   5.394  1.00  0.00    -0.019 C 
HETATM   41  C   UNL     1     -20.090   8.274   4.206  1.00  0.00     0.010 C 
BRANCH  40  42
HETATM   42  C   UNL     1     -18.076   9.253   5.350  1.00  0.00     0.004 C 
BRANCH  42  43
HETATM   43  C   UNL     1     -17.698  10.675   4.941  1.00  0.00     0.001 C 
BRANCH  43  44
HETATM   44  C   UNL     1     -16.898  10.675   3.658  1.00  0.00     0.004 C 
BRANCH  44  45
HETATM   45  C   UNL     1     -17.748  10.243   2.451  1.00  0.00    -0.019 C 
HETATM   46  C   UNL     1     -17.830  11.346   1.393  1.00  0.00     0.010 C 
BRANCH  45  47
HETATM   47  C   UNL     1     -17.186   8.947   1.845  1.00  0.00     0.004 C 
BRANCH  47  48
HETATM   48  C   UNL     1     -15.755   8.695   2.323  1.00  0.00     0.001 C 
BRANCH  48  49
HETATM   49  C   UNL     1     -14.718   8.903   1.229  1.00  0.00     0.004 C 
BRANCH  49  50
HETATM   50  C   UNL     1     -14.051  10.288   1.342  1.00  0.00    -0.023 C 
HETATM   51  C   UNL     1     -12.531  10.196   1.493  1.00  0.00     0.009 C 
HETATM   52  C   UNL     1     -14.409  11.129   0.118  1.00  0.00     0.009 C 
ENDBRANCH  49  50
ENDBRANCH  48  49
ENDBRANCH  47  48
ENDBRANCH  45  47
ENDBRANCH  44  45
ENDBRANCH  43  44
ENDBRANCH  42  43
ENDBRANCH  40  42
ENDBRANCH  39  40
ENDBRANCH  38  39
ENDBRANCH  37  38
ENDBRANCH  10  37
TORSDOF 19
ENDMDL
