MODEL 1
REMARK VINA RESULT:      -4.9      0.000      0.000
REMARK  11 active torsions:
REMARK  status: ('A' for Active; 'I' for Inactive)
REMARK       I    between atoms: C_2  and  N_4 
REMARK    1  A    between atoms: N_4  and  C_5 
REMARK    2  A    between atoms: C_6  and  O_21 
REMARK    3  A    between atoms: C_8  and  C_17 
REMARK    4  A    between atoms: C_8  and  O_20 
REMARK    5  A    between atoms: C_10  and  C_11 
REMARK    6  A    between atoms: C_11  and  C_12 
REMARK    7  A    between atoms: C_11  and  O_16 
REMARK    8  A    between atoms: C_12  and  C_13 
REMARK    9  A    between atoms: C_12  and  O_15 
REMARK   10  A    between atoms: C_13  and  O_14 
REMARK   11  A    between atoms: C_17  and  O_19 
ROOT
HETATM    1  C   UNL     1     -19.973  -9.623  -4.308  1.00  0.00     0.145 C 
HETATM    2  C   UNL     1     -19.483 -10.197  -2.960  1.00  0.00     0.149 C 
HETATM    3  C   UNL     1     -20.555 -10.069  -1.875  1.00  0.00     0.114 C 
HETATM    4  C   UNL     1     -21.122  -8.647  -1.814  1.00  0.00     0.253 C 
HETATM    5  O   UNL     1     -21.577  -8.232  -3.115  1.00  0.00    -0.336 OA
HETATM    6  C   UNL     1     -20.503  -8.186  -4.079  1.00  0.00     0.182 C 
ENDROOT
BRANCH   6   7
HETATM    7  C   UNL     1     -20.945  -7.499  -5.396  1.00  0.00     0.180 C 
BRANCH   7   8
HETATM    8  C   UNL     1     -21.607  -6.116  -5.187  1.00  0.00     0.173 C 
BRANCH   8   9
HETATM    9  C   UNL     1     -21.416  -5.213  -6.420  1.00  0.00     0.198 C 
BRANCH   9  10
HETATM   10  O   UNL     1     -20.213  -4.455  -6.294  1.00  0.00    -0.398 OA
HETATM   11  H   UNL     1     -19.992  -4.117  -7.181  1.00  0.00     0.209 HD
ENDBRANCH   9  10
ENDBRANCH   8   9
BRANCH   8  12
HETATM   12  O   UNL     1     -23.013  -6.227  -4.918  1.00  0.00    -0.391 OA
HETATM   13  H   UNL     1     -23.377  -6.883  -5.540  1.00  0.00     0.210 HD
ENDBRANCH   8  12
ENDBRANCH   7   8
BRANCH   7  14
HETATM   14  O   UNL     1     -19.823  -7.352  -6.271  1.00  0.00    -0.390 OA
HETATM   15  H   UNL     1     -19.369  -6.511  -6.074  1.00  0.00     0.210 HD
ENDBRANCH   7  14
ENDBRANCH   6   7
BRANCH   1  16
HETATM   16  N   UNL     1     -21.004 -10.486  -4.898  1.00  0.00    -0.352 N 
HETATM   17  C   UNL     1     -20.764 -11.206  -6.049  1.00  0.00     0.214 C 
HETATM   18  C   UNL     1     -21.929 -12.046  -6.495  1.00  0.00     0.117 C 
HETATM   19  O   UNL     1     -19.697 -11.188  -6.650  1.00  0.00    -0.274 OA
HETATM   20  H   UNL     1     -21.830 -10.708  -4.356  1.00  0.00     0.163 HD
ENDBRANCH   1  16
BRANCH   2  21
HETATM   21  O   UNL     1     -18.283  -9.532  -2.551  1.00  0.00    -0.393 OA
HETATM   22  H   UNL     1     -18.209  -8.686  -3.039  1.00  0.00     0.210 HD
ENDBRANCH   2  21
BRANCH   4  23
HETATM   23  C   UNL     1     -22.350  -8.655  -0.847  1.00  0.00     0.205 C 
HETATM   24  O   UNL     1     -22.931  -9.650  -0.451  1.00  0.00    -0.646 OA
BRANCH  23  25
HETATM   25  O   UNL     1     -22.686  -7.399  -0.447  1.00  0.00    -0.772 OA
HETATM   26  H   UNL     1     -22.062  -6.757  -0.857  1.00  0.00     0.167 HD
ENDBRANCH  23  25
ENDBRANCH   4  23
BRANCH   4  27
HETATM   27  O   UNL     1     -20.112  -7.754  -1.368  1.00  0.00    -0.357 OA
HETATM   28  H   UNL     1     -20.493  -7.269  -0.613  1.00  0.00     0.213 HD
ENDBRANCH   4  27
TORSDOF 11
ENDMDL
MODEL 2
REMARK VINA RESULT:      -4.8      1.873      5.040
REMARK  11 active torsions:
REMARK  status: ('A' for Active; 'I' for Inactive)
REMARK       I    between atoms: C_2  and  N_4 
REMARK    1  A    between atoms: N_4  and  C_5 
REMARK    2  A    between atoms: C_6  and  O_21 
REMARK    3  A    between atoms: C_8  and  C_17 
REMARK    4  A    between atoms: C_8  and  O_20 
REMARK    5  A    between atoms: C_10  and  C_11 
REMARK    6  A    between atoms: C_11  and  C_12 
REMARK    7  A    between atoms: C_11  and  O_16 
REMARK    8  A    between atoms: C_12  and  C_13 
REMARK    9  A    between atoms: C_12  and  O_15 
REMARK   10  A    between atoms: C_13  and  O_14 
REMARK   11  A    between atoms: C_17  and  O_19 
ROOT
HETATM    1  C   UNL     1     -19.914  -9.257  -3.670  1.00  0.00     0.145 C 
HETATM    2  C   UNL     1     -20.051  -9.177  -5.206  1.00  0.00     0.149 C 
HETATM    3  C   UNL     1     -20.004  -7.729  -5.698  1.00  0.00     0.114 C 
HETATM    4  C   UNL     1     -20.968  -6.838  -4.907  1.00  0.00     0.253 C 
HETATM    5  O   UNL     1     -20.726  -6.968  -3.494  1.00  0.00    -0.336 OA
HETATM    6  C   UNL     1     -20.957  -8.313  -3.023  1.00  0.00     0.182 C 
ENDROOT
BRANCH   6   7
HETATM    7  C   UNL     1     -20.947  -8.387  -1.474  1.00  0.00     0.180 C 
BRANCH   7   8
HETATM    8  C   UNL     1     -22.283  -7.962  -0.820  1.00  0.00     0.173 C 
BRANCH   8   9
HETATM    9  C   UNL     1     -22.325  -8.354   0.669  1.00  0.00     0.198 C 
BRANCH   9  10
HETATM   10  O   UNL     1     -21.021  -8.251   1.242  1.00  0.00    -0.398 OA
HETATM   11  H   UNL     1     -20.975  -7.392   1.700  1.00  0.00     0.209 HD
ENDBRANCH   9  10
ENDBRANCH   8   9
BRANCH   8  12
HETATM   12  O   UNL     1     -22.507  -6.548  -0.924  1.00  0.00    -0.391 OA
HETATM   13  H   UNL     1     -21.662  -6.104  -0.728  1.00  0.00     0.210 HD
ENDBRANCH   8  12
ENDBRANCH   7   8
BRANCH   7  14
HETATM   14  O   UNL     1     -20.621  -9.714  -1.051  1.00  0.00    -0.390 OA
HETATM   15  H   UNL     1     -20.850 -10.343  -1.760  1.00  0.00     0.210 HD
ENDBRANCH   7  14
ENDBRANCH   6   7
BRANCH   1  16
HETATM   16  N   UNL     1     -18.549  -8.914  -3.250  1.00  0.00    -0.352 N 
HETATM   17  C   UNL     1     -17.569  -9.877  -3.142  1.00  0.00     0.214 C 
HETATM   18  C   UNL     1     -16.231  -9.339  -2.716  1.00  0.00     0.117 C 
HETATM   19  O   UNL     1     -17.752 -11.062  -3.388  1.00  0.00    -0.274 OA
HETATM   20  H   UNL     1     -18.271  -7.941  -3.226  1.00  0.00     0.163 HD
ENDBRANCH   1  16
BRANCH   2  21
HETATM   21  O   UNL     1     -21.270  -9.802  -5.623  1.00  0.00    -0.393 OA
HETATM   22  H   UNL     1     -22.010  -9.433  -5.098  1.00  0.00     0.210 HD
ENDBRANCH   2  21
BRANCH   4  23
HETATM   23  C   UNL     1     -20.702  -5.353  -5.313  1.00  0.00     0.205 C 
HETATM   24  O   UNL     1     -19.864  -4.623  -4.811  1.00  0.00    -0.646 OA
BRANCH  23  25
HETATM   25  O   UNL     1     -21.496  -4.960  -6.345  1.00  0.00    -0.772 OA
HETATM   26  H   UNL     1     -22.393  -4.753  -5.995  1.00  0.00     0.167 HD
ENDBRANCH  23  25
ENDBRANCH   4  23
BRANCH   4  27
HETATM   27  O   UNL     1     -22.306  -7.224  -5.187  1.00  0.00    -0.357 OA
HETATM   28  H   UNL     1     -22.624  -7.695  -4.395  1.00  0.00     0.213 HD
ENDBRANCH   4  27
TORSDOF 11
ENDMDL
MODEL 3
REMARK VINA RESULT:      -4.7      1.932      4.441
REMARK  11 active torsions:
REMARK  status: ('A' for Active; 'I' for Inactive)
REMARK       I    between atoms: C_2  and  N_4 
REMARK    1  A    between atoms: N_4  and  C_5 
REMARK    2  A    between atoms: C_6  and  O_21 
REMARK    3  A    between atoms: C_8  and  C_17 
REMARK    4  A    between atoms: C_8  and  O_20 
REMARK    5  A    between atoms: C_10  and  C_11 
REMARK    6  A    between atoms: C_11  and  C_12 
REMARK    7  A    between atoms: C_11  and  O_16 
REMARK    8  A    between atoms: C_12  and  C_13 
REMARK    9  A    between atoms: C_12  and  O_15 
REMARK   10  A    between atoms: C_13  and  O_14 
REMARK   11  A    between atoms: C_17  and  O_19 
ROOT
HETATM    1  C   UNL     1     -21.674  -8.893  -2.672  1.00  0.00     0.145 C 
HETATM    2  C   UNL     1     -21.441 -10.388  -2.981  1.00  0.00     0.149 C 
HETATM    3  C   UNL     1     -19.953 -10.701  -3.149  1.00  0.00     0.114 C 
HETATM    4  C   UNL     1     -19.281  -9.721  -4.117  1.00  0.00     0.253 C 
HETATM    5  O   UNL     1     -19.536  -8.362  -3.713  1.00  0.00    -0.336 OA
HETATM    6  C   UNL     1     -20.944  -8.041  -3.740  1.00  0.00     0.182 C 
ENDROOT
BRANCH   6   7
HETATM    7  C   UNL     1     -21.187  -6.521  -3.556  1.00  0.00     0.180 C 
BRANCH   7   8
HETATM    8  C   UNL     1     -21.316  -5.743  -4.888  1.00  0.00     0.173 C 
BRANCH   8   9
HETATM    9  C   UNL     1     -20.311  -6.258  -5.934  1.00  0.00     0.198 C 
BRANCH   9  10
HETATM   10  O   UNL     1     -20.967  -6.467  -7.185  1.00  0.00    -0.398 OA
HETATM   11  H   UNL     1     -21.869  -6.108  -7.101  1.00  0.00     0.209 HD
ENDBRANCH   9  10
ENDBRANCH   8   9
BRANCH   8  12
HETATM   12  O   UNL     1     -22.638  -5.841  -5.440  1.00  0.00    -0.391 OA
HETATM   13  H   UNL     1     -22.657  -6.629  -6.013  1.00  0.00     0.210 HD
ENDBRANCH   8  12
ENDBRANCH   7   8
BRANCH   7  14
HETATM   14  O   UNL     1     -22.365  -6.306  -2.774  1.00  0.00    -0.390 OA
HETATM   15  H   UNL     1     -22.109  -6.051  -1.868  1.00  0.00     0.210 HD
ENDBRANCH   7  14
ENDBRANCH   6   7
BRANCH   1  16
HETATM   16  N   UNL     1     -21.213  -8.562  -1.318  1.00  0.00    -0.352 N 
HETATM   17  C   UNL     1     -22.005  -8.796  -0.214  1.00  0.00     0.214 C 
HETATM   18  C   UNL     1     -21.361  -8.411   1.089  1.00  0.00     0.117 C 
HETATM   19  O   UNL     1     -23.123  -9.292  -0.274  1.00  0.00    -0.274 OA
HETATM   20  H   UNL     1     -20.236  -8.343  -1.170  1.00  0.00     0.163 HD
ENDBRANCH   1  16
BRANCH   2  21
HETATM   21  O   UNL     1     -22.163 -10.763  -4.160  1.00  0.00    -0.393 OA
HETATM   22  H   UNL     1     -22.505 -11.673  -4.045  1.00  0.00     0.210 HD
ENDBRANCH   2  21
BRANCH   4  23
HETATM   23  C   UNL     1     -17.739  -9.964  -4.064  1.00  0.00     0.205 C 
HETATM   24  O   UNL     1     -17.094 -10.591  -4.887  1.00  0.00    -0.646 OA
BRANCH  23  25
HETATM   25  O   UNL     1     -17.166  -9.350  -2.995  1.00  0.00    -0.772 OA
HETATM   26  H   UNL     1     -16.188  -9.454  -3.054  1.00  0.00     0.167 HD
ENDBRANCH  23  25
ENDBRANCH   4  23
BRANCH   4  27
HETATM   27  O   UNL     1     -19.797  -9.920  -5.425  1.00  0.00    -0.357 OA
HETATM   28  H   UNL     1     -19.302 -10.672  -5.800  1.00  0.00     0.213 HD
ENDBRANCH   4  27
TORSDOF 11
ENDMDL
MODEL 4
REMARK VINA RESULT:      -4.7      2.440      4.587
REMARK  11 active torsions:
REMARK  status: ('A' for Active; 'I' for Inactive)
REMARK       I    between atoms: C_2  and  N_4 
REMARK    1  A    between atoms: N_4  and  C_5 
REMARK    2  A    between atoms: C_6  and  O_21 
REMARK    3  A    between atoms: C_8  and  C_17 
REMARK    4  A    between atoms: C_8  and  O_20 
REMARK    5  A    between atoms: C_10  and  C_11 
REMARK    6  A    between atoms: C_11  and  C_12 
REMARK    7  A    between atoms: C_11  and  O_16 
REMARK    8  A    between atoms: C_12  and  C_13 
REMARK    9  A    between atoms: C_12  and  O_15 
REMARK   10  A    between atoms: C_13  and  O_14 
REMARK   11  A    between atoms: C_17  and  O_19 
ROOT
HETATM    1  C   UNL     1     -21.152 -10.278  -3.028  1.00  0.00     0.145 C 
HETATM    2  C   UNL     1     -22.480 -10.493  -2.268  1.00  0.00     0.149 C 
HETATM    3  C   UNL     1     -22.521  -9.682  -0.972  1.00  0.00     0.114 C 
HETATM    4  C   UNL     1     -21.251  -9.890  -0.141  1.00  0.00     0.253 C 
HETATM    5  O   UNL     1     -20.081  -9.629  -0.939  1.00  0.00    -0.336 OA
HETATM    6  C   UNL     1     -19.972 -10.535  -2.058  1.00  0.00     0.182 C 
ENDROOT
BRANCH   6   7
HETATM    7  C   UNL     1     -18.593 -10.419  -2.756  1.00  0.00     0.180 C 
BRANCH   7   8
HETATM    8  C   UNL     1     -17.493 -11.300  -2.117  1.00  0.00     0.173 C 
BRANCH   8   9
HETATM    9  C   UNL     1     -16.111 -10.631  -2.220  1.00  0.00     0.198 C 
BRANCH   9  10
HETATM   10  O   UNL     1     -16.229  -9.349  -2.836  1.00  0.00    -0.398 OA
HETATM   11  H   UNL     1     -16.004  -8.683  -2.161  1.00  0.00     0.209 HD
ENDBRANCH   9  10
ENDBRANCH   8   9
BRANCH   8  12
HETATM   12  O   UNL     1     -17.763 -11.576  -0.733  1.00  0.00    -0.391 OA
HETATM   13  H   UNL     1     -18.672 -11.278  -0.548  1.00  0.00     0.210 HD
ENDBRANCH   8  12
ENDBRANCH   7   8
BRANCH   7  14
HETATM   14  O   UNL     1     -18.716 -10.757  -4.140  1.00  0.00    -0.390 OA
HETATM   15  H   UNL     1     -17.827 -10.824  -4.536  1.00  0.00     0.210 HD
ENDBRANCH   7  14
ENDBRANCH   6   7
BRANCH   1  16
HETATM   16  N   UNL     1     -21.091  -8.926  -3.598  1.00  0.00    -0.352 N 
HETATM   17  C   UNL     1     -21.034  -8.725  -4.961  1.00  0.00     0.214 C 
HETATM   18  C   UNL     1     -20.994  -7.276  -5.361  1.00  0.00     0.117 C 
HETATM   19  O   UNL     1     -21.038  -9.634  -5.781  1.00  0.00    -0.274 OA
HETATM   20  H   UNL     1     -21.287  -8.131  -3.003  1.00  0.00     0.163 HD
ENDBRANCH   1  16
BRANCH   2  21
HETATM   21  O   UNL     1     -22.664 -11.885  -1.987  1.00  0.00    -0.393 OA
HETATM   22  H   UNL     1     -23.095 -12.309  -2.758  1.00  0.00     0.210 HD
ENDBRANCH   2  21
BRANCH   4  23
HETATM   23  C   UNL     1     -21.271  -8.870   1.043  1.00  0.00     0.205 C 
HETATM   24  O   UNL     1     -21.952  -7.860   1.093  1.00  0.00    -0.646 OA
BRANCH  23  25
HETATM   25  O   UNL     1     -20.458  -9.260   2.061  1.00  0.00    -0.772 OA
HETATM   26  H   UNL     1     -19.550  -9.404   1.705  1.00  0.00     0.167 HD
ENDBRANCH  23  25
ENDBRANCH   4  23
BRANCH   4  27
HETATM   27  O   UNL     1     -21.206 -11.230   0.326  1.00  0.00    -0.357 OA
HETATM   28  H   UNL     1     -21.567 -11.781  -0.393  1.00  0.00     0.213 HD
ENDBRANCH   4  27
TORSDOF 11
ENDMDL
MODEL 5
REMARK VINA RESULT:      -4.6      3.077      4.329
REMARK  11 active torsions:
REMARK  status: ('A' for Active; 'I' for Inactive)
REMARK       I    between atoms: C_2  and  N_4 
REMARK    1  A    between atoms: N_4  and  C_5 
REMARK    2  A    between atoms: C_6  and  O_21 
REMARK    3  A    between atoms: C_8  and  C_17 
REMARK    4  A    between atoms: C_8  and  O_20 
REMARK    5  A    between atoms: C_10  and  C_11 
REMARK    6  A    between atoms: C_11  and  C_12 
REMARK    7  A    between atoms: C_11  and  O_16 
REMARK    8  A    between atoms: C_12  and  C_13 
REMARK    9  A    between atoms: C_12  and  O_15 
REMARK   10  A    between atoms: C_13  and  O_14 
REMARK   11  A    between atoms: C_17  and  O_19 
ROOT
HETATM    1  C   UNL     1     -20.998 -11.282  -1.516  1.00  0.00     0.145 C 
HETATM    2  C   UNL     1     -21.989 -11.370  -0.334  1.00  0.00     0.149 C 
HETATM    3  C   UNL     1     -22.793 -10.078  -0.180  1.00  0.00     0.114 C 
HETATM    4  C   UNL     1     -21.880  -8.848  -0.177  1.00  0.00     0.253 C 
HETATM    5  O   UNL     1     -21.028  -8.853  -1.338  1.00  0.00    -0.336 OA
HETATM    6  C   UNL     1     -20.147  -9.996  -1.362  1.00  0.00     0.182 C 
ENDROOT
BRANCH   6   7
HETATM    7  C   UNL     1     -19.067  -9.863  -2.466  1.00  0.00     0.180 C 
BRANCH   7   8
HETATM    8  C   UNL     1     -18.195 -11.129  -2.642  1.00  0.00     0.173 C 
BRANCH   8   9
HETATM    9  C   UNL     1     -17.707 -11.274  -4.095  1.00  0.00     0.198 C 
BRANCH   9  10
HETATM   10  O   UNL     1     -18.583 -12.134  -4.825  1.00  0.00    -0.398 OA
HETATM   11  H   UNL     1     -19.477 -11.750  -4.767  1.00  0.00     0.209 HD
ENDBRANCH   9  10
ENDBRANCH   8   9
BRANCH   8  12
HETATM   12  O   UNL     1     -17.049 -11.117  -1.777  1.00  0.00    -0.391 OA
HETATM   13  H   UNL     1     -16.313 -11.532  -2.263  1.00  0.00     0.210 HD
ENDBRANCH   8  12
ENDBRANCH   7   8
BRANCH   7  14
HETATM   14  O   UNL     1     -19.683  -9.544  -3.717  1.00  0.00    -0.390 OA
HETATM   15  H   UNL     1     -20.653  -9.574  -3.615  1.00  0.00     0.210 HD
ENDBRANCH   7  14
ENDBRANCH   6   7
BRANCH   1  16
HETATM   16  N   UNL     1     -21.714 -11.299  -2.798  1.00  0.00    -0.352 N 
HETATM   17  C   UNL     1     -21.639 -12.384  -3.646  1.00  0.00     0.214 C 
HETATM   18  C   UNL     1     -22.450 -12.231  -4.903  1.00  0.00     0.117 C 
HETATM   19  O   UNL     1     -20.994 -13.395  -3.399  1.00  0.00    -0.274 OA
HETATM   20  H   UNL     1     -22.421 -10.597  -2.977  1.00  0.00     0.163 HD
ENDBRANCH   1  16
BRANCH   2  21
HETATM   21  O   UNL     1     -21.282 -11.662   0.877  1.00  0.00    -0.393 OA
HETATM   22  H   UNL     1     -21.442 -10.940   1.518  1.00  0.00     0.210 HD
ENDBRANCH   2  21
BRANCH   4  23
HETATM   23  C   UNL     1     -22.782  -7.573  -0.239  1.00  0.00     0.205 C 
HETATM   24  O   UNL     1     -22.633  -6.640  -1.010  1.00  0.00    -0.646 OA
BRANCH  23  25
HETATM   25  O   UNL     1     -23.805  -7.633   0.654  1.00  0.00    -0.772 OA
HETATM   26  H   UNL     1     -23.645  -6.972   1.366  1.00  0.00     0.167 HD
ENDBRANCH  23  25
ENDBRANCH   4  23
BRANCH   4  27
HETATM   27  O   UNL     1     -21.073  -8.860   0.991  1.00  0.00    -0.357 OA
HETATM   28  H   UNL     1     -21.350  -9.641   1.505  1.00  0.00     0.213 HD
ENDBRANCH   4  27
TORSDOF 11
ENDMDL
MODEL 6
REMARK VINA RESULT:      -4.6      2.019      5.107
REMARK  11 active torsions:
REMARK  status: ('A' for Active; 'I' for Inactive)
REMARK       I    between atoms: C_2  and  N_4 
REMARK    1  A    between atoms: N_4  and  C_5 
REMARK    2  A    between atoms: C_6  and  O_21 
REMARK    3  A    between atoms: C_8  and  C_17 
REMARK    4  A    between atoms: C_8  and  O_20 
REMARK    5  A    between atoms: C_10  and  C_11 
REMARK    6  A    between atoms: C_11  and  C_12 
REMARK    7  A    between atoms: C_11  and  O_16 
REMARK    8  A    between atoms: C_12  and  C_13 
REMARK    9  A    between atoms: C_12  and  O_15 
REMARK   10  A    between atoms: C_13  and  O_14 
REMARK   11  A    between atoms: C_17  and  O_19 
ROOT
HETATM    1  C   UNL     1     -20.949 -10.201  -2.425  1.00  0.00     0.145 C 
HETATM    2  C   UNL     1     -20.221  -8.884  -2.075  1.00  0.00     0.149 C 
HETATM    3  C   UNL     1     -20.822  -7.695  -2.826  1.00  0.00     0.114 C 
HETATM    4  C   UNL     1     -20.957  -7.990  -4.324  1.00  0.00     0.253 C 
HETATM    5  O   UNL     1     -21.679  -9.218  -4.531  1.00  0.00    -0.336 OA
HETATM    6  C   UNL     1     -20.992 -10.356  -3.966  1.00  0.00     0.182 C 
ENDROOT
BRANCH   6   7
HETATM    7  C   UNL     1     -21.638 -11.693  -4.411  1.00  0.00     0.180 C 
BRANCH   7   8
HETATM    8  C   UNL     1     -21.091 -12.234  -5.753  1.00  0.00     0.173 C 
BRANCH   8   9
HETATM    9  C   UNL     1     -21.982 -13.363  -6.305  1.00  0.00     0.198 C 
BRANCH   9  10
HETATM   10  O   UNL     1     -23.305 -13.245  -5.784  1.00  0.00    -0.398 OA
HETATM   11  H   UNL     1     -23.413 -12.326  -5.478  1.00  0.00     0.209 HD
ENDBRANCH   9  10
ENDBRANCH   8   9
BRANCH   8  12
HETATM   12  O   UNL     1     -20.995 -11.203  -6.749  1.00  0.00    -0.391 OA
HETATM   13  H   UNL     1     -20.733 -10.382  -6.294  1.00  0.00     0.210 HD
ENDBRANCH   8  12
ENDBRANCH   7   8
BRANCH   7  14
HETATM   14  O   UNL     1     -21.453 -12.686  -3.398  1.00  0.00    -0.390 OA
HETATM   15  H   UNL     1     -20.823 -12.353  -2.732  1.00  0.00     0.210 HD
ENDBRANCH   7  14
ENDBRANCH   6   7
BRANCH   1  16
HETATM   16  N   UNL     1     -22.299 -10.220  -1.848  1.00  0.00    -0.352 N 
HETATM   17  C   UNL     1     -22.553 -10.831  -0.638  1.00  0.00     0.214 C 
HETATM   18  C   UNL     1     -23.987 -10.735  -0.197  1.00  0.00     0.117 C 
HETATM   19  O   UNL     1     -21.693 -11.385   0.035  1.00  0.00    -0.274 OA
HETATM   20  H   UNL     1     -23.011  -9.616  -2.239  1.00  0.00     0.163 HD
ENDBRANCH   1  16
BRANCH   2  21
HETATM   21  O   UNL     1     -18.825  -9.003  -2.370  1.00  0.00    -0.393 OA
HETATM   22  H   UNL     1     -18.427  -8.109  -2.385  1.00  0.00     0.210 HD
ENDBRANCH   2  21
BRANCH   4  23
HETATM   23  C   UNL     1     -21.772  -6.828  -4.977  1.00  0.00     0.205 C 
HETATM   24  O   UNL     1     -22.675  -6.210  -4.439  1.00  0.00    -0.646 OA
BRANCH  23  25
HETATM   25  O   UNL     1     -21.330  -6.542  -6.231  1.00  0.00    -0.772 OA
HETATM   26  H   UNL     1     -20.827  -5.695  -6.204  1.00  0.00     0.167 HD
ENDBRANCH  23  25
ENDBRANCH   4  23
BRANCH   4  27
HETATM   27  O   UNL     1     -19.664  -8.109  -4.901  1.00  0.00    -0.357 OA
HETATM   28  H   UNL     1     -19.796  -8.506  -5.782  1.00  0.00     0.213 HD
ENDBRANCH   4  27
TORSDOF 11
ENDMDL
MODEL 7
REMARK VINA RESULT:      -4.6      3.292      5.304
REMARK  11 active torsions:
REMARK  status: ('A' for Active; 'I' for Inactive)
REMARK       I    between atoms: C_2  and  N_4 
REMARK    1  A    between atoms: N_4  and  C_5 
REMARK    2  A    between atoms: C_6  and  O_21 
REMARK    3  A    between atoms: C_8  and  C_17 
REMARK    4  A    between atoms: C_8  and  O_20 
REMARK    5  A    between atoms: C_10  and  C_11 
REMARK    6  A    between atoms: C_11  and  C_12 
REMARK    7  A    between atoms: C_11  and  O_16 
REMARK    8  A    between atoms: C_12  and  C_13 
REMARK    9  A    between atoms: C_12  and  O_15 
REMARK   10  A    between atoms: C_13  and  O_14 
REMARK   11  A    between atoms: C_17  and  O_19 
ROOT
HETATM    1  C   UNL     1     -21.395 -11.906  -0.264  1.00  0.00     0.145 C 
HETATM    2  C   UNL     1     -20.508 -10.923   0.530  1.00  0.00     0.149 C 
HETATM    3  C   UNL     1     -21.212  -9.582   0.746  1.00  0.00     0.114 C 
HETATM    4  C   UNL     1     -21.785  -9.033  -0.565  1.00  0.00     0.253 C 
HETATM    5  O   UNL     1     -22.620 -10.020  -1.200  1.00  0.00    -0.336 OA
HETATM    6  C   UNL     1     -21.883 -11.208  -1.558  1.00  0.00     0.182 C 
ENDROOT
BRANCH   6   7
HETATM    7  C   UNL     1     -22.720 -12.150  -2.462  1.00  0.00     0.180 C 
BRANCH   7   8
HETATM    8  C   UNL     1     -22.706 -11.754  -3.958  1.00  0.00     0.173 C 
BRANCH   8   9
HETATM    9  C   UNL     1     -21.489 -10.871  -4.290  1.00  0.00     0.198 C 
BRANCH   9  10
HETATM   10  O   UNL     1     -21.841  -9.491  -4.193  1.00  0.00    -0.398 OA
HETATM   11  H   UNL     1     -22.245  -9.359  -3.316  1.00  0.00     0.209 HD
ENDBRANCH   9  10
ENDBRANCH   8   9
BRANCH   8  12
HETATM   12  O   UNL     1     -22.681 -12.904  -4.818  1.00  0.00    -0.391 OA
HETATM   13  H   UNL     1     -23.317 -12.743  -5.538  1.00  0.00     0.210 HD
ENDBRANCH   8  12
ENDBRANCH   7   8
BRANCH   7  14
HETATM   14  O   UNL     1     -22.253 -13.495  -2.331  1.00  0.00    -0.390 OA
HETATM   15  H   UNL     1     -23.018 -14.098  -2.275  1.00  0.00     0.210 HD
ENDBRANCH   7  14
ENDBRANCH   6   7
BRANCH   1  16
HETATM   16  N   UNL     1     -22.525 -12.366   0.553  1.00  0.00    -0.352 N 
HETATM   17  C   UNL     1     -22.430 -13.498   1.335  1.00  0.00     0.214 C 
HETATM   18  C   UNL     1     -23.678 -13.805   2.115  1.00  0.00     0.117 C 
HETATM   19  O   UNL     1     -21.420 -14.186   1.413  1.00  0.00    -0.274 OA
HETATM   20  H   UNL     1     -23.312 -11.747   0.698  1.00  0.00     0.163 HD
ENDBRANCH   1  16
BRANCH   2  21
HETATM   21  O   UNL     1     -19.264 -10.725  -0.151  1.00  0.00    -0.393 OA
HETATM   22  H   UNL     1     -19.444 -10.579  -1.102  1.00  0.00     0.210 HD
ENDBRANCH   2  21
BRANCH   4  23
HETATM   23  C   UNL     1     -22.668  -7.790  -0.228  1.00  0.00     0.205 C 
HETATM   24  O   UNL     1     -22.597  -6.703  -0.776  1.00  0.00    -0.646 OA
BRANCH  23  25
HETATM   25  O   UNL     1     -23.582  -8.066   0.741  1.00  0.00    -0.772 OA
HETATM   26  H   UNL     1     -23.495  -9.013   0.999  1.00  0.00     0.167 HD
ENDBRANCH  23  25
ENDBRANCH   4  23
BRANCH   4  27
HETATM   27  O   UNL     1     -20.719  -8.694  -1.441  1.00  0.00    -0.357 OA
HETATM   28  H   UNL     1     -20.261  -7.937  -1.031  1.00  0.00     0.213 HD
ENDBRANCH   4  27
TORSDOF 11
ENDMDL
MODEL 8
REMARK VINA RESULT:      -4.5      2.094      4.404
REMARK  11 active torsions:
REMARK  status: ('A' for Active; 'I' for Inactive)
REMARK       I    between atoms: C_2  and  N_4 
REMARK    1  A    between atoms: N_4  and  C_5 
REMARK    2  A    between atoms: C_6  and  O_21 
REMARK    3  A    between atoms: C_8  and  C_17 
REMARK    4  A    between atoms: C_8  and  O_20 
REMARK    5  A    between atoms: C_10  and  C_11 
REMARK    6  A    between atoms: C_11  and  C_12 
REMARK    7  A    between atoms: C_11  and  O_16 
REMARK    8  A    between atoms: C_12  and  C_13 
REMARK    9  A    between atoms: C_12  and  O_15 
REMARK   10  A    between atoms: C_13  and  O_14 
REMARK   11  A    between atoms: C_17  and  O_19 
ROOT
HETATM    1  C   UNL     1     -21.555 -10.396  -2.340  1.00  0.00     0.145 C 
HETATM    2  C   UNL     1     -20.869 -11.650  -1.754  1.00  0.00     0.149 C 
HETATM    3  C   UNL     1     -19.382 -11.403  -1.490  1.00  0.00     0.114 C 
HETATM    4  C   UNL     1     -18.691 -10.791  -2.712  1.00  0.00     0.253 C 
HETATM    5  O   UNL     1     -19.395  -9.613  -3.149  1.00  0.00    -0.336 OA
HETATM    6  C   UNL     1     -20.745  -9.909  -3.568  1.00  0.00     0.182 C 
ENDROOT
BRANCH   6   7
HETATM    7  C   UNL     1     -21.405  -8.695  -4.272  1.00  0.00     0.180 C 
BRANCH   7   8
HETATM    8  C   UNL     1     -20.730  -7.342  -3.945  1.00  0.00     0.173 C 
BRANCH   8   9
HETATM    9  C   UNL     1     -21.245  -6.223  -4.869  1.00  0.00     0.198 C 
BRANCH   9  10
HETATM   10  O   UNL     1     -22.673  -6.225  -4.896  1.00  0.00    -0.398 OA
HETATM   11  H   UNL     1     -22.954  -7.112  -5.186  1.00  0.00     0.209 HD
ENDBRANCH   9  10
ENDBRANCH   8   9
BRANCH   8  12
HETATM   12  O   UNL     1     -20.954  -6.945  -2.583  1.00  0.00    -0.391 OA
HETATM   13  H   UNL     1     -21.306  -7.719  -2.108  1.00  0.00     0.210 HD
ENDBRANCH   8  12
ENDBRANCH   7   8
BRANCH   7  14
HETATM   14  O   UNL     1     -21.397  -8.890  -5.688  1.00  0.00    -0.390 OA
HETATM   15  H   UNL     1     -21.472  -9.843  -5.883  1.00  0.00     0.210 HD
ENDBRANCH   7  14
ENDBRANCH   6   7
BRANCH   1  16
HETATM   16  N   UNL     1     -21.671  -9.342  -1.324  1.00  0.00    -0.352 N 
HETATM   17  C   UNL     1     -22.726  -9.316  -0.437  1.00  0.00     0.214 C 
HETATM   18  C   UNL     1     -22.670  -8.175   0.541  1.00  0.00     0.117 C 
HETATM   19  O   UNL     1     -23.621 -10.151  -0.422  1.00  0.00    -0.274 OA
HETATM   20  H   UNL     1     -20.876  -8.743  -1.143  1.00  0.00     0.163 HD
ENDBRANCH   1  16
BRANCH   2  21
HETATM   21  O   UNL     1     -21.037 -12.761  -2.642  1.00  0.00    -0.393 OA
HETATM   22  H   UNL     1     -20.683 -13.566  -2.212  1.00  0.00     0.210 HD
ENDBRANCH   2  21
BRANCH   4  23
HETATM   23  C   UNL     1     -17.246 -10.368  -2.294  1.00  0.00     0.205 C 
HETATM   24  O   UNL     1     -16.486 -11.034  -1.611  1.00  0.00    -0.646 OA
BRANCH  23  25
HETATM   25  O   UNL     1     -16.898  -9.164  -2.820  1.00  0.00    -0.772 OA
HETATM   26  H   UNL     1     -16.253  -8.728  -2.217  1.00  0.00     0.167 HD
ENDBRANCH  23  25
ENDBRANCH   4  23
BRANCH   4  27
HETATM   27  O   UNL     1     -18.672 -11.739  -3.769  1.00  0.00    -0.357 OA
HETATM   28  H   UNL     1     -18.662 -11.223  -4.597  1.00  0.00     0.213 HD
ENDBRANCH   4  27
TORSDOF 11
ENDMDL
MODEL 9
REMARK VINA RESULT:      -4.4     16.037     17.873
REMARK  11 active torsions:
REMARK  status: ('A' for Active; 'I' for Inactive)
REMARK       I    between atoms: C_2  and  N_4 
REMARK    1  A    between atoms: N_4  and  C_5 
REMARK    2  A    between atoms: C_6  and  O_21 
REMARK    3  A    between atoms: C_8  and  C_17 
REMARK    4  A    between atoms: C_8  and  O_20 
REMARK    5  A    between atoms: C_10  and  C_11 
REMARK    6  A    between atoms: C_11  and  C_12 
REMARK    7  A    between atoms: C_11  and  O_16 
REMARK    8  A    between atoms: C_12  and  C_13 
REMARK    9  A    between atoms: C_12  and  O_15 
REMARK   10  A    between atoms: C_13  and  O_14 
REMARK   11  A    between atoms: C_17  and  O_19 
ROOT
HETATM    1  C   UNL     1     -24.408   7.960  -3.493  1.00  0.00     0.145 C 
HETATM    2  C   UNL     1     -25.131   7.009  -2.514  1.00  0.00     0.149 C 
HETATM    3  C   UNL     1     -24.981   7.476  -1.065  1.00  0.00     0.114 C 
HETATM    4  C   UNL     1     -23.518   7.777  -0.724  1.00  0.00     0.253 C 
HETATM    5  O   UNL     1     -22.958   8.697  -1.680  1.00  0.00    -0.336 OA
HETATM    6  C   UNL     1     -22.946   8.153  -3.017  1.00  0.00     0.182 C 
ENDROOT
BRANCH   6   7
HETATM    7  C   UNL     1     -22.117   9.035  -3.986  1.00  0.00     0.180 C 
BRANCH   7   8
HETATM    8  C   UNL     1     -21.757  10.426  -3.411  1.00  0.00     0.173 C 
BRANCH   8   9
HETATM    9  C   UNL     1     -20.926  11.246  -4.414  1.00  0.00     0.198 C 
BRANCH   9  10
HETATM   10  O   UNL     1     -19.568  10.806  -4.404  1.00  0.00    -0.398 OA
HETATM   11  H   UNL     1     -19.171  11.116  -3.569  1.00  0.00     0.209 HD
ENDBRANCH   9  10
ENDBRANCH   8   9
BRANCH   8  12
HETATM   12  O   UNL     1     -22.927  11.183  -3.064  1.00  0.00    -0.391 OA
HETATM   13  H   UNL     1     -23.286  10.803  -2.242  1.00  0.00     0.210 HD
ENDBRANCH   8  12
ENDBRANCH   7   8
BRANCH   7  14
HETATM   14  O   UNL     1     -20.913   8.356  -4.354  1.00  0.00    -0.390 OA
HETATM   15  H   UNL     1     -20.201   9.011  -4.482  1.00  0.00     0.210 HD
ENDBRANCH   7  14
ENDBRANCH   6   7
BRANCH   1  16
HETATM   16  N   UNL     1     -25.113   9.245  -3.589  1.00  0.00    -0.352 N 
HETATM   17  C   UNL     1     -25.641   9.684  -4.784  1.00  0.00     0.214 C 
HETATM   18  C   UNL     1     -26.343  11.011  -4.687  1.00  0.00     0.117 C 
HETATM   19  O   UNL     1     -25.573   9.051  -5.830  1.00  0.00    -0.274 OA
HETATM   20  H   UNL     1     -25.385   9.722  -2.739  1.00  0.00     0.163 HD
ENDBRANCH   1  16
BRANCH   2  21
HETATM   21  O   UNL     1     -24.625   5.677  -2.661  1.00  0.00    -0.393 OA
HETATM   22  H   UNL     1     -24.307   5.559  -3.580  1.00  0.00     0.210 HD
ENDBRANCH   2  21
BRANCH   4  23
HETATM   23  C   UNL     1     -23.476   8.452   0.685  1.00  0.00     0.205 C 
HETATM   24  O   UNL     1     -22.464   8.746   1.298  1.00  0.00    -0.646 OA
BRANCH  23  25
HETATM   25  O   UNL     1     -24.724   8.724   1.153  1.00  0.00    -0.772 OA
HETATM   26  H   UNL     1     -25.366   8.642   0.411  1.00  0.00     0.167 HD
ENDBRANCH  23  25
ENDBRANCH   4  23
BRANCH   4  27
HETATM   27  O   UNL     1     -22.768   6.571  -0.747  1.00  0.00    -0.357 OA
HETATM   28  H   UNL     1     -22.923   6.172  -1.623  1.00  0.00     0.213 HD
ENDBRANCH   4  27
TORSDOF 11
ENDMDL
