MODEL 1
REMARK VINA RESULT:      -3.9      0.000      0.000
REMARK  4 active torsions:
REMARK  status: ('A' for Active; 'I' for Inactive)
REMARK    1  A    between atoms: C_2  and  C_3 
REMARK    2  A    between atoms: C_2  and  C_5 
REMARK    3  A    between atoms: C_3  and  O_4 
REMARK    4  A    between atoms: C_5  and  O_6 
ROOT
HETATM    1  C   UNL     1     -21.770  -2.981 -11.679  1.00  0.00     0.014 C 
HETATM    2  C   UNL     1     -22.980  -3.467 -12.479  1.00  0.00     0.029 C 
ENDROOT
BRANCH   2   3
HETATM    3  C   UNL     1     -24.287  -3.220 -11.715  1.00  0.00     0.170 C 
BRANCH   3   4
HETATM    4  O   UNL     1     -25.339  -2.893 -12.616  1.00  0.00    -0.400 OA
HETATM    5  H   UNL     1     -24.993  -2.998 -13.519  1.00  0.00     0.209 HD
ENDBRANCH   3   4
ENDBRANCH   2   3
BRANCH   2   6
HETATM    6  C   UNL     1     -23.011  -2.787 -13.850  1.00  0.00     0.170 C 
BRANCH   6   7
HETATM    7  O   UNL     1     -23.639  -3.622 -14.814  1.00  0.00    -0.400 OA
HETATM    8  H   UNL     1     -23.583  -4.538 -14.496  1.00  0.00     0.209 HD
ENDBRANCH   6   7
ENDBRANCH   2   6
TORSDOF 4
ENDMDL
MODEL 2
REMARK VINA RESULT:      -3.9      1.753      2.344
REMARK  4 active torsions:
REMARK  status: ('A' for Active; 'I' for Inactive)
REMARK    1  A    between atoms: C_2  and  C_3 
REMARK    2  A    between atoms: C_2  and  C_5 
REMARK    3  A    between atoms: C_3  and  O_4 
REMARK    4  A    between atoms: C_5  and  O_6 
ROOT
HETATM    1  C   UNL     1     -22.538  -4.476 -10.719  1.00  0.00     0.014 C 
HETATM    2  C   UNL     1     -23.975  -3.994 -10.932  1.00  0.00     0.029 C 
ENDROOT
BRANCH   2   3
HETATM    3  C   UNL     1     -24.543  -3.365  -9.654  1.00  0.00     0.170 C 
BRANCH   3   4
HETATM    4  O   UNL     1     -25.960  -3.253  -9.741  1.00  0.00    -0.400 OA
HETATM    5  H   UNL     1     -26.160  -2.512 -10.337  1.00  0.00     0.209 HD
ENDBRANCH   3   4
ENDBRANCH   2   3
BRANCH   2   6
HETATM    6  C   UNL     1     -24.030  -3.007 -12.100  1.00  0.00     0.170 C 
BRANCH   6   7
HETATM    7  O   UNL     1     -25.353  -2.905 -12.613  1.00  0.00    -0.400 OA
HETATM    8  H   UNL     1     -25.378  -3.373 -13.464  1.00  0.00     0.209 HD
ENDBRANCH   6   7
ENDBRANCH   2   6
TORSDOF 4
ENDMDL
MODEL 3
REMARK VINA RESULT:      -3.9     15.558     15.969
REMARK  4 active torsions:
REMARK  status: ('A' for Active; 'I' for Inactive)
REMARK    1  A    between atoms: C_2  and  C_3 
REMARK    2  A    between atoms: C_2  and  C_5 
REMARK    3  A    between atoms: C_3  and  O_4 
REMARK    4  A    between atoms: C_5  and  O_6 
ROOT
HETATM    1  C   UNL     1     -29.426 -16.633 -21.337  1.00  0.00     0.014 C 
HETATM    2  C   UNL     1     -30.427 -15.681 -20.680  1.00  0.00     0.029 C 
ENDROOT
BRANCH   2   3
HETATM    3  C   UNL     1     -29.718 -14.471 -20.059  1.00  0.00     0.170 C 
BRANCH   3   4
HETATM    4  O   UNL     1     -30.619 -13.726 -19.247  1.00  0.00    -0.400 OA
HETATM    5  H   UNL     1     -30.680 -14.178 -18.388  1.00  0.00     0.209 HD
ENDBRANCH   3   4
ENDBRANCH   2   3
BRANCH   2   6
HETATM    6  C   UNL     1     -31.477 -15.237 -21.701  1.00  0.00     0.170 C 
BRANCH   6   7
HETATM    7  O   UNL     1     -31.239 -13.899 -22.121  1.00  0.00    -0.400 OA
HETATM    8  H   UNL     1     -31.711 -13.763 -22.959  1.00  0.00     0.209 HD
ENDBRANCH   6   7
ENDBRANCH   2   6
TORSDOF 4
ENDMDL
MODEL 4
REMARK VINA RESULT:      -3.8     10.225     10.577
REMARK  4 active torsions:
REMARK  status: ('A' for Active; 'I' for Inactive)
REMARK    1  A    between atoms: C_2  and  C_3 
REMARK    2  A    between atoms: C_2  and  C_5 
REMARK    3  A    between atoms: C_3  and  O_4 
REMARK    4  A    between atoms: C_5  and  O_6 
ROOT
HETATM    1  C   UNL     1     -33.561  -2.622 -10.736  1.00  0.00     0.014 C 
HETATM    2  C   UNL     1     -33.364  -3.900 -11.554  1.00  0.00     0.029 C 
ENDROOT
BRANCH   2   3
HETATM    3  C   UNL     1     -33.884  -5.128 -10.797  1.00  0.00     0.170 C 
BRANCH   3   4
HETATM    4  O   UNL     1     -33.192  -6.301 -11.214  1.00  0.00    -0.400 OA
HETATM    5  H   UNL     1     -33.745  -7.065 -10.980  1.00  0.00     0.209 HD
ENDBRANCH   3   4
ENDBRANCH   2   3
BRANCH   2   6
HETATM    6  C   UNL     1     -34.050  -3.764 -12.915  1.00  0.00     0.170 C 
BRANCH   6   7
HETATM    7  O   UNL     1     -34.715  -4.970 -13.269  1.00  0.00    -0.400 OA
HETATM    8  H   UNL     1     -34.090  -5.702 -13.140  1.00  0.00     0.209 HD
ENDBRANCH   6   7
ENDBRANCH   2   6
TORSDOF 4
ENDMDL
MODEL 5
REMARK VINA RESULT:      -3.8     15.452     15.946
REMARK  4 active torsions:
REMARK  status: ('A' for Active; 'I' for Inactive)
REMARK    1  A    between atoms: C_2  and  C_3 
REMARK    2  A    between atoms: C_2  and  C_5 
REMARK    3  A    between atoms: C_3  and  O_4 
REMARK    4  A    between atoms: C_5  and  O_6 
ROOT
HETATM    1  C   UNL     1     -29.410 -16.217 -21.441  1.00  0.00     0.014 C 
HETATM    2  C   UNL     1     -30.196 -14.947 -21.107  1.00  0.00     0.029 C 
ENDROOT
BRANCH   2   3
HETATM    3  C   UNL     1     -31.557 -14.936 -21.813  1.00  0.00     0.170 C 
BRANCH   3   4
HETATM    4  O   UNL     1     -31.768 -13.690 -22.470  1.00  0.00    -0.400 OA
HETATM    5  H   UNL     1     -32.231 -13.875 -23.305  1.00  0.00     0.209 HD
ENDBRANCH   3   4
ENDBRANCH   2   3
BRANCH   2   6
HETATM    6  C   UNL     1     -30.364 -14.817 -19.591  1.00  0.00     0.170 C 
BRANCH   6   7
HETATM    7  O   UNL     1     -30.268 -13.457 -19.187  1.00  0.00    -0.400 OA
HETATM    8  H   UNL     1     -30.585 -12.906 -19.922  1.00  0.00     0.209 HD
ENDBRANCH   6   7
ENDBRANCH   2   6
TORSDOF 4
ENDMDL
MODEL 6
REMARK VINA RESULT:      -3.8      3.066      3.907
REMARK  4 active torsions:
REMARK  status: ('A' for Active; 'I' for Inactive)
REMARK    1  A    between atoms: C_2  and  C_3 
REMARK    2  A    between atoms: C_2  and  C_5 
REMARK    3  A    between atoms: C_3  and  O_4 
REMARK    4  A    between atoms: C_5  and  O_6 
ROOT
HETATM    1  C   UNL     1     -22.324  -4.466 -11.128  1.00  0.00     0.014 C 
HETATM    2  C   UNL     1     -23.445  -4.324 -10.096  1.00  0.00     0.029 C 
ENDROOT
BRANCH   2   3
HETATM    3  C   UNL     1     -22.892  -3.885  -8.734  1.00  0.00     0.170 C 
BRANCH   3   4
HETATM    4  O   UNL     1     -23.834  -4.159  -7.702  1.00  0.00    -0.400 OA
HETATM    5  H   UNL     1     -24.688  -3.784  -7.978  1.00  0.00     0.209 HD
ENDBRANCH   3   4
ENDBRANCH   2   3
BRANCH   2   6
HETATM    6  C   UNL     1     -24.502  -3.340 -10.601  1.00  0.00     0.170 C 
BRANCH   6   7
HETATM    7  O   UNL     1     -25.637  -3.333  -9.744  1.00  0.00    -0.400 OA
HETATM    8  H   UNL     1     -25.730  -2.436  -9.382  1.00  0.00     0.209 HD
ENDBRANCH   6   7
ENDBRANCH   2   6
TORSDOF 4
ENDMDL
MODEL 7
REMARK VINA RESULT:      -3.8      1.283      2.471
REMARK  4 active torsions:
REMARK  status: ('A' for Active; 'I' for Inactive)
REMARK    1  A    between atoms: C_2  and  C_3 
REMARK    2  A    between atoms: C_2  and  C_5 
REMARK    3  A    between atoms: C_3  and  O_4 
REMARK    4  A    between atoms: C_5  and  O_6 
ROOT
HETATM    1  C   UNL     1     -21.544  -3.284 -11.479  1.00  0.00     0.014 C 
HETATM    2  C   UNL     1     -23.004  -2.874 -11.680  1.00  0.00     0.029 C 
ENDROOT
BRANCH   2   3
HETATM    3  C   UNL     1     -23.425  -3.021 -13.147  1.00  0.00     0.170 C 
BRANCH   3   4
HETATM    4  O   UNL     1     -24.481  -2.117 -13.457  1.00  0.00    -0.400 OA
HETATM    5  H   UNL     1     -24.900  -1.858 -12.618  1.00  0.00     0.209 HD
ENDBRANCH   3   4
ENDBRANCH   2   3
BRANCH   2   6
HETATM    6  C   UNL     1     -23.912  -3.699 -10.764  1.00  0.00     0.170 C 
BRANCH   6   7
HETATM    7  O   UNL     1     -25.224  -3.153 -10.729  1.00  0.00    -0.400 OA
HETATM    8  H   UNL     1     -25.526  -3.166  -9.805  1.00  0.00     0.209 HD
ENDBRANCH   6   7
ENDBRANCH   2   6
TORSDOF 4
ENDMDL
MODEL 8
REMARK VINA RESULT:      -3.7      1.476      2.396
REMARK  4 active torsions:
REMARK  status: ('A' for Active; 'I' for Inactive)
REMARK    1  A    between atoms: C_2  and  C_3 
REMARK    2  A    between atoms: C_2  and  C_5 
REMARK    3  A    between atoms: C_3  and  O_4 
REMARK    4  A    between atoms: C_5  and  O_6 
ROOT
HETATM    1  C   UNL     1     -23.946  -4.009 -10.461  1.00  0.00     0.014 C 
HETATM    2  C   UNL     1     -23.563  -2.974 -11.521  1.00  0.00     0.029 C 
ENDROOT
BRANCH   2   3
HETATM    3  C   UNL     1     -22.080  -3.087 -11.895  1.00  0.00     0.170 C 
BRANCH   3   4
HETATM    4  O   UNL     1     -21.937  -3.498 -13.251  1.00  0.00    -0.400 OA
HETATM    5  H   UNL     1     -21.125  -3.090 -13.596  1.00  0.00     0.209 HD
ENDBRANCH   3   4
ENDBRANCH   2   3
BRANCH   2   6
HETATM    6  C   UNL     1     -24.453  -3.132 -12.755  1.00  0.00     0.170 C 
BRANCH   6   7
HETATM    7  O   UNL     1     -24.429  -1.952 -13.550  1.00  0.00    -0.400 OA
HETATM    8  H   UNL     1     -23.778  -1.346 -13.160  1.00  0.00     0.209 HD
ENDBRANCH   6   7
ENDBRANCH   2   6
TORSDOF 4
ENDMDL
MODEL 9
REMARK VINA RESULT:      -3.6     10.221     11.097
REMARK  4 active torsions:
REMARK  status: ('A' for Active; 'I' for Inactive)
REMARK    1  A    between atoms: C_2  and  C_3 
REMARK    2  A    between atoms: C_2  and  C_5 
REMARK    3  A    between atoms: C_3  and  O_4 
REMARK    4  A    between atoms: C_5  and  O_6 
ROOT
HETATM    1  C   UNL     1     -32.783  -3.970 -11.844  1.00  0.00     0.014 C 
HETATM    2  C   UNL     1     -33.851  -4.394 -10.833  1.00  0.00     0.029 C 
ENDROOT
BRANCH   2   3
HETATM    3  C   UNL     1     -35.118  -3.542 -10.974  1.00  0.00     0.170 C 
BRANCH   3   4
HETATM    4  O   UNL     1     -35.293  -3.127 -12.325  1.00  0.00    -0.400 OA
HETATM    5  H   UNL     1     -36.119  -2.616 -12.369  1.00  0.00     0.209 HD
ENDBRANCH   3   4
ENDBRANCH   2   3
BRANCH   2   6
HETATM    6  C   UNL     1     -34.170  -5.882 -10.999  1.00  0.00     0.170 C 
BRANCH   6   7
HETATM    7  O   UNL     1     -34.717  -6.141 -12.285  1.00  0.00    -0.400 OA
HETATM    8  H   UNL     1     -35.671  -5.960 -12.243  1.00  0.00     0.209 HD
ENDBRANCH   6   7
ENDBRANCH   2   6
TORSDOF 4
ENDMDL
