MODEL 1
REMARK VINA RESULT:      -6.2      0.000      0.000
REMARK  23 active torsions:
REMARK  status: ('A' for Active; 'I' for Inactive)
REMARK    1  A    between atoms: C_2  and  C_3 
REMARK    2  A    between atoms: C_3  and  C_4 
REMARK    3  A    between atoms: C_4  and  C_5 
REMARK    4  A    between atoms: C_5  and  C_6 
REMARK    5  A    between atoms: C_6  and  C_7 
REMARK    6  A    between atoms: C_7  and  C_8 
REMARK    7  A    between atoms: C_8  and  C_9 
REMARK    8  A    between atoms: C_9  and  C_10 
REMARK    9  A    between atoms: C_10  and  C_11 
REMARK   10  A    between atoms: C_11  and  C_12 
REMARK   11  A    between atoms: C_12  and  C_13 
REMARK   12  A    between atoms: C_13  and  C_14 
REMARK   13  A    between atoms: C_14  and  C_15 
REMARK   14  A    between atoms: C_15  and  C_16 
REMARK   15  A    between atoms: C_16  and  C_17 
REMARK   16  A    between atoms: C_17  and  C_18 
REMARK   17  A    between atoms: C_18  and  O_20 
REMARK   18  A    between atoms: O_20  and  C_21 
REMARK   19  A    between atoms: C_21  and  C_22 
REMARK   20  A    between atoms: C_22  and  C_23 
REMARK   21  A    between atoms: C_22  and  C_25 
REMARK   22  A    between atoms: C_25  and  C_26 
REMARK   23  A    between atoms: C_26  and  C_27 
ROOT
HETATM    1  C   UNL     1     -21.994  -7.711   0.114  1.00  0.00     0.000 C 
ENDROOT
BRANCH   1   2
HETATM    2  C   UNL     1     -22.232  -6.767  -1.054  1.00  0.00     0.000 C 
BRANCH   2   3
HETATM    3  C   UNL     1     -21.476  -7.246  -2.285  1.00  0.00     0.000 C 
BRANCH   3   4
HETATM    4  C   UNL     1     -21.416  -6.138  -3.323  1.00  0.00     0.000 C 
BRANCH   4   5
HETATM    5  C   UNL     1     -22.176  -6.549  -4.572  1.00  0.00     0.000 C 
BRANCH   5   6
HETATM    6  C   UNL     1     -21.722  -5.711  -5.754  1.00  0.00     0.000 C 
BRANCH   6   7
HETATM    7  C   UNL     1     -20.206  -5.650  -5.798  1.00  0.00     0.000 C 
BRANCH   7   8
HETATM    8  C   UNL     1     -19.755  -4.653  -6.852  1.00  0.00     0.000 C 
BRANCH   8   9
HETATM    9  C   UNL     1     -20.050  -5.197  -8.239  1.00  0.00     0.000 C 
BRANCH   9  10
HETATM   10  C   UNL     1     -20.727  -4.133  -9.087  1.00  0.00     0.000 C 
BRANCH  10  11
HETATM   11  C   UNL     1     -22.235  -4.339  -9.088  1.00  0.00     0.000 C 
BRANCH  11  12
HETATM   12  C   UNL     1     -22.728  -4.608 -10.502  1.00  0.00    -0.000 C 
BRANCH  12  13
HETATM   13  C   UNL     1     -21.799  -3.971 -11.527  1.00  0.00    -0.005 C 
HETATM   14  C   UNL     1     -22.462  -2.771 -12.177  1.00  0.00     0.005 C 
ENDBRANCH  12  13
ENDBRANCH  11  12
ENDBRANCH  10  11
ENDBRANCH   9  10
ENDBRANCH   8   9
ENDBRANCH   7   8
ENDBRANCH   6   7
ENDBRANCH   5   6
ENDBRANCH   4   5
ENDBRANCH   3   4
ENDBRANCH   2   3
ENDBRANCH   1   2
BRANCH   1  15
HETATM   15  C   UNL     1     -23.087  -8.774   0.184  1.00  0.00     0.000 C 
BRANCH  15  16
HETATM   16  C   UNL     1     -22.537 -10.112  -0.290  1.00  0.00     0.010 C 
BRANCH  16  17
HETATM   17  C   UNL     1     -21.378 -10.613   0.565  1.00  0.00     0.111 C 
BRANCH  17  18
HETATM   18  C   UNL     1     -20.277 -11.146  -0.333  1.00  0.00     0.258 C 
HETATM   19  O   UNL     1     -19.770 -12.244  -0.251  1.00  0.00    -0.265 OA
BRANCH  18  20
HETATM   20  O   UNL     1     -19.890 -10.161  -1.201  1.00  0.00    -0.321 OA
BRANCH  20  21
HETATM   21  C   UNL     1     -18.860 -10.575  -2.109  1.00  0.00     0.183 C 
BRANCH  21  22
HETATM   22  C   UNL     1     -18.193  -9.384  -2.817  1.00  0.00     0.010 C 
BRANCH  22  23
HETATM   23  C   UNL     1     -16.659  -9.555  -2.935  1.00  0.00     0.002 C 
HETATM   24  C   UNL     1     -16.142  -9.777  -4.349  1.00  0.00     0.005 C 
ENDBRANCH  22  23
BRANCH  22  25
HETATM   25  C   UNL     1     -18.832  -9.168  -4.208  1.00  0.00     0.007 C 
BRANCH  25  26
HETATM   26  C   UNL     1     -19.620 -10.387  -4.695  1.00  0.00     0.000 C 
BRANCH  26  27
HETATM   27  C   UNL     1     -21.043 -10.033  -5.113  1.00  0.00    -0.005 C 
HETATM   28  C   UNL     1     -22.018 -10.375  -3.996  1.00  0.00     0.005 C 
ENDBRANCH  26  27
ENDBRANCH  25  26
ENDBRANCH  22  25
ENDBRANCH  21  22
ENDBRANCH  20  21
ENDBRANCH  18  20
ENDBRANCH  17  18
ENDBRANCH  16  17
ENDBRANCH  15  16
ENDBRANCH   1  15
TORSDOF 23
ENDMDL
MODEL 2
REMARK VINA RESULT:      -6.2      1.866      3.148
REMARK  23 active torsions:
REMARK  status: ('A' for Active; 'I' for Inactive)
REMARK    1  A    between atoms: C_2  and  C_3 
REMARK    2  A    between atoms: C_3  and  C_4 
REMARK    3  A    between atoms: C_4  and  C_5 
REMARK    4  A    between atoms: C_5  and  C_6 
REMARK    5  A    between atoms: C_6  and  C_7 
REMARK    6  A    between atoms: C_7  and  C_8 
REMARK    7  A    between atoms: C_8  and  C_9 
REMARK    8  A    between atoms: C_9  and  C_10 
REMARK    9  A    between atoms: C_10  and  C_11 
REMARK   10  A    between atoms: C_11  and  C_12 
REMARK   11  A    between atoms: C_12  and  C_13 
REMARK   12  A    between atoms: C_13  and  C_14 
REMARK   13  A    between atoms: C_14  and  C_15 
REMARK   14  A    between atoms: C_15  and  C_16 
REMARK   15  A    between atoms: C_16  and  C_17 
REMARK   16  A    between atoms: C_17  and  C_18 
REMARK   17  A    between atoms: C_18  and  O_20 
REMARK   18  A    between atoms: O_20  and  C_21 
REMARK   19  A    between atoms: C_21  and  C_22 
REMARK   20  A    between atoms: C_22  and  C_23 
REMARK   21  A    between atoms: C_22  and  C_25 
REMARK   22  A    between atoms: C_25  and  C_26 
REMARK   23  A    between atoms: C_26  and  C_27 
ROOT
HETATM    1  C   UNL     1     -22.364  -6.263  -2.232  1.00  0.00     0.000 C 
ENDROOT
BRANCH   1   2
HETATM    2  C   UNL     1     -21.224  -6.727  -3.125  1.00  0.00     0.000 C 
BRANCH   2   3
HETATM    3  C   UNL     1     -21.770  -7.425  -4.362  1.00  0.00     0.000 C 
BRANCH   3   4
HETATM    4  C   UNL     1     -21.008  -6.971  -5.595  1.00  0.00     0.000 C 
BRANCH   4   5
HETATM    5  C   UNL     1     -20.879  -5.458  -5.605  1.00  0.00     0.000 C 
BRANCH   5   6
HETATM    6  C   UNL     1     -21.925  -4.855  -6.526  1.00  0.00     0.000 C 
BRANCH   6   7
HETATM    7  C   UNL     1     -21.301  -3.772  -7.386  1.00  0.00     0.000 C 
BRANCH   7   8
HETATM    8  C   UNL     1     -19.980  -4.258  -7.958  1.00  0.00     0.000 C 
BRANCH   8   9
HETATM    9  C   UNL     1     -19.997  -4.140  -9.472  1.00  0.00     0.000 C 
BRANCH   9  10
HETATM   10  C   UNL     1     -21.397  -4.402 -10.003  1.00  0.00     0.000 C 
BRANCH  10  11
HETATM   11  C   UNL     1     -21.764  -3.367 -11.056  1.00  0.00     0.000 C 
BRANCH  11  12
HETATM   12  C   UNL     1     -23.190  -3.591 -11.540  1.00  0.00    -0.000 C 
BRANCH  12  13
HETATM   13  C   UNL     1     -24.017  -4.295 -10.473  1.00  0.00    -0.005 C 
HETATM   14  C   UNL     1     -24.730  -3.284  -9.595  1.00  0.00     0.005 C 
ENDBRANCH  12  13
ENDBRANCH  11  12
ENDBRANCH  10  11
ENDBRANCH   9  10
ENDBRANCH   8   9
ENDBRANCH   7   8
ENDBRANCH   6   7
ENDBRANCH   5   6
ENDBRANCH   4   5
ENDBRANCH   3   4
ENDBRANCH   2   3
ENDBRANCH   1   2
BRANCH   1  15
HETATM   15  C   UNL     1     -22.288  -6.934  -0.863  1.00  0.00     0.000 C 
BRANCH  15  16
HETATM   16  C   UNL     1     -21.152  -7.949  -0.848  1.00  0.00     0.010 C 
BRANCH  16  17
HETATM   17  C   UNL     1     -21.244  -8.925   0.320  1.00  0.00     0.111 C 
BRANCH  17  18
HETATM   18  C   UNL     1     -20.557 -10.227  -0.050  1.00  0.00     0.258 C 
HETATM   19  O   UNL     1     -20.271 -11.116   0.722  1.00  0.00    -0.265 OA
BRANCH  18  20
HETATM   20  O   UNL     1     -20.238 -10.204  -1.381  1.00  0.00    -0.321 OA
BRANCH  20  21
HETATM   21  C   UNL     1     -20.798 -11.298  -2.119  1.00  0.00     0.183 C 
BRANCH  21  22
HETATM   22  C   UNL     1     -21.964 -10.857  -3.020  1.00  0.00     0.010 C 
BRANCH  22  23
HETATM   23  C   UNL     1     -21.863 -11.455  -4.445  1.00  0.00     0.002 C 
HETATM   24  C   UNL     1     -20.812 -10.813  -5.340  1.00  0.00     0.005 C 
ENDBRANCH  22  23
BRANCH  22  25
HETATM   25  C   UNL     1     -23.312 -11.228  -2.362  1.00  0.00     0.007 C 
BRANCH  25  26
HETATM   26  C   UNL     1     -23.202 -12.429  -1.418  1.00  0.00     0.000 C 
BRANCH  26  27
HETATM   27  C   UNL     1     -23.651 -12.099   0.001  1.00  0.00    -0.005 C 
HETATM   28  C   UNL     1     -24.270 -10.710   0.046  1.00  0.00     0.005 C 
ENDBRANCH  26  27
ENDBRANCH  25  26
ENDBRANCH  22  25
ENDBRANCH  21  22
ENDBRANCH  20  21
ENDBRANCH  18  20
ENDBRANCH  17  18
ENDBRANCH  16  17
ENDBRANCH  15  16
ENDBRANCH   1  15
TORSDOF 23
ENDMDL
MODEL 3
REMARK VINA RESULT:      -6.1      3.207      9.759
REMARK  23 active torsions:
REMARK  status: ('A' for Active; 'I' for Inactive)
REMARK    1  A    between atoms: C_2  and  C_3 
REMARK    2  A    between atoms: C_3  and  C_4 
REMARK    3  A    between atoms: C_4  and  C_5 
REMARK    4  A    between atoms: C_5  and  C_6 
REMARK    5  A    between atoms: C_6  and  C_7 
REMARK    6  A    between atoms: C_7  and  C_8 
REMARK    7  A    between atoms: C_8  and  C_9 
REMARK    8  A    between atoms: C_9  and  C_10 
REMARK    9  A    between atoms: C_10  and  C_11 
REMARK   10  A    between atoms: C_11  and  C_12 
REMARK   11  A    between atoms: C_12  and  C_13 
REMARK   12  A    between atoms: C_13  and  C_14 
REMARK   13  A    between atoms: C_14  and  C_15 
REMARK   14  A    between atoms: C_15  and  C_16 
REMARK   15  A    between atoms: C_16  and  C_17 
REMARK   16  A    between atoms: C_17  and  C_18 
REMARK   17  A    between atoms: C_18  and  O_20 
REMARK   18  A    between atoms: O_20  and  C_21 
REMARK   19  A    between atoms: C_21  and  C_22 
REMARK   20  A    between atoms: C_22  and  C_23 
REMARK   21  A    between atoms: C_22  and  C_25 
REMARK   22  A    between atoms: C_25  and  C_26 
REMARK   23  A    between atoms: C_26  and  C_27 
ROOT
HETATM    1  C   UNL     1     -20.453  -7.604  -5.428  1.00  0.00     0.000 C 
ENDROOT
BRANCH   1   2
HETATM    2  C   UNL     1     -21.448  -8.397  -4.594  1.00  0.00     0.000 C 
BRANCH   2   3
HETATM    3  C   UNL     1     -20.818  -8.815  -3.274  1.00  0.00     0.000 C 
BRANCH   3   4
HETATM    4  C   UNL     1     -20.662  -7.607  -2.367  1.00  0.00     0.000 C 
BRANCH   4   5
HETATM    5  C   UNL     1     -21.986  -6.873  -2.238  1.00  0.00     0.000 C 
BRANCH   5   6
HETATM    6  C   UNL     1     -22.315  -6.650  -0.773  1.00  0.00     0.000 C 
BRANCH   6   7
HETATM    7  C   UNL     1     -22.688  -7.966  -0.117  1.00  0.00     0.000 C 
BRANCH   7   8
HETATM    8  C   UNL     1     -21.770  -8.240   1.062  1.00  0.00     0.000 C 
BRANCH   8   9
HETATM    9  C   UNL     1     -21.050  -9.562   0.862  1.00  0.00     0.000 C 
BRANCH   9  10
HETATM   10  C   UNL     1     -21.996 -10.588   0.259  1.00  0.00     0.000 C 
BRANCH  10  11
HETATM   11  C   UNL     1     -21.212 -11.779  -0.274  1.00  0.00     0.000 C 
BRANCH  11  12
HETATM   12  C   UNL     1     -22.110 -12.659  -1.131  1.00  0.00    -0.000 C 
BRANCH  12  13
HETATM   13  C   UNL     1     -23.520 -12.709  -0.559  1.00  0.00    -0.005 C 
HETATM   14  C   UNL     1     -24.265 -13.925  -1.078  1.00  0.00     0.005 C 
ENDBRANCH  12  13
ENDBRANCH  11  12
ENDBRANCH  10  11
ENDBRANCH   9  10
ENDBRANCH   8   9
ENDBRANCH   7   8
ENDBRANCH   6   7
ENDBRANCH   5   6
ENDBRANCH   4   5
ENDBRANCH   3   4
ENDBRANCH   2   3
ENDBRANCH   1   2
BRANCH   1  15
HETATM   15  C   UNL     1     -21.170  -6.559  -6.279  1.00  0.00     0.000 C 
BRANCH  15  16
HETATM   16  C   UNL     1     -20.825  -5.163  -5.779  1.00  0.00     0.010 C 
BRANCH  16  17
HETATM   17  C   UNL     1     -20.911  -4.103  -6.873  1.00  0.00     0.111 C 
BRANCH  17  18
HETATM   18  C   UNL     1     -19.748  -4.269  -7.834  1.00  0.00     0.258 C 
HETATM   19  O   UNL     1     -18.574  -4.229  -7.533  1.00  0.00    -0.265 OA
BRANCH  18  20
HETATM   20  O   UNL     1     -20.232  -4.391  -9.108  1.00  0.00    -0.321 OA
BRANCH  20  21
HETATM   21  C   UNL     1     -21.578  -3.917  -9.253  1.00  0.00     0.183 C 
BRANCH  21  22
HETATM   22  C   UNL     1     -22.365  -4.711 -10.308  1.00  0.00     0.010 C 
BRANCH  22  23
HETATM   23  C   UNL     1     -23.897  -4.566 -10.130  1.00  0.00     0.002 C 
HETATM   24  C   UNL     1     -24.338  -3.389  -9.272  1.00  0.00     0.005 C 
ENDBRANCH  22  23
BRANCH  22  25
HETATM   25  C   UNL     1     -21.933  -4.279 -11.728  1.00  0.00     0.007 C 
BRANCH  25  26
HETATM   26  C   UNL     1     -22.344  -2.842 -12.063  1.00  0.00     0.000 C 
BRANCH  26  27
HETATM   27  C   UNL     1     -23.485  -2.783 -13.072  1.00  0.00    -0.005 C 
HETATM   28  C   UNL     1     -22.931  -2.669 -14.485  1.00  0.00     0.005 C 
ENDBRANCH  26  27
ENDBRANCH  25  26
ENDBRANCH  22  25
ENDBRANCH  21  22
ENDBRANCH  20  21
ENDBRANCH  18  20
ENDBRANCH  17  18
ENDBRANCH  16  17
ENDBRANCH  15  16
ENDBRANCH   1  15
TORSDOF 23
ENDMDL
MODEL 4
REMARK VINA RESULT:      -6.1      2.711      8.780
REMARK  23 active torsions:
REMARK  status: ('A' for Active; 'I' for Inactive)
REMARK    1  A    between atoms: C_2  and  C_3 
REMARK    2  A    between atoms: C_3  and  C_4 
REMARK    3  A    between atoms: C_4  and  C_5 
REMARK    4  A    between atoms: C_5  and  C_6 
REMARK    5  A    between atoms: C_6  and  C_7 
REMARK    6  A    between atoms: C_7  and  C_8 
REMARK    7  A    between atoms: C_8  and  C_9 
REMARK    8  A    between atoms: C_9  and  C_10 
REMARK    9  A    between atoms: C_10  and  C_11 
REMARK   10  A    between atoms: C_11  and  C_12 
REMARK   11  A    between atoms: C_12  and  C_13 
REMARK   12  A    between atoms: C_13  and  C_14 
REMARK   13  A    between atoms: C_14  and  C_15 
REMARK   14  A    between atoms: C_15  and  C_16 
REMARK   15  A    between atoms: C_16  and  C_17 
REMARK   16  A    between atoms: C_17  and  C_18 
REMARK   17  A    between atoms: C_18  and  O_20 
REMARK   18  A    between atoms: O_20  and  C_21 
REMARK   19  A    between atoms: C_21  and  C_22 
REMARK   20  A    between atoms: C_22  and  C_23 
REMARK   21  A    between atoms: C_22  and  C_25 
REMARK   22  A    between atoms: C_25  and  C_26 
REMARK   23  A    between atoms: C_26  and  C_27 
ROOT
HETATM    1  C   UNL     1     -22.371  -7.268  -0.550  1.00  0.00     0.000 C 
ENDROOT
BRANCH   1   2
HETATM    2  C   UNL     1     -21.221  -8.257  -0.430  1.00  0.00     0.000 C 
BRANCH   2   3
HETATM    3  C   UNL     1     -21.308  -9.011   0.889  1.00  0.00     0.000 C 
BRANCH   3   4
HETATM    4  C   UNL     1     -20.695 -10.393   0.739  1.00  0.00     0.000 C 
BRANCH   4   5
HETATM    5  C   UNL     1     -20.148 -10.575  -0.666  1.00  0.00     0.000 C 
BRANCH   5   6
HETATM    6  C   UNL     1     -20.083 -12.051  -1.011  1.00  0.00     0.000 C 
BRANCH   6   7
HETATM    7  C   UNL     1     -19.436 -12.823   0.125  1.00  0.00     0.000 C 
BRANCH   7   8
HETATM    8  C   UNL     1     -20.012 -14.227   0.195  1.00  0.00     0.000 C 
BRANCH   8   9
HETATM    9  C   UNL     1     -21.517 -14.181  -0.003  1.00  0.00     0.000 C 
BRANCH   9  10
HETATM   10  C   UNL     1     -22.216 -13.964   1.330  1.00  0.00     0.000 C 
BRANCH  10  11
HETATM   11  C   UNL     1     -23.344 -12.954   1.176  1.00  0.00     0.000 C 
BRANCH  11  12
HETATM   12  C   UNL     1     -23.706 -12.790  -0.293  1.00  0.00    -0.000 C 
BRANCH  12  13
HETATM   13  C   UNL     1     -23.868 -11.319  -0.648  1.00  0.00    -0.005 C 
HETATM   14  C   UNL     1     -23.466 -11.068  -2.089  1.00  0.00     0.005 C 
ENDBRANCH  12  13
ENDBRANCH  11  12
ENDBRANCH  10  11
ENDBRANCH   9  10
ENDBRANCH   8   9
ENDBRANCH   7   8
ENDBRANCH   6   7
ENDBRANCH   5   6
ENDBRANCH   4   5
ENDBRANCH   3   4
ENDBRANCH   2   3
ENDBRANCH   1   2
BRANCH   1  15
HETATM   15  C   UNL     1     -22.245  -6.443  -1.828  1.00  0.00     0.000 C 
BRANCH  15  16
HETATM   16  C   UNL     1     -21.176  -7.048  -2.729  1.00  0.00     0.010 C 
BRANCH  16  17
HETATM   17  C   UNL     1     -21.734  -7.555  -4.054  1.00  0.00     0.111 C 
BRANCH  17  18
HETATM   18  C   UNL     1     -20.932  -6.969  -5.202  1.00  0.00     0.258 C 
HETATM   19  O   UNL     1     -20.014  -7.517  -5.772  1.00  0.00    -0.265 OA
BRANCH  18  20
HETATM   20  O   UNL     1     -21.358  -5.690  -5.439  1.00  0.00    -0.321 OA
BRANCH  20  21
HETATM   21  C   UNL     1     -21.826  -5.485  -6.779  1.00  0.00     0.183 C 
BRANCH  21  22
HETATM   22  C   UNL     1     -21.683  -4.022  -7.229  1.00  0.00     0.010 C 
BRANCH  22  23
HETATM   23  C   UNL     1     -20.220  -3.655  -7.581  1.00  0.00     0.002 C 
HETATM   24  C   UNL     1     -19.322  -4.838  -7.915  1.00  0.00     0.005 C 
ENDBRANCH  22  23
BRANCH  22  25
HETATM   25  C   UNL     1     -22.624  -3.740  -8.422  1.00  0.00     0.007 C 
BRANCH  25  26
HETATM   26  C   UNL     1     -22.454  -4.748  -9.563  1.00  0.00     0.000 C 
BRANCH  26  27
HETATM   27  C   UNL     1     -22.267  -4.070 -10.916  1.00  0.00    -0.005 C 
HETATM   28  C   UNL     1     -20.787  -3.978 -11.257  1.00  0.00     0.005 C 
ENDBRANCH  26  27
ENDBRANCH  25  26
ENDBRANCH  22  25
ENDBRANCH  21  22
ENDBRANCH  20  21
ENDBRANCH  18  20
ENDBRANCH  17  18
ENDBRANCH  16  17
ENDBRANCH  15  16
ENDBRANCH   1  15
TORSDOF 23
ENDMDL
MODEL 5
REMARK VINA RESULT:      -6.0      1.694      2.978
REMARK  23 active torsions:
REMARK  status: ('A' for Active; 'I' for Inactive)
REMARK    1  A    between atoms: C_2  and  C_3 
REMARK    2  A    between atoms: C_3  and  C_4 
REMARK    3  A    between atoms: C_4  and  C_5 
REMARK    4  A    between atoms: C_5  and  C_6 
REMARK    5  A    between atoms: C_6  and  C_7 
REMARK    6  A    between atoms: C_7  and  C_8 
REMARK    7  A    between atoms: C_8  and  C_9 
REMARK    8  A    between atoms: C_9  and  C_10 
REMARK    9  A    between atoms: C_10  and  C_11 
REMARK   10  A    between atoms: C_11  and  C_12 
REMARK   11  A    between atoms: C_12  and  C_13 
REMARK   12  A    between atoms: C_13  and  C_14 
REMARK   13  A    between atoms: C_14  and  C_15 
REMARK   14  A    between atoms: C_15  and  C_16 
REMARK   15  A    between atoms: C_16  and  C_17 
REMARK   16  A    between atoms: C_17  and  C_18 
REMARK   17  A    between atoms: C_18  and  O_20 
REMARK   18  A    between atoms: O_20  and  C_21 
REMARK   19  A    between atoms: C_21  and  C_22 
REMARK   20  A    between atoms: C_22  and  C_23 
REMARK   21  A    between atoms: C_22  and  C_25 
REMARK   22  A    between atoms: C_25  and  C_26 
REMARK   23  A    between atoms: C_26  and  C_27 
ROOT
HETATM    1  C   UNL     1     -22.313  -6.877  -0.963  1.00  0.00     0.000 C 
ENDROOT
BRANCH   1   2
HETATM    2  C   UNL     1     -21.902  -5.936  -2.086  1.00  0.00     0.000 C 
BRANCH   2   3
HETATM    3  C   UNL     1     -21.962  -6.654  -3.426  1.00  0.00     0.000 C 
BRANCH   3   4
HETATM    4  C   UNL     1     -21.173  -5.880  -4.468  1.00  0.00     0.000 C 
BRANCH   4   5
HETATM    5  C   UNL     1     -21.102  -6.668  -5.765  1.00  0.00     0.000 C 
BRANCH   5   6
HETATM    6  C   UNL     1     -20.457  -5.824  -6.849  1.00  0.00     0.000 C 
BRANCH   6   7
HETATM    7  C   UNL     1     -21.104  -4.452  -6.895  1.00  0.00     0.000 C 
BRANCH   7   8
HETATM    8  C   UNL     1     -21.038  -3.891  -8.306  1.00  0.00     0.000 C 
BRANCH   8   9
HETATM    9  C   UNL     1     -20.075  -4.712  -9.145  1.00  0.00     0.000 C 
BRANCH   9  10
HETATM   10  C   UNL     1     -20.391  -4.545 -10.622  1.00  0.00     0.000 C 
BRANCH  10  11
HETATM   11  C   UNL     1     -21.389  -3.413 -10.823  1.00  0.00     0.000 C 
BRANCH  11  12
HETATM   12  C   UNL     1     -22.397  -3.786 -11.901  1.00  0.00    -0.000 C 
BRANCH  12  13
HETATM   13  C   UNL     1     -23.363  -4.847 -11.393  1.00  0.00    -0.005 C 
HETATM   14  C   UNL     1     -24.131  -4.337 -10.188  1.00  0.00     0.005 C 
ENDBRANCH  12  13
ENDBRANCH  11  12
ENDBRANCH  10  11
ENDBRANCH   9  10
ENDBRANCH   8   9
ENDBRANCH   7   8
ENDBRANCH   6   7
ENDBRANCH   5   6
ENDBRANCH   4   5
ENDBRANCH   3   4
ENDBRANCH   2   3
ENDBRANCH   1   2
BRANCH   1  15
HETATM   15  C   UNL     1     -22.013  -8.327  -1.333  1.00  0.00     0.000 C 
BRANCH  15  16
HETATM   16  C   UNL     1     -21.634  -9.110  -0.083  1.00  0.00     0.010 C 
BRANCH  16  17
HETATM   17  C   UNL     1     -21.783 -10.618  -0.260  1.00  0.00     0.111 C 
BRANCH  17  18
HETATM   18  C   UNL     1     -23.192 -10.938  -0.726  1.00  0.00     0.258 C 
HETATM   19  O   UNL     1     -24.202 -10.782  -0.074  1.00  0.00    -0.265 OA
BRANCH  18  20
HETATM   20  O   UNL     1     -23.135 -11.507  -1.969  1.00  0.00    -0.321 OA
BRANCH  20  21
HETATM   21  C   UNL     1     -21.821 -11.955  -2.330  1.00  0.00     0.183 C 
BRANCH  21  22
HETATM   22  C   UNL     1     -21.540 -11.787  -3.833  1.00  0.00     0.010 C 
BRANCH  22  23
HETATM   23  C   UNL     1     -22.658 -12.398  -4.712  1.00  0.00     0.002 C 
HETATM   24  C   UNL     1     -22.293 -12.594  -6.176  1.00  0.00     0.005 C 
ENDBRANCH  22  23
BRANCH  22  25
HETATM   25  C   UNL     1     -21.330 -10.293  -4.169  1.00  0.00     0.007 C 
BRANCH  25  26
HETATM   26  C   UNL     1     -19.890  -9.974  -4.583  1.00  0.00     0.000 C 
BRANCH  26  27
HETATM   27  C   UNL     1     -19.173  -9.091  -3.567  1.00  0.00    -0.005 C 
HETATM   28  C   UNL     1     -18.427  -9.951  -2.558  1.00  0.00     0.005 C 
ENDBRANCH  26  27
ENDBRANCH  25  26
ENDBRANCH  22  25
ENDBRANCH  21  22
ENDBRANCH  20  21
ENDBRANCH  18  20
ENDBRANCH  17  18
ENDBRANCH  16  17
ENDBRANCH  15  16
ENDBRANCH   1  15
TORSDOF 23
ENDMDL
MODEL 6
REMARK VINA RESULT:      -6.0      1.182      2.491
REMARK  23 active torsions:
REMARK  status: ('A' for Active; 'I' for Inactive)
REMARK    1  A    between atoms: C_2  and  C_3 
REMARK    2  A    between atoms: C_3  and  C_4 
REMARK    3  A    between atoms: C_4  and  C_5 
REMARK    4  A    between atoms: C_5  and  C_6 
REMARK    5  A    between atoms: C_6  and  C_7 
REMARK    6  A    between atoms: C_7  and  C_8 
REMARK    7  A    between atoms: C_8  and  C_9 
REMARK    8  A    between atoms: C_9  and  C_10 
REMARK    9  A    between atoms: C_10  and  C_11 
REMARK   10  A    between atoms: C_11  and  C_12 
REMARK   11  A    between atoms: C_12  and  C_13 
REMARK   12  A    between atoms: C_13  and  C_14 
REMARK   13  A    between atoms: C_14  and  C_15 
REMARK   14  A    between atoms: C_15  and  C_16 
REMARK   15  A    between atoms: C_16  and  C_17 
REMARK   16  A    between atoms: C_17  and  C_18 
REMARK   17  A    between atoms: C_18  and  O_20 
REMARK   18  A    between atoms: O_20  and  C_21 
REMARK   19  A    between atoms: C_21  and  C_22 
REMARK   20  A    between atoms: C_22  and  C_23 
REMARK   21  A    between atoms: C_22  and  C_25 
REMARK   22  A    between atoms: C_25  and  C_26 
REMARK   23  A    between atoms: C_26  and  C_27 
ROOT
HETATM    1  C   UNL     1     -21.475  -7.209  -1.927  1.00  0.00     0.000 C 
ENDROOT
BRANCH   1   2
HETATM    2  C   UNL     1     -21.562  -6.052  -2.910  1.00  0.00     0.000 C 
BRANCH   2   3
HETATM    3  C   UNL     1     -21.877  -6.567  -4.307  1.00  0.00     0.000 C 
BRANCH   3   4
HETATM    4  C   UNL     1     -20.633  -7.178  -4.929  1.00  0.00     0.000 C 
BRANCH   4   5
HETATM    5  C   UNL     1     -20.278  -6.449  -6.214  1.00  0.00     0.000 C 
BRANCH   5   6
HETATM    6  C   UNL     1     -21.380  -5.469  -6.576  1.00  0.00     0.000 C 
BRANCH   6   7
HETATM    7  C   UNL     1     -20.793  -4.089  -6.809  1.00  0.00     0.000 C 
BRANCH   7   8
HETATM    8  C   UNL     1     -20.041  -4.059  -8.129  1.00  0.00     0.000 C 
BRANCH   8   9
HETATM    9  C   UNL     1     -20.966  -4.471  -9.261  1.00  0.00     0.000 C 
BRANCH   9  10
HETATM   10  C   UNL     1     -20.522  -3.824 -10.563  1.00  0.00     0.000 C 
BRANCH  10  11
HETATM   11  C   UNL     1     -21.483  -4.186 -11.687  1.00  0.00     0.000 C 
BRANCH  11  12
HETATM   12  C   UNL     1     -22.898  -4.321 -11.144  1.00  0.00    -0.000 C 
BRANCH  12  13
HETATM   13  C   UNL     1     -23.683  -3.034 -11.357  1.00  0.00    -0.005 C 
HETATM   14  C   UNL     1     -24.455  -3.087 -12.661  1.00  0.00     0.005 C 
ENDBRANCH  12  13
ENDBRANCH  11  12
ENDBRANCH  10  11
ENDBRANCH   9  10
ENDBRANCH   8   9
ENDBRANCH   7   8
ENDBRANCH   6   7
ENDBRANCH   5   6
ENDBRANCH   4   5
ENDBRANCH   3   4
ENDBRANCH   2   3
ENDBRANCH   1   2
BRANCH   1  15
HETATM   15  C   UNL     1     -22.476  -7.030  -0.788  1.00  0.00     0.000 C 
BRANCH  15  16
HETATM   16  C   UNL     1     -22.572  -8.316   0.021  1.00  0.00     0.010 C 
BRANCH  16  17
HETATM   17  C   UNL     1     -21.359  -8.545   0.917  1.00  0.00     0.111 C 
BRANCH  17  18
HETATM   18  C   UNL     1     -20.803  -9.937   0.674  1.00  0.00     0.258 C 
HETATM   19  O   UNL     1     -20.464 -10.720   1.535  1.00  0.00    -0.265 OA
BRANCH  18  20
HETATM   20  O   UNL     1     -20.669 -10.138  -0.673  1.00  0.00    -0.321 OA
BRANCH  20  21
HETATM   21  C   UNL     1     -19.696 -11.138  -1.005  1.00  0.00     0.183 C 
BRANCH  21  22
HETATM   22  C   UNL     1     -19.343 -11.133  -2.502  1.00  0.00     0.010 C 
BRANCH  22  23
HETATM   23  C   UNL     1     -20.483 -11.711  -3.376  1.00  0.00     0.002 C 
HETATM   24  C   UNL     1     -21.338 -10.673  -4.089  1.00  0.00     0.005 C 
ENDBRANCH  22  23
BRANCH  22  25
HETATM   25  C   UNL     1     -18.972  -9.702  -2.955  1.00  0.00     0.007 C 
BRANCH  25  26
HETATM   26  C   UNL     1     -17.469  -9.525  -3.191  1.00  0.00     0.000 C 
BRANCH  26  27
HETATM   27  C   UNL     1     -17.032 -10.026  -4.563  1.00  0.00    -0.005 C 
HETATM   28  C   UNL     1     -17.990  -9.525  -5.634  1.00  0.00     0.005 C 
ENDBRANCH  26  27
ENDBRANCH  25  26
ENDBRANCH  22  25
ENDBRANCH  21  22
ENDBRANCH  20  21
ENDBRANCH  18  20
ENDBRANCH  17  18
ENDBRANCH  16  17
ENDBRANCH  15  16
ENDBRANCH   1  15
TORSDOF 23
ENDMDL
MODEL 7
REMARK VINA RESULT:      -5.9      1.357      2.564
REMARK  23 active torsions:
REMARK  status: ('A' for Active; 'I' for Inactive)
REMARK    1  A    between atoms: C_2  and  C_3 
REMARK    2  A    between atoms: C_3  and  C_4 
REMARK    3  A    between atoms: C_4  and  C_5 
REMARK    4  A    between atoms: C_5  and  C_6 
REMARK    5  A    between atoms: C_6  and  C_7 
REMARK    6  A    between atoms: C_7  and  C_8 
REMARK    7  A    between atoms: C_8  and  C_9 
REMARK    8  A    between atoms: C_9  and  C_10 
REMARK    9  A    between atoms: C_10  and  C_11 
REMARK   10  A    between atoms: C_11  and  C_12 
REMARK   11  A    between atoms: C_12  and  C_13 
REMARK   12  A    between atoms: C_13  and  C_14 
REMARK   13  A    between atoms: C_14  and  C_15 
REMARK   14  A    between atoms: C_15  and  C_16 
REMARK   15  A    between atoms: C_16  and  C_17 
REMARK   16  A    between atoms: C_17  and  C_18 
REMARK   17  A    between atoms: C_18  and  O_20 
REMARK   18  A    between atoms: O_20  and  C_21 
REMARK   19  A    between atoms: C_21  and  C_22 
REMARK   20  A    between atoms: C_22  and  C_23 
REMARK   21  A    between atoms: C_22  and  C_25 
REMARK   22  A    between atoms: C_25  and  C_26 
REMARK   23  A    between atoms: C_26  and  C_27 
ROOT
HETATM    1  C   UNL     1     -23.088  -8.532   0.290  1.00  0.00     0.000 C 
ENDROOT
BRANCH   1   2
HETATM    2  C   UNL     1     -22.410  -7.425  -0.503  1.00  0.00     0.000 C 
BRANCH   2   3
HETATM    3  C   UNL     1     -21.076  -7.908  -1.051  1.00  0.00     0.000 C 
BRANCH   3   4
HETATM    4  C   UNL     1     -20.783  -7.233  -2.380  1.00  0.00     0.000 C 
BRANCH   4   5
HETATM    5  C   UNL     1     -22.049  -6.606  -2.939  1.00  0.00     0.000 C 
BRANCH   5   6
HETATM    6  C   UNL     1     -21.988  -6.580  -4.456  1.00  0.00     0.000 C 
BRANCH   6   7
HETATM    7  C   UNL     1     -20.884  -5.647  -4.917  1.00  0.00     0.000 C 
BRANCH   7   8
HETATM    8  C   UNL     1     -20.420  -6.037  -6.310  1.00  0.00     0.000 C 
BRANCH   8   9
HETATM    9  C   UNL     1     -19.859  -4.822  -7.028  1.00  0.00     0.000 C 
BRANCH   9  10
HETATM   10  C   UNL     1     -20.953  -3.790  -7.249  1.00  0.00     0.000 C 
BRANCH  10  11
HETATM   11  C   UNL     1     -22.052  -4.367  -8.129  1.00  0.00     0.000 C 
BRANCH  11  12
HETATM   12  C   UNL     1     -21.823  -3.973  -9.581  1.00  0.00    -0.000 C 
BRANCH  12  13
HETATM   13  C   UNL     1     -23.147  -3.701 -10.282  1.00  0.00    -0.005 C 
HETATM   14  C   UNL     1     -23.407  -4.739 -11.357  1.00  0.00     0.005 C 
ENDBRANCH  12  13
ENDBRANCH  11  12
ENDBRANCH  10  11
ENDBRANCH   9  10
ENDBRANCH   8   9
ENDBRANCH   7   8
ENDBRANCH   6   7
ENDBRANCH   5   6
ENDBRANCH   4   5
ENDBRANCH   3   4
ENDBRANCH   2   3
ENDBRANCH   1   2
BRANCH   1  15
HETATM   15  C   UNL     1     -22.456  -9.886  -0.020  1.00  0.00     0.000 C 
BRANCH  15  16
HETATM   16  C   UNL     1     -23.426 -10.736  -0.830  1.00  0.00     0.010 C 
BRANCH  16  17
HETATM   17  C   UNL     1     -22.961 -10.962  -2.264  1.00  0.00     0.111 C 
BRANCH  17  18
HETATM   18  C   UNL     1     -21.780 -11.915  -2.272  1.00  0.00     0.258 C 
HETATM   19  O   UNL     1     -21.671 -12.907  -1.585  1.00  0.00    -0.265 OA
BRANCH  18  20
HETATM   20  O   UNL     1     -20.821 -11.434  -3.122  1.00  0.00    -0.321 OA
BRANCH  20  21
HETATM   21  C   UNL     1     -19.663 -10.928  -2.444  1.00  0.00     0.183 C 
BRANCH  21  22
HETATM   22  C   UNL     1     -18.628 -10.340  -3.418  1.00  0.00     0.010 C 
BRANCH  22  23
HETATM   23  C   UNL     1     -19.292  -9.666  -4.644  1.00  0.00     0.002 C 
HETATM   24  C   UNL     1     -18.337  -9.285  -5.766  1.00  0.00     0.005 C 
ENDBRANCH  22  23
BRANCH  22  25
HETATM   25  C   UNL     1     -17.706  -9.347  -2.676  1.00  0.00     0.007 C 
BRANCH  25  26
HETATM   26  C   UNL     1     -16.218  -9.642  -2.894  1.00  0.00     0.000 C 
BRANCH  26  27
HETATM   27  C   UNL     1     -15.872 -11.105  -2.644  1.00  0.00    -0.005 C 
HETATM   28  C   UNL     1     -15.956 -11.417  -1.157  1.00  0.00     0.005 C 
ENDBRANCH  26  27
ENDBRANCH  25  26
ENDBRANCH  22  25
ENDBRANCH  21  22
ENDBRANCH  20  21
ENDBRANCH  18  20
ENDBRANCH  17  18
ENDBRANCH  16  17
ENDBRANCH  15  16
ENDBRANCH   1  15
TORSDOF 23
ENDMDL
MODEL 8
REMARK VINA RESULT:      -5.9      2.277      8.243
REMARK  23 active torsions:
REMARK  status: ('A' for Active; 'I' for Inactive)
REMARK    1  A    between atoms: C_2  and  C_3 
REMARK    2  A    between atoms: C_3  and  C_4 
REMARK    3  A    between atoms: C_4  and  C_5 
REMARK    4  A    between atoms: C_5  and  C_6 
REMARK    5  A    between atoms: C_6  and  C_7 
REMARK    6  A    between atoms: C_7  and  C_8 
REMARK    7  A    between atoms: C_8  and  C_9 
REMARK    8  A    between atoms: C_9  and  C_10 
REMARK    9  A    between atoms: C_10  and  C_11 
REMARK   10  A    between atoms: C_11  and  C_12 
REMARK   11  A    between atoms: C_12  and  C_13 
REMARK   12  A    between atoms: C_13  and  C_14 
REMARK   13  A    between atoms: C_14  and  C_15 
REMARK   14  A    between atoms: C_15  and  C_16 
REMARK   15  A    between atoms: C_16  and  C_17 
REMARK   16  A    between atoms: C_17  and  C_18 
REMARK   17  A    between atoms: C_18  and  O_20 
REMARK   18  A    between atoms: O_20  and  C_21 
REMARK   19  A    between atoms: C_21  and  C_22 
REMARK   20  A    between atoms: C_22  and  C_23 
REMARK   21  A    between atoms: C_22  and  C_25 
REMARK   22  A    between atoms: C_25  and  C_26 
REMARK   23  A    between atoms: C_26  and  C_27 
ROOT
HETATM    1  C   UNL     1     -20.896  -7.496  -1.580  1.00  0.00     0.000 C 
ENDROOT
BRANCH   1   2
HETATM    2  C   UNL     1     -21.318  -8.280  -0.346  1.00  0.00     0.000 C 
BRANCH   2   3
HETATM    3  C   UNL     1     -22.741  -7.918   0.050  1.00  0.00     0.000 C 
BRANCH   3   4
HETATM    4  C   UNL     1     -23.463  -9.146   0.578  1.00  0.00     0.000 C 
BRANCH   4   5
HETATM    5  C   UNL     1     -23.520 -10.221  -0.493  1.00  0.00     0.000 C 
BRANCH   5   6
HETATM    6  C   UNL     1     -23.515 -11.596   0.151  1.00  0.00     0.000 C 
BRANCH   6   7
HETATM    7  C   UNL     1     -22.200 -12.299  -0.131  1.00  0.00     0.000 C 
BRANCH   7   8
HETATM    8  C   UNL     1     -21.155 -11.880   0.889  1.00  0.00     0.000 C 
BRANCH   8   9
HETATM    9  C   UNL     1     -19.796 -11.763   0.221  1.00  0.00     0.000 C 
BRANCH   9  10
HETATM   10  C   UNL     1     -19.964 -11.511  -1.268  1.00  0.00     0.000 C 
BRANCH  10  11
HETATM   11  C   UNL     1     -18.606 -11.491  -1.956  1.00  0.00     0.000 C 
BRANCH  11  12
HETATM   12  C   UNL     1     -18.651 -10.588  -3.181  1.00  0.00    -0.000 C 
BRANCH  12  13
HETATM   13  C   UNL     1     -17.877  -9.301  -2.931  1.00  0.00    -0.005 C 
HETATM   14  C   UNL     1     -16.383  -9.559  -2.971  1.00  0.00     0.005 C 
ENDBRANCH  12  13
ENDBRANCH  11  12
ENDBRANCH  10  11
ENDBRANCH   9  10
ENDBRANCH   8   9
ENDBRANCH   7   8
ENDBRANCH   6   7
ENDBRANCH   5   6
ENDBRANCH   4   5
ENDBRANCH   3   4
ENDBRANCH   2   3
ENDBRANCH   1   2
BRANCH   1  15
HETATM   15  C   UNL     1     -21.870  -6.353  -1.855  1.00  0.00     0.000 C 
BRANCH  15  16
HETATM   16  C   UNL     1     -22.190  -6.295  -3.343  1.00  0.00     0.010 C 
BRANCH  16  17
HETATM   17  C   UNL     1     -21.405  -7.317  -4.158  1.00  0.00     0.111 C 
BRANCH  17  18
HETATM   18  C   UNL     1     -21.165  -6.776  -5.556  1.00  0.00     0.258 C 
HETATM   19  O   UNL     1     -20.629  -7.377  -6.462  1.00  0.00    -0.265 OA
BRANCH  18  20
HETATM   20  O   UNL     1     -21.578  -5.472  -5.610  1.00  0.00    -0.321 OA
BRANCH  20  21
HETATM   21  C   UNL     1     -22.555  -5.226  -6.631  1.00  0.00     0.183 C 
BRANCH  21  22
HETATM   22  C   UNL     1     -22.080  -4.180  -7.652  1.00  0.00     0.010 C 
BRANCH  22  23
HETATM   23  C   UNL     1     -20.686  -3.604  -7.299  1.00  0.00     0.002 C 
HETATM   24  C   UNL     1     -19.520  -4.236  -8.044  1.00  0.00     0.005 C 
ENDBRANCH  22  23
BRANCH  22  25
HETATM   25  C   UNL     1     -22.080  -4.788  -9.074  1.00  0.00     0.007 C 
BRANCH  25  26
HETATM   26  C   UNL     1     -22.904  -3.967 -10.070  1.00  0.00     0.000 C 
BRANCH  26  27
HETATM   27  C   UNL     1     -22.055  -3.405 -11.205  1.00  0.00    -0.005 C 
HETATM   28  C   UNL     1     -22.918  -2.579 -12.147  1.00  0.00     0.005 C 
ENDBRANCH  26  27
ENDBRANCH  25  26
ENDBRANCH  22  25
ENDBRANCH  21  22
ENDBRANCH  20  21
ENDBRANCH  18  20
ENDBRANCH  17  18
ENDBRANCH  16  17
ENDBRANCH  15  16
ENDBRANCH   1  15
TORSDOF 23
ENDMDL
MODEL 9
REMARK VINA RESULT:      -5.9      2.050      4.427
REMARK  23 active torsions:
REMARK  status: ('A' for Active; 'I' for Inactive)
REMARK    1  A    between atoms: C_2  and  C_3 
REMARK    2  A    between atoms: C_3  and  C_4 
REMARK    3  A    between atoms: C_4  and  C_5 
REMARK    4  A    between atoms: C_5  and  C_6 
REMARK    5  A    between atoms: C_6  and  C_7 
REMARK    6  A    between atoms: C_7  and  C_8 
REMARK    7  A    between atoms: C_8  and  C_9 
REMARK    8  A    between atoms: C_9  and  C_10 
REMARK    9  A    between atoms: C_10  and  C_11 
REMARK   10  A    between atoms: C_11  and  C_12 
REMARK   11  A    between atoms: C_12  and  C_13 
REMARK   12  A    between atoms: C_13  and  C_14 
REMARK   13  A    between atoms: C_14  and  C_15 
REMARK   14  A    between atoms: C_15  and  C_16 
REMARK   15  A    between atoms: C_16  and  C_17 
REMARK   16  A    between atoms: C_17  and  C_18 
REMARK   17  A    between atoms: C_18  and  O_20 
REMARK   18  A    between atoms: O_20  and  C_21 
REMARK   19  A    between atoms: C_21  and  C_22 
REMARK   20  A    between atoms: C_22  and  C_23 
REMARK   21  A    between atoms: C_22  and  C_25 
REMARK   22  A    between atoms: C_25  and  C_26 
REMARK   23  A    between atoms: C_26  and  C_27 
ROOT
HETATM    1  C   UNL     1     -21.561  -8.351  -3.444  1.00  0.00     0.000 C 
ENDROOT
BRANCH   1   2
HETATM    2  C   UNL     1     -21.733  -7.962  -4.905  1.00  0.00     0.000 C 
BRANCH   2   3
HETATM    3  C   UNL     1     -22.078  -6.485  -5.022  1.00  0.00     0.000 C 
BRANCH   3   4
HETATM    4  C   UNL     1     -20.808  -5.652  -5.027  1.00  0.00     0.000 C 
BRANCH   4   5
HETATM    5  C   UNL     1     -20.026  -5.896  -6.306  1.00  0.00     0.000 C 
BRANCH   5   6
HETATM    6  C   UNL     1     -19.746  -4.576  -7.002  1.00  0.00     0.000 C 
BRANCH   6   7
HETATM    7  C   UNL     1     -21.050  -3.909  -7.399  1.00  0.00     0.000 C 
BRANCH   7   8
HETATM    8  C   UNL     1     -21.590  -4.536  -8.672  1.00  0.00     0.000 C 
BRANCH   8   9
HETATM    9  C   UNL     1     -20.599  -4.342  -9.806  1.00  0.00     0.000 C 
BRANCH   9  10
HETATM   10  C   UNL     1     -21.306  -4.460 -11.147  1.00  0.00     0.000 C 
BRANCH  10  11
HETATM   11  C   UNL     1     -22.810  -4.569 -10.943  1.00  0.00     0.000 C 
BRANCH  11  12
HETATM   12  C   UNL     1     -23.525  -3.463 -11.706  1.00  0.00    -0.000 C 
BRANCH  12  13
HETATM   13  C   UNL     1     -22.569  -2.759 -12.658  1.00  0.00    -0.005 C 
HETATM   14  C   UNL     1     -23.104  -2.794 -14.077  1.00  0.00     0.005 C 
ENDBRANCH  12  13
ENDBRANCH  11  12
ENDBRANCH  10  11
ENDBRANCH   9  10
ENDBRANCH   8   9
ENDBRANCH   7   8
ENDBRANCH   6   7
ENDBRANCH   5   6
ENDBRANCH   4   5
ENDBRANCH   3   4
ENDBRANCH   2   3
ENDBRANCH   1   2
BRANCH   1  15
HETATM   15  C   UNL     1     -21.078  -9.794  -3.321  1.00  0.00     0.000 C 
BRANCH  15  16
HETATM   16  C   UNL     1     -21.763 -10.659  -4.371  1.00  0.00     0.010 C 
BRANCH  16  17
HETATM   17  C   UNL     1     -22.505 -11.847  -3.768  1.00  0.00     0.111 C 
BRANCH  17  18
HETATM   18  C   UNL     1     -21.511 -12.787  -3.110  1.00  0.00     0.258 C 
HETATM   19  O   UNL     1     -20.574 -13.321  -3.663  1.00  0.00    -0.265 OA
BRANCH  18  20
HETATM   20  O   UNL     1     -21.886 -12.999  -1.811  1.00  0.00    -0.321 OA
BRANCH  20  21
HETATM   21  C   UNL     1     -23.285 -12.781  -1.580  1.00  0.00     0.183 C 
BRANCH  21  22
HETATM   22  C   UNL     1     -23.555 -12.130  -0.214  1.00  0.00     0.010 C 
BRANCH  22  23
HETATM   23  C   UNL     1     -22.669 -12.726   0.907  1.00  0.00     0.002 C 
HETATM   24  C   UNL     1     -23.381 -13.680   1.854  1.00  0.00     0.005 C 
ENDBRANCH  22  23
BRANCH  22  25
HETATM   25  C   UNL     1     -23.367 -10.598  -0.310  1.00  0.00     0.007 C 
BRANCH  25  26
HETATM   26  C   UNL     1     -22.041 -10.125   0.293  1.00  0.00     0.000 C 
BRANCH  26  27
HETATM   27  C   UNL     1     -21.854  -8.616   0.177  1.00  0.00    -0.005 C 
HETATM   28  C   UNL     1     -23.140  -7.897   0.557  1.00  0.00     0.005 C 
ENDBRANCH  26  27
ENDBRANCH  25  26
ENDBRANCH  22  25
ENDBRANCH  21  22
ENDBRANCH  20  21
ENDBRANCH  18  20
ENDBRANCH  17  18
ENDBRANCH  16  17
ENDBRANCH  15  16
ENDBRANCH   1  15
TORSDOF 23
ENDMDL
