MODEL 1
REMARK VINA RESULT:      -6.3      0.000      0.000
REMARK WARNING: 32 MAX_TORS EXCEEDED!!!
REMARK  47 active torsions:
REMARK  status: ('A' for Active; 'I' for Inactive)
REMARK    1  A    between atoms: C_2  and  C_3 
REMARK    2  A    between atoms: C_3  and  C_4 
REMARK    3  A    between atoms: C_4  and  C_5 
REMARK    4  A    between atoms: C_5  and  C_6 
REMARK    5  A    between atoms: C_6  and  C_7 
REMARK    6  A    between atoms: C_7  and  C_8 
REMARK    7  A    between atoms: C_8  and  C_9 
REMARK    8  A    between atoms: C_9  and  C_10 
REMARK    9  A    between atoms: C_9  and  C_16 
REMARK   10  A    between atoms: C_10  and  C_11 
REMARK   11  A    between atoms: C_11  and  C_12 
REMARK   12  A    between atoms: C_12  and  C_13 
REMARK   13  A    between atoms: C_13  and  C_14 
REMARK   14  A    between atoms: C_16  and  O_18 
REMARK   15  A    between atoms: O_18  and  C_19 
REMARK   16  A    between atoms: C_19  and  C_20 
REMARK   17  A    between atoms: C_25  and  O_46 
REMARK   18  A    between atoms: C_26  and  C_27 
REMARK   19  A    between atoms: C_27  and  O_28 
REMARK   20  A    between atoms: O_28  and  C_29 
REMARK   21  A    between atoms: C_29  and  C_31 
REMARK   22  A    between atoms: C_31  and  C_32 
REMARK   23  A    between atoms: C_31  and  C_38 
REMARK   24  A    between atoms: C_32  and  C_33 
REMARK   25  A    between atoms: C_33  and  C_34 
REMARK   26  A    between atoms: C_34  and  C_35 
REMARK   27  A    between atoms: C_35  and  C_36 
REMARK   28  A    between atoms: C_38  and  C_39 
REMARK   29  A    between atoms: C_39  and  C_40 
REMARK   30  A    between atoms: C_40  and  C_41 
REMARK   31  A    between atoms: C_41  and  C_42 
REMARK   32  A    between atoms: C_42  and  C_43 
REMARK   33  A    between atoms: C_43  and  C_44 
REMARK   34  A    between atoms: O_46  and  C_47 
REMARK   35  A    between atoms: C_47  and  C_49 
REMARK   36  A    between atoms: C_49  and  C_50 
REMARK   37  A    between atoms: C_49  and  C_56 
REMARK   38  A    between atoms: C_50  and  C_51 
REMARK   39  A    between atoms: C_51  and  C_52 
REMARK   40  A    between atoms: C_52  and  C_53 
REMARK   41  A    between atoms: C_53  and  C_54 
REMARK   42  A    between atoms: C_56  and  C_57 
REMARK   43  A    between atoms: C_57  and  C_58 
REMARK   44  A    between atoms: C_58  and  C_59 
REMARK   45  A    between atoms: C_59  and  C_60 
REMARK   46  A    between atoms: C_60  and  C_61 
REMARK   47  A    between atoms: C_61  and  C_62 
ROOT
HETATM    1  C   UNL     1     -21.323  -7.333  -3.173  1.00  0.00    -0.007 A 
HETATM    2  C   UNL     1     -21.854  -6.393  -2.301  1.00  0.00     0.098 A 
HETATM    3  N   UNL     1     -22.330  -6.686  -1.088  1.00  0.00    -0.367 N 
ATOM      4  HN  UNL     1     -22.711  -5.953  -0.490  1.00  0.00     0.165 HD
HETATM    5  C   UNL     1     -22.300  -7.974  -0.662  1.00  0.00     0.040 A 
HETATM    6  C   UNL     1     -21.760  -9.011  -1.445  1.00  0.00     0.110 A 
HETATM    7  C   UNL     1     -21.240  -8.680  -2.739  1.00  0.00     0.012 A 
HETATM    8  C   UNL     1     -22.886  -8.080   0.708  1.00  0.00     0.071 C 
ENDROOT
BRANCH   1   9
HETATM    9  C   UNL     1     -20.798  -6.787  -4.479  1.00  0.00     0.219 C 
BRANCH   9  10
HETATM   10  O   UNL     1     -21.474  -5.548  -4.698  1.00  0.00    -0.317 OA
BRANCH  10  11
HETATM   11  C   UNL     1     -22.520  -5.621  -5.566  1.00  0.00     0.263 C 
HETATM   12  O   UNL     1     -23.610  -6.125  -5.314  1.00  0.00    -0.265 OA
BRANCH  11  13
HETATM   13  C   UNL     1     -22.108  -5.050  -6.910  1.00  0.00     0.085 C 
BRANCH  13  14
HETATM   14  C   UNL     1     -23.379  -4.451  -7.543  1.00  0.00     0.014 C 
BRANCH  14  15
HETATM   15  C   UNL     1     -23.218  -3.686  -8.855  1.00  0.00     0.001 C 
BRANCH  15  16
HETATM   16  C   UNL     1     -24.323  -3.922  -9.881  1.00  0.00     0.000 C 
BRANCH  16  17
HETATM   17  C   UNL     1     -23.836  -4.946 -10.906  1.00  0.00     0.000 C 
BRANCH  17  18
HETATM   18  C   UNL     1     -23.685  -4.332 -12.290  1.00  0.00     0.000 C 
BRANCH  18  19
HETATM   19  C   UNL     1     -24.420  -2.996 -12.371  1.00  0.00    -0.000 C 
BRANCH  19  20
HETATM   20  C   UNL     1     -23.900  -2.174 -13.545  1.00  0.00    -0.005 C 
HETATM   21  C   UNL     1     -22.828  -2.923 -14.317  1.00  0.00     0.005 C 
ENDBRANCH  19  20
ENDBRANCH  18  19
ENDBRANCH  17  18
ENDBRANCH  16  17
ENDBRANCH  15  16
ENDBRANCH  14  15
ENDBRANCH  13  14
BRANCH  13  22
HETATM   22  C   UNL     1     -20.956  -4.058  -6.696  1.00  0.00     0.014 C 
BRANCH  22  23
HETATM   23  C   UNL     1     -19.660  -4.422  -7.451  1.00  0.00     0.001 C 
BRANCH  23  24
HETATM   24  C   UNL     1     -19.541  -3.867  -8.877  1.00  0.00     0.000 C 
BRANCH  24  25
HETATM   25  C   UNL     1     -20.000  -4.875  -9.925  1.00  0.00    -0.000 C 
BRANCH  25  26
HETATM   26  C   UNL     1     -20.304  -4.219 -11.268  1.00  0.00    -0.005 C 
HETATM   27  C   UNL     1     -20.546  -2.729 -11.084  1.00  0.00     0.005 C 
ENDBRANCH  25  26
ENDBRANCH  24  25
ENDBRANCH  23  24
ENDBRANCH  22  23
ENDBRANCH  13  22
ENDBRANCH  11  13
ENDBRANCH  10  11
ENDBRANCH   9  10
ENDBRANCH   1   9
BRANCH   7  28
HETATM   28  C   UNL     1     -20.546  -9.697  -3.623  1.00  0.00     0.221 C 
BRANCH  28  29
HETATM   29  O   UNL     1     -19.112  -9.577  -3.579  1.00  0.00    -0.316 OA
BRANCH  29  30
HETATM   30  C   UNL     1     -18.439  -9.829  -4.728  1.00  0.00     0.263 C 
HETATM   31  O   UNL     1     -18.766  -9.413  -5.830  1.00  0.00    -0.265 OA
BRANCH  30  32
HETATM   32  C   UNL     1     -17.213 -10.689  -4.448  1.00  0.00     0.085 C 
BRANCH  32  33
HETATM   33  C   UNL     1     -16.794 -11.502  -5.688  1.00  0.00     0.014 C 
BRANCH  33  34
HETATM   34  C   UNL     1     -15.742 -12.583  -5.430  1.00  0.00     0.001 C 
BRANCH  34  35
HETATM   35  C   UNL     1     -16.359 -13.869  -4.867  1.00  0.00     0.000 C 
BRANCH  35  36
HETATM   36  C   UNL     1     -15.308 -14.667  -4.092  1.00  0.00    -0.000 C 
BRANCH  36  37
HETATM   37  C   UNL     1     -14.486 -13.785  -3.154  1.00  0.00    -0.005 C 
HETATM   38  C   UNL     1     -12.999 -13.910  -3.446  1.00  0.00     0.005 C 
ENDBRANCH  36  37
ENDBRANCH  35  36
ENDBRANCH  34  35
ENDBRANCH  33  34
ENDBRANCH  32  33
BRANCH  32  39
HETATM   39  C   UNL     1     -16.077  -9.830  -3.873  1.00  0.00     0.014 C 
BRANCH  39  40
HETATM   40  C   UNL     1     -15.692 -10.292  -2.462  1.00  0.00     0.001 C 
BRANCH  40  41
HETATM   41  C   UNL     1     -16.631 -11.386  -1.973  1.00  0.00     0.000 C 
BRANCH  41  42
HETATM   42  C   UNL     1     -16.563 -11.541  -0.456  1.00  0.00     0.000 C 
BRANCH  42  43
HETATM   43  C   UNL     1     -16.419 -13.015  -0.087  1.00  0.00     0.000 C 
BRANCH  43  44
HETATM   44  C   UNL     1     -16.732 -13.256   1.385  1.00  0.00    -0.000 C 
BRANCH  44  45
HETATM   45  C   UNL     1     -16.320 -14.665   1.804  1.00  0.00    -0.005 C 
HETATM   46  C   UNL     1     -15.534 -14.637   3.103  1.00  0.00     0.005 C 
ENDBRANCH  44  45
ENDBRANCH  43  44
ENDBRANCH  42  43
ENDBRANCH  41  42
ENDBRANCH  40  41
ENDBRANCH  39  40
ENDBRANCH  32  39
ENDBRANCH  30  32
ENDBRANCH  29  30
ENDBRANCH  28  29
ENDBRANCH   7  28
BRANCH   6  47
HETATM   47  O   UNL     1     -21.605 -10.385  -1.005  1.00  0.00    -0.276 OA
BRANCH  47  48
HETATM   48  C   UNL     1     -20.675 -10.857  -0.065  1.00  0.00     0.268 C 
HETATM   49  O   UNL     1     -20.353 -10.308   0.970  1.00  0.00    -0.264 OA
BRANCH  48  50
HETATM   50  C   UNL     1     -20.103 -12.247  -0.377  1.00  0.00     0.086 C 
BRANCH  50  51
HETATM   51  C   UNL     1     -20.728 -13.356   0.495  1.00  0.00     0.014 C 
BRANCH  51  52
HETATM   52  C   UNL     1     -22.045 -12.879   1.129  1.00  0.00     0.001 C 
BRANCH  52  53
HETATM   53  C   UNL     1     -23.272 -13.717   0.785  1.00  0.00     0.000 C 
BRANCH  53  54
HETATM   54  C   UNL     1     -23.850 -13.218  -0.548  1.00  0.00    -0.000 C 
BRANCH  54  55
HETATM   55  C   UNL     1     -24.303 -14.355  -1.455  1.00  0.00    -0.005 C 
HETATM   56  C   UNL     1     -23.104 -15.115  -2.004  1.00  0.00     0.005 C 
ENDBRANCH  54  55
ENDBRANCH  53  54
ENDBRANCH  52  53
ENDBRANCH  51  52
ENDBRANCH  50  51
BRANCH  50  57
HETATM   57  C   UNL     1     -20.411 -12.508  -1.886  1.00  0.00     0.014 C 
BRANCH  57  58
HETATM   58  C   UNL     1     -19.407 -13.443  -2.570  1.00  0.00     0.001 C 
BRANCH  58  59
HETATM   59  C   UNL     1     -19.973 -14.073  -3.838  1.00  0.00     0.000 C 
BRANCH  59  60
HETATM   60  C   UNL     1     -20.229 -13.011  -4.898  1.00  0.00     0.000 C 
BRANCH  60  61
HETATM   61  C   UNL     1     -20.407 -13.628  -6.269  1.00  0.00     0.000 C 
BRANCH  61  62
HETATM   62  C   UNL     1     -20.293 -12.532  -7.320  1.00  0.00    -0.000 C 
BRANCH  62  63
HETATM   63  C   UNL     1     -19.052 -12.743  -8.166  1.00  0.00    -0.005 C 
HETATM   64  C   UNL     1     -18.609 -14.191  -8.127  1.00  0.00     0.005 C 
ENDBRANCH  62  63
ENDBRANCH  61  62
ENDBRANCH  60  61
ENDBRANCH  59  60
ENDBRANCH  58  59
ENDBRANCH  57  58
ENDBRANCH  50  57
ENDBRANCH  48  50
ENDBRANCH  47  48
ENDBRANCH   6  47
TORSDOF 47
ENDMDL
MODEL 2
REMARK VINA RESULT:      -6.2      2.731     11.124
REMARK WARNING: 32 MAX_TORS EXCEEDED!!!
REMARK  47 active torsions:
REMARK  status: ('A' for Active; 'I' for Inactive)
REMARK    1  A    between atoms: C_2  and  C_3 
REMARK    2  A    between atoms: C_3  and  C_4 
REMARK    3  A    between atoms: C_4  and  C_5 
REMARK    4  A    between atoms: C_5  and  C_6 
REMARK    5  A    between atoms: C_6  and  C_7 
REMARK    6  A    between atoms: C_7  and  C_8 
REMARK    7  A    between atoms: C_8  and  C_9 
REMARK    8  A    between atoms: C_9  and  C_10 
REMARK    9  A    between atoms: C_9  and  C_16 
REMARK   10  A    between atoms: C_10  and  C_11 
REMARK   11  A    between atoms: C_11  and  C_12 
REMARK   12  A    between atoms: C_12  and  C_13 
REMARK   13  A    between atoms: C_13  and  C_14 
REMARK   14  A    between atoms: C_16  and  O_18 
REMARK   15  A    between atoms: O_18  and  C_19 
REMARK   16  A    between atoms: C_19  and  C_20 
REMARK   17  A    between atoms: C_25  and  O_46 
REMARK   18  A    between atoms: C_26  and  C_27 
REMARK   19  A    between atoms: C_27  and  O_28 
REMARK   20  A    between atoms: O_28  and  C_29 
REMARK   21  A    between atoms: C_29  and  C_31 
REMARK   22  A    between atoms: C_31  and  C_32 
REMARK   23  A    between atoms: C_31  and  C_38 
REMARK   24  A    between atoms: C_32  and  C_33 
REMARK   25  A    between atoms: C_33  and  C_34 
REMARK   26  A    between atoms: C_34  and  C_35 
REMARK   27  A    between atoms: C_35  and  C_36 
REMARK   28  A    between atoms: C_38  and  C_39 
REMARK   29  A    between atoms: C_39  and  C_40 
REMARK   30  A    between atoms: C_40  and  C_41 
REMARK   31  A    between atoms: C_41  and  C_42 
REMARK   32  A    between atoms: C_42  and  C_43 
REMARK   33  A    between atoms: C_43  and  C_44 
REMARK   34  A    between atoms: O_46  and  C_47 
REMARK   35  A    between atoms: C_47  and  C_49 
REMARK   36  A    between atoms: C_49  and  C_50 
REMARK   37  A    between atoms: C_49  and  C_56 
REMARK   38  A    between atoms: C_50  and  C_51 
REMARK   39  A    between atoms: C_51  and  C_52 
REMARK   40  A    between atoms: C_52  and  C_53 
REMARK   41  A    between atoms: C_53  and  C_54 
REMARK   42  A    between atoms: C_56  and  C_57 
REMARK   43  A    between atoms: C_57  and  C_58 
REMARK   44  A    between atoms: C_58  and  C_59 
REMARK   45  A    between atoms: C_59  and  C_60 
REMARK   46  A    between atoms: C_60  and  C_61 
REMARK   47  A    between atoms: C_61  and  C_62 
ROOT
HETATM    1  C   UNL     1     -17.458 -11.444  -1.851  1.00  0.00    -0.007 A 
HETATM    2  C   UNL     1     -18.465 -12.373  -1.624  1.00  0.00     0.098 A 
HETATM    3  N   UNL     1     -19.735 -12.202  -1.999  1.00  0.00    -0.367 N 
ATOM      4  HN  UNL     1     -20.433 -12.920  -1.804  1.00  0.00     0.165 HD
HETATM    5  C   UNL     1     -20.083 -11.061  -2.645  1.00  0.00     0.040 A 
HETATM    6  C   UNL     1     -19.147 -10.058  -2.955  1.00  0.00     0.110 A 
HETATM    7  C   UNL     1     -17.785 -10.260  -2.559  1.00  0.00     0.012 A 
HETATM    8  C   UNL     1     -21.543 -11.071  -2.963  1.00  0.00     0.071 C 
ENDROOT
BRANCH   1   9
HETATM    9  C   UNL     1     -16.080 -11.849  -1.387  1.00  0.00     0.219 C 
BRANCH   9  10
HETATM   10  O   UNL     1     -16.266 -12.927  -0.467  1.00  0.00    -0.317 OA
BRANCH  10  11
HETATM   11  C   UNL     1     -15.748 -12.708   0.772  1.00  0.00     0.263 C 
HETATM   12  O   UNL     1     -15.870 -11.667   1.412  1.00  0.00    -0.265 OA
BRANCH  11  13
HETATM   13  C   UNL     1     -14.938 -13.915   1.208  1.00  0.00     0.085 C 
BRANCH  13  14
HETATM   14  C   UNL     1     -13.456 -13.555   0.986  1.00  0.00     0.014 C 
BRANCH  14  15
HETATM   15  C   UNL     1     -12.432 -14.679   1.119  1.00  0.00     0.001 C 
BRANCH  15  16
HETATM   16  C   UNL     1     -11.169 -14.508   0.280  1.00  0.00     0.000 C 
BRANCH  16  17
HETATM   17  C   UNL     1     -10.158 -13.678   1.069  1.00  0.00     0.000 C 
BRANCH  17  18
HETATM   18  C   UNL     1      -8.771 -14.302   1.044  1.00  0.00     0.000 C 
BRANCH  18  19
HETATM   19  C   UNL     1      -8.247 -14.512   2.463  1.00  0.00    -0.000 C 
BRANCH  19  20
HETATM   20  C   UNL     1      -9.392 -14.438   3.468  1.00  0.00    -0.005 C 
HETATM   21  C   UNL     1      -8.995 -13.658   4.708  1.00  0.00     0.005 C 
ENDBRANCH  19  20
ENDBRANCH  18  19
ENDBRANCH  17  18
ENDBRANCH  16  17
ENDBRANCH  15  16
ENDBRANCH  14  15
ENDBRANCH  13  14
BRANCH  13  22
HETATM   22  C   UNL     1     -15.315 -14.269   2.653  1.00  0.00     0.014 C 
BRANCH  22  23
HETATM   23  C   UNL     1     -16.166 -15.549   2.789  1.00  0.00     0.001 C 
BRANCH  23  24
HETATM   24  C   UNL     1     -17.542 -15.509   2.109  1.00  0.00     0.000 C 
BRANCH  24  25
HETATM   25  C   UNL     1     -17.574 -16.340   0.831  1.00  0.00    -0.000 C 
BRANCH  25  26
HETATM   26  C   UNL     1     -18.475 -15.728  -0.237  1.00  0.00    -0.005 C 
HETATM   27  C   UNL     1     -18.328 -16.486  -1.547  1.00  0.00     0.005 C 
ENDBRANCH  25  26
ENDBRANCH  24  25
ENDBRANCH  23  24
ENDBRANCH  22  23
ENDBRANCH  13  22
ENDBRANCH  11  13
ENDBRANCH  10  11
ENDBRANCH   9  10
ENDBRANCH   1   9
BRANCH   7  28
HETATM   28  C   UNL     1     -16.676  -9.294  -2.930  1.00  0.00     0.221 C 
BRANCH  28  29
HETATM   29  O   UNL     1     -15.625  -9.927  -3.684  1.00  0.00    -0.316 OA
BRANCH  29  30
HETATM   30  C   UNL     1     -15.936 -10.356  -4.931  1.00  0.00     0.263 C 
HETATM   31  O   UNL     1     -16.421  -9.653  -5.807  1.00  0.00    -0.265 OA
BRANCH  30  32
HETATM   32  C   UNL     1     -15.585 -11.829  -5.089  1.00  0.00     0.085 C 
BRANCH  32  33
HETATM   33  C   UNL     1     -16.412 -12.494  -6.206  1.00  0.00     0.014 C 
BRANCH  33  34
HETATM   34  C   UNL     1     -17.377 -13.586  -5.736  1.00  0.00     0.001 C 
BRANCH  34  35
HETATM   35  C   UNL     1     -18.784 -13.038  -5.472  1.00  0.00     0.000 C 
BRANCH  35  36
HETATM   36  C   UNL     1     -19.763 -13.554  -6.530  1.00  0.00    -0.000 C 
BRANCH  36  37
HETATM   37  C   UNL     1     -19.791 -12.667  -7.774  1.00  0.00    -0.005 C 
HETATM   38  C   UNL     1     -19.132 -13.359  -8.956  1.00  0.00     0.005 C 
ENDBRANCH  36  37
ENDBRANCH  35  36
ENDBRANCH  34  35
ENDBRANCH  33  34
ENDBRANCH  32  33
BRANCH  32  39
HETATM   39  C   UNL     1     -14.069 -12.000  -5.273  1.00  0.00     0.014 C 
BRANCH  39  40
HETATM   40  C   UNL     1     -13.750 -12.759  -6.568  1.00  0.00     0.001 C 
BRANCH  40  41
HETATM   41  C   UNL     1     -13.005 -14.052  -6.269  1.00  0.00     0.000 C 
BRANCH  41  42
HETATM   42  C   UNL     1     -13.908 -15.068  -5.575  1.00  0.00     0.000 C 
BRANCH  42  43
HETATM   43  C   UNL     1     -13.113 -15.846  -4.530  1.00  0.00     0.000 C 
BRANCH  43  44
HETATM   44  C   UNL     1     -12.721 -14.961  -3.352  1.00  0.00    -0.000 C 
BRANCH  44  45
HETATM   45  C   UNL     1     -13.950 -14.565  -2.539  1.00  0.00    -0.005 C 
HETATM   46  C   UNL     1     -14.615 -15.787  -1.930  1.00  0.00     0.005 C 
ENDBRANCH  44  45
ENDBRANCH  43  44
ENDBRANCH  42  43
ENDBRANCH  41  42
ENDBRANCH  40  41
ENDBRANCH  39  40
ENDBRANCH  32  39
ENDBRANCH  30  32
ENDBRANCH  29  30
ENDBRANCH  28  29
ENDBRANCH   7  28
BRANCH   6  47
HETATM   47  O   UNL     1     -19.437  -8.867  -3.732  1.00  0.00    -0.276 OA
BRANCH  47  48
HETATM   48  C   UNL     1     -19.929  -8.831  -5.047  1.00  0.00     0.268 C 
HETATM   49  O   UNL     1     -19.662  -9.613  -5.938  1.00  0.00    -0.264 OA
BRANCH  48  50
HETATM   50  C   UNL     1     -20.968  -7.733  -5.309  1.00  0.00     0.086 C 
BRANCH  50  51
HETATM   51  C   UNL     1     -21.982  -7.587  -4.155  1.00  0.00     0.014 C 
BRANCH  51  52
HETATM   52  C   UNL     1     -21.727  -6.296  -3.359  1.00  0.00     0.001 C 
BRANCH  52  53
HETATM   53  C   UNL     1     -22.112  -6.356  -1.885  1.00  0.00     0.000 C 
BRANCH  53  54
HETATM   54  C   UNL     1     -21.550  -7.652  -1.282  1.00  0.00    -0.000 C 
BRANCH  54  55
HETATM   55  C   UNL     1     -21.842  -7.782   0.208  1.00  0.00    -0.005 C 
HETATM   56  C   UNL     1     -23.278  -8.230   0.438  1.00  0.00     0.005 C 
ENDBRANCH  54  55
ENDBRANCH  53  54
ENDBRANCH  52  53
ENDBRANCH  51  52
ENDBRANCH  50  51
BRANCH  50  57
HETATM   57  C   UNL     1     -20.158  -6.409  -5.485  1.00  0.00     0.014 C 
BRANCH  57  58
HETATM   58  C   UNL     1     -20.302  -5.776  -6.874  1.00  0.00     0.001 C 
BRANCH  58  59
HETATM   59  C   UNL     1     -20.513  -4.268  -6.804  1.00  0.00     0.000 C 
BRANCH  59  60
HETATM   60  C   UNL     1     -21.672  -3.844  -7.696  1.00  0.00     0.000 C 
BRANCH  60  61
HETATM   61  C   UNL     1     -21.780  -4.728  -8.921  1.00  0.00     0.000 C 
BRANCH  61  62
HETATM   62  C   UNL     1     -20.891  -4.159 -10.018  1.00  0.00    -0.000 C 
BRANCH  62  63
HETATM   63  C   UNL     1     -21.712  -3.319 -10.977  1.00  0.00    -0.005 C 
HETATM   64  C   UNL     1     -22.572  -4.195 -11.865  1.00  0.00     0.005 C 
ENDBRANCH  62  63
ENDBRANCH  61  62
ENDBRANCH  60  61
ENDBRANCH  59  60
ENDBRANCH  58  59
ENDBRANCH  57  58
ENDBRANCH  50  57
ENDBRANCH  48  50
ENDBRANCH  47  48
ENDBRANCH   6  47
TORSDOF 47
ENDMDL
MODEL 3
REMARK VINA RESULT:      -6.2      2.905     11.634
REMARK WARNING: 32 MAX_TORS EXCEEDED!!!
REMARK  47 active torsions:
REMARK  status: ('A' for Active; 'I' for Inactive)
REMARK    1  A    between atoms: C_2  and  C_3 
REMARK    2  A    between atoms: C_3  and  C_4 
REMARK    3  A    between atoms: C_4  and  C_5 
REMARK    4  A    between atoms: C_5  and  C_6 
REMARK    5  A    between atoms: C_6  and  C_7 
REMARK    6  A    between atoms: C_7  and  C_8 
REMARK    7  A    between atoms: C_8  and  C_9 
REMARK    8  A    between atoms: C_9  and  C_10 
REMARK    9  A    between atoms: C_9  and  C_16 
REMARK   10  A    between atoms: C_10  and  C_11 
REMARK   11  A    between atoms: C_11  and  C_12 
REMARK   12  A    between atoms: C_12  and  C_13 
REMARK   13  A    between atoms: C_13  and  C_14 
REMARK   14  A    between atoms: C_16  and  O_18 
REMARK   15  A    between atoms: O_18  and  C_19 
REMARK   16  A    between atoms: C_19  and  C_20 
REMARK   17  A    between atoms: C_25  and  O_46 
REMARK   18  A    between atoms: C_26  and  C_27 
REMARK   19  A    between atoms: C_27  and  O_28 
REMARK   20  A    between atoms: O_28  and  C_29 
REMARK   21  A    between atoms: C_29  and  C_31 
REMARK   22  A    between atoms: C_31  and  C_32 
REMARK   23  A    between atoms: C_31  and  C_38 
REMARK   24  A    between atoms: C_32  and  C_33 
REMARK   25  A    between atoms: C_33  and  C_34 
REMARK   26  A    between atoms: C_34  and  C_35 
REMARK   27  A    between atoms: C_35  and  C_36 
REMARK   28  A    between atoms: C_38  and  C_39 
REMARK   29  A    between atoms: C_39  and  C_40 
REMARK   30  A    between atoms: C_40  and  C_41 
REMARK   31  A    between atoms: C_41  and  C_42 
REMARK   32  A    between atoms: C_42  and  C_43 
REMARK   33  A    between atoms: C_43  and  C_44 
REMARK   34  A    between atoms: O_46  and  C_47 
REMARK   35  A    between atoms: C_47  and  C_49 
REMARK   36  A    between atoms: C_49  and  C_50 
REMARK   37  A    between atoms: C_49  and  C_56 
REMARK   38  A    between atoms: C_50  and  C_51 
REMARK   39  A    between atoms: C_51  and  C_52 
REMARK   40  A    between atoms: C_52  and  C_53 
REMARK   41  A    between atoms: C_53  and  C_54 
REMARK   42  A    between atoms: C_56  and  C_57 
REMARK   43  A    between atoms: C_57  and  C_58 
REMARK   44  A    between atoms: C_58  and  C_59 
REMARK   45  A    between atoms: C_59  and  C_60 
REMARK   46  A    between atoms: C_60  and  C_61 
REMARK   47  A    between atoms: C_61  and  C_62 
ROOT
HETATM    1  C   UNL     1     -17.239 -11.464  -1.527  1.00  0.00    -0.007 A 
HETATM    2  C   UNL     1     -18.319 -12.194  -1.050  1.00  0.00     0.098 A 
HETATM    3  N   UNL     1     -19.588 -11.955  -1.387  1.00  0.00    -0.367 N 
ATOM      4  HN  UNL     1     -20.342 -12.525  -1.003  1.00  0.00     0.165 HD
HETATM    5  C   UNL     1     -19.862 -10.944  -2.249  1.00  0.00     0.040 A 
HETATM    6  C   UNL     1     -18.850 -10.150  -2.820  1.00  0.00     0.110 A 
HETATM    7  C   UNL     1     -17.491 -10.427  -2.461  1.00  0.00     0.012 A 
HETATM    8  C   UNL     1     -21.335 -10.845  -2.481  1.00  0.00     0.071 C 
ENDROOT
BRANCH   1   9
HETATM    9  C   UNL     1     -15.881 -11.925  -1.058  1.00  0.00     0.219 C 
BRANCH   9  10
HETATM   10  O   UNL     1     -16.112 -12.786   0.059  1.00  0.00    -0.317 OA
BRANCH  10  11
HETATM   11  C   UNL     1     -15.563 -14.026  -0.061  1.00  0.00     0.263 C 
HETATM   12  O   UNL     1     -15.781 -14.806  -0.984  1.00  0.00    -0.265 OA
BRANCH  11  13
HETATM   13  C   UNL     1     -14.701 -14.321   1.152  1.00  0.00     0.085 C 
BRANCH  13  14
HETATM   14  C   UNL     1     -13.350 -13.620   0.914  1.00  0.00     0.014 C 
BRANCH  14  15
HETATM   15  C   UNL     1     -12.089 -14.479   0.988  1.00  0.00     0.001 C 
BRANCH  15  16
HETATM   16  C   UNL     1     -10.780 -13.701   1.088  1.00  0.00     0.000 C 
BRANCH  16  17
HETATM   17  C   UNL     1      -9.612 -14.683   1.008  1.00  0.00     0.000 C 
BRANCH  17  18
HETATM   18  C   UNL     1      -8.551 -14.385   2.055  1.00  0.00     0.000 C 
BRANCH  18  19
HETATM   19  C   UNL     1      -9.156 -13.632   3.239  1.00  0.00    -0.000 C 
BRANCH  19  20
HETATM   20  C   UNL     1      -8.585 -14.159   4.550  1.00  0.00    -0.005 C 
HETATM   21  C   UNL     1      -9.109 -13.375   5.741  1.00  0.00     0.005 C 
ENDBRANCH  19  20
ENDBRANCH  18  19
ENDBRANCH  17  18
ENDBRANCH  16  17
ENDBRANCH  15  16
ENDBRANCH  14  15
ENDBRANCH  13  14
BRANCH  13  22
HETATM   22  C   UNL     1     -15.453 -13.878   2.415  1.00  0.00     0.014 C 
BRANCH  22  23
HETATM   23  C   UNL     1     -15.770 -15.025   3.397  1.00  0.00     0.001 C 
BRANCH  23  24
HETATM   24  C   UNL     1     -14.783 -15.199   4.560  1.00  0.00     0.000 C 
BRANCH  24  25
HETATM   25  C   UNL     1     -13.799 -16.337   4.312  1.00  0.00    -0.000 C 
BRANCH  25  26
HETATM   26  C   UNL     1     -12.397 -16.015   4.819  1.00  0.00    -0.005 C 
HETATM   27  C   UNL     1     -11.351 -16.608   3.888  1.00  0.00     0.005 C 
ENDBRANCH  25  26
ENDBRANCH  24  25
ENDBRANCH  23  24
ENDBRANCH  22  23
ENDBRANCH  13  22
ENDBRANCH  11  13
ENDBRANCH  10  11
ENDBRANCH   9  10
ENDBRANCH   1   9
BRANCH   7  28
HETATM   28  C   UNL     1     -16.317  -9.703  -3.092  1.00  0.00     0.221 C 
BRANCH  28  29
HETATM   29  O   UNL     1     -15.614 -10.522  -4.044  1.00  0.00    -0.316 OA
BRANCH  29  30
HETATM   30  C   UNL     1     -15.871 -10.298  -5.356  1.00  0.00     0.263 C 
HETATM   31  O   UNL     1     -16.465  -9.322  -5.790  1.00  0.00    -0.265 OA
BRANCH  30  32
HETATM   32  C   UNL     1     -15.303 -11.425  -6.208  1.00  0.00     0.085 C 
BRANCH  32  33
HETATM   33  C   UNL     1     -14.167 -12.170  -5.482  1.00  0.00     0.014 C 
BRANCH  33  34
HETATM   34  C   UNL     1     -13.456 -13.240  -6.314  1.00  0.00     0.001 C 
BRANCH  34  35
HETATM   35  C   UNL     1     -13.928 -14.655  -5.958  1.00  0.00     0.000 C 
BRANCH  35  36
HETATM   36  C   UNL     1     -12.956 -15.307  -4.971  1.00  0.00    -0.000 C 
BRANCH  36  37
HETATM   37  C   UNL     1     -13.472 -15.261  -3.534  1.00  0.00    -0.005 C 
HETATM   38  C   UNL     1     -12.698 -14.249  -2.705  1.00  0.00     0.005 C 
ENDBRANCH  36  37
ENDBRANCH  35  36
ENDBRANCH  34  35
ENDBRANCH  33  34
ENDBRANCH  32  33
BRANCH  32  39
HETATM   39  C   UNL     1     -16.429 -12.354  -6.686  1.00  0.00     0.014 C 
BRANCH  39  40
HETATM   40  C   UNL     1     -17.571 -12.411  -5.663  1.00  0.00     0.001 C 
BRANCH  40  41
HETATM   41  C   UNL     1     -17.473 -13.668  -4.809  1.00  0.00     0.000 C 
BRANCH  41  42
HETATM   42  C   UNL     1     -18.832 -14.059  -4.236  1.00  0.00     0.000 C 
BRANCH  42  43
HETATM   43  C   UNL     1     -19.948 -13.381  -5.027  1.00  0.00     0.000 C 
BRANCH  43  44
HETATM   44  C   UNL     1     -20.953 -14.396  -5.559  1.00  0.00    -0.000 C 
BRANCH  44  45
HETATM   45  C   UNL     1     -20.826 -14.544  -7.073  1.00  0.00    -0.005 C 
HETATM   46  C   UNL     1     -20.538 -13.204  -7.726  1.00  0.00     0.005 C 
ENDBRANCH  44  45
ENDBRANCH  43  44
ENDBRANCH  42  43
ENDBRANCH  41  42
ENDBRANCH  40  41
ENDBRANCH  39  40
ENDBRANCH  32  39
ENDBRANCH  30  32
ENDBRANCH  29  30
ENDBRANCH  28  29
ENDBRANCH   7  28
BRANCH   6  47
HETATM   47  O   UNL     1     -19.071  -9.125  -3.824  1.00  0.00    -0.276 OA
BRANCH  47  48
HETATM   48  C   UNL     1     -20.141  -9.065  -4.731  1.00  0.00     0.268 C 
HETATM   49  O   UNL     1     -20.347  -9.827  -5.655  1.00  0.00    -0.264 OA
BRANCH  48  50
HETATM   50  C   UNL     1     -21.171  -7.968  -4.429  1.00  0.00     0.086 C 
BRANCH  50  51
HETATM   51  C   UNL     1     -20.730  -7.040  -3.278  1.00  0.00     0.014 C 
BRANCH  51  52
HETATM   52  C   UNL     1     -21.930  -6.268  -2.705  1.00  0.00     0.001 C 
BRANCH  52  53
HETATM   53  C   UNL     1     -22.381  -6.708  -1.316  1.00  0.00     0.000 C 
BRANCH  53  54
HETATM   54  C   UNL     1     -21.307  -7.629  -0.719  1.00  0.00    -0.000 C 
BRANCH  54  55
HETATM   55  C   UNL     1     -21.802  -8.397   0.500  1.00  0.00    -0.005 C 
HETATM   56  C   UNL     1     -23.318  -8.538   0.467  1.00  0.00     0.005 C 
ENDBRANCH  54  55
ENDBRANCH  53  54
ENDBRANCH  52  53
ENDBRANCH  51  52
ENDBRANCH  50  51
BRANCH  50  57
HETATM   57  C   UNL     1     -21.325  -7.150  -5.752  1.00  0.00     0.014 C 
BRANCH  57  58
HETATM   58  C   UNL     1     -20.115  -6.269  -6.080  1.00  0.00     0.001 C 
BRANCH  58  59
HETATM   59  C   UNL     1     -20.523  -4.873  -6.539  1.00  0.00     0.000 C 
BRANCH  59  60
HETATM   60  C   UNL     1     -19.592  -4.373  -7.634  1.00  0.00     0.000 C 
BRANCH  60  61
HETATM   61  C   UNL     1     -20.213  -4.531  -9.005  1.00  0.00     0.000 C 
BRANCH  61  62
HETATM   62  C   UNL     1     -21.669  -4.088  -8.939  1.00  0.00    -0.000 C 
BRANCH  62  63
HETATM   63  C   UNL     1     -22.415  -4.550 -10.177  1.00  0.00    -0.005 C 
HETATM   64  C   UNL     1     -23.908  -4.602  -9.921  1.00  0.00     0.005 C 
ENDBRANCH  62  63
ENDBRANCH  61  62
ENDBRANCH  60  61
ENDBRANCH  59  60
ENDBRANCH  58  59
ENDBRANCH  57  58
ENDBRANCH  50  57
ENDBRANCH  48  50
ENDBRANCH  47  48
ENDBRANCH   6  47
TORSDOF 47
ENDMDL
MODEL 4
REMARK VINA RESULT:      -6.2      1.470      4.142
REMARK WARNING: 32 MAX_TORS EXCEEDED!!!
REMARK  47 active torsions:
REMARK  status: ('A' for Active; 'I' for Inactive)
REMARK    1  A    between atoms: C_2  and  C_3 
REMARK    2  A    between atoms: C_3  and  C_4 
REMARK    3  A    between atoms: C_4  and  C_5 
REMARK    4  A    between atoms: C_5  and  C_6 
REMARK    5  A    between atoms: C_6  and  C_7 
REMARK    6  A    between atoms: C_7  and  C_8 
REMARK    7  A    between atoms: C_8  and  C_9 
REMARK    8  A    between atoms: C_9  and  C_10 
REMARK    9  A    between atoms: C_9  and  C_16 
REMARK   10  A    between atoms: C_10  and  C_11 
REMARK   11  A    between atoms: C_11  and  C_12 
REMARK   12  A    between atoms: C_12  and  C_13 
REMARK   13  A    between atoms: C_13  and  C_14 
REMARK   14  A    between atoms: C_16  and  O_18 
REMARK   15  A    between atoms: O_18  and  C_19 
REMARK   16  A    between atoms: C_19  and  C_20 
REMARK   17  A    between atoms: C_25  and  O_46 
REMARK   18  A    between atoms: C_26  and  C_27 
REMARK   19  A    between atoms: C_27  and  O_28 
REMARK   20  A    between atoms: O_28  and  C_29 
REMARK   21  A    between atoms: C_29  and  C_31 
REMARK   22  A    between atoms: C_31  and  C_32 
REMARK   23  A    between atoms: C_31  and  C_38 
REMARK   24  A    between atoms: C_32  and  C_33 
REMARK   25  A    between atoms: C_33  and  C_34 
REMARK   26  A    between atoms: C_34  and  C_35 
REMARK   27  A    between atoms: C_35  and  C_36 
REMARK   28  A    between atoms: C_38  and  C_39 
REMARK   29  A    between atoms: C_39  and  C_40 
REMARK   30  A    between atoms: C_40  and  C_41 
REMARK   31  A    between atoms: C_41  and  C_42 
REMARK   32  A    between atoms: C_42  and  C_43 
REMARK   33  A    between atoms: C_43  and  C_44 
REMARK   34  A    between atoms: O_46  and  C_47 
REMARK   35  A    between atoms: C_47  and  C_49 
REMARK   36  A    between atoms: C_49  and  C_50 
REMARK   37  A    between atoms: C_49  and  C_56 
REMARK   38  A    between atoms: C_50  and  C_51 
REMARK   39  A    between atoms: C_51  and  C_52 
REMARK   40  A    between atoms: C_52  and  C_53 
REMARK   41  A    between atoms: C_53  and  C_54 
REMARK   42  A    between atoms: C_56  and  C_57 
REMARK   43  A    between atoms: C_57  and  C_58 
REMARK   44  A    between atoms: C_58  and  C_59 
REMARK   45  A    between atoms: C_59  and  C_60 
REMARK   46  A    between atoms: C_60  and  C_61 
REMARK   47  A    between atoms: C_61  and  C_62 
ROOT
HETATM    1  C   UNL     1     -21.240  -7.457  -3.024  1.00  0.00    -0.007 A 
HETATM    2  C   UNL     1     -21.838  -6.458  -2.268  1.00  0.00     0.098 A 
HETATM    3  N   UNL     1     -22.321  -6.643  -1.037  1.00  0.00    -0.367 N 
ATOM      4  HN  UNL     1     -22.752  -5.871  -0.529  1.00  0.00     0.165 HD
HETATM    5  C   UNL     1     -22.229  -7.872  -0.471  1.00  0.00     0.040 A 
HETATM    6  C   UNL     1     -21.619  -8.958  -1.127  1.00  0.00     0.110 A 
HETATM    7  C   UNL     1     -21.093  -8.742  -2.442  1.00  0.00     0.012 A 
HETATM    8  C   UNL     1     -22.834  -7.860   0.895  1.00  0.00     0.071 C 
ENDROOT
BRANCH   1   9
HETATM    9  C   UNL     1     -20.720  -7.030  -4.375  1.00  0.00     0.219 C 
BRANCH   9  10
HETATM   10  O   UNL     1     -21.288  -5.745  -4.637  1.00  0.00    -0.317 OA
BRANCH  10  11
HETATM   11  C   UNL     1     -22.335  -5.757  -5.506  1.00  0.00     0.263 C 
HETATM   12  O   UNL     1     -23.431  -6.264  -5.282  1.00  0.00    -0.265 OA
BRANCH  11  13
HETATM   13  C   UNL     1     -21.918  -5.115  -6.816  1.00  0.00     0.085 C 
BRANCH  13  14
HETATM   14  C   UNL     1     -23.161  -4.389  -7.366  1.00  0.00     0.014 C 
BRANCH  14  15
HETATM   15  C   UNL     1     -23.069  -3.807  -8.775  1.00  0.00     0.001 C 
BRANCH  15  16
HETATM   16  C   UNL     1     -23.917  -4.517  -9.826  1.00  0.00     0.000 C 
BRANCH  16  17
HETATM   17  C   UNL     1     -24.663  -3.470 -10.652  1.00  0.00     0.000 C 
BRANCH  17  18
HETATM   18  C   UNL     1     -23.774  -2.858 -11.724  1.00  0.00     0.000 C 
BRANCH  18  19
HETATM   19  C   UNL     1     -23.770  -3.725 -12.982  1.00  0.00    -0.000 C 
BRANCH  19  20
HETATM   20  C   UNL     1     -23.044  -3.011 -14.116  1.00  0.00    -0.005 C 
HETATM   21  C   UNL     1     -23.728  -1.705 -14.481  1.00  0.00     0.005 C 
ENDBRANCH  19  20
ENDBRANCH  18  19
ENDBRANCH  17  18
ENDBRANCH  16  17
ENDBRANCH  15  16
ENDBRANCH  14  15
ENDBRANCH  13  14
BRANCH  13  22
HETATM   22  C   UNL     1     -20.698  -4.219  -6.563  1.00  0.00     0.014 C 
BRANCH  22  23
HETATM   23  C   UNL     1     -19.498  -4.509  -7.489  1.00  0.00     0.001 C 
BRANCH  23  24
HETATM   24  C   UNL     1     -19.585  -3.909  -8.900  1.00  0.00     0.000 C 
BRANCH  24  25
HETATM   25  C   UNL     1     -19.941  -4.959  -9.947  1.00  0.00    -0.000 C 
BRANCH  25  26
HETATM   26  C   UNL     1     -20.441  -4.336 -11.247  1.00  0.00    -0.005 C 
HETATM   27  C   UNL     1     -20.389  -2.819 -11.158  1.00  0.00     0.005 C 
ENDBRANCH  25  26
ENDBRANCH  24  25
ENDBRANCH  23  24
ENDBRANCH  22  23
ENDBRANCH  13  22
ENDBRANCH  11  13
ENDBRANCH  10  11
ENDBRANCH   9  10
ENDBRANCH   1   9
BRANCH   7  28
HETATM   28  C   UNL     1     -20.328  -9.810  -3.199  1.00  0.00     0.221 C 
BRANCH  28  29
HETATM   29  O   UNL     1     -21.190 -10.647  -3.992  1.00  0.00    -0.316 OA
BRANCH  29  30
HETATM   30  C   UNL     1     -20.979 -10.652  -5.331  1.00  0.00     0.263 C 
HETATM   31  O   UNL     1     -21.240  -9.720  -6.078  1.00  0.00    -0.265 OA
BRANCH  30  32
HETATM   32  C   UNL     1     -20.360 -11.974  -5.766  1.00  0.00     0.085 C 
BRANCH  32  33
HETATM   33  C   UNL     1     -21.288 -12.747  -6.723  1.00  0.00     0.014 C 
BRANCH  33  34
HETATM   34  C   UNL     1     -21.490 -14.225  -6.378  1.00  0.00     0.001 C 
BRANCH  34  35
HETATM   35  C   UNL     1     -20.715 -14.636  -5.121  1.00  0.00     0.000 C 
BRANCH  35  36
HETATM   36  C   UNL     1     -21.641 -15.354  -4.136  1.00  0.00    -0.000 C 
BRANCH  36  37
HETATM   37  C   UNL     1     -22.969 -14.621  -3.951  1.00  0.00    -0.005 C 
HETATM   38  C   UNL     1     -22.819 -13.441  -3.005  1.00  0.00     0.005 C 
ENDBRANCH  36  37
ENDBRANCH  35  36
ENDBRANCH  34  35
ENDBRANCH  33  34
ENDBRANCH  32  33
BRANCH  32  39
HETATM   39  C   UNL     1     -18.954 -11.743  -6.339  1.00  0.00     0.014 C 
BRANCH  39  40
HETATM   40  C   UNL     1     -18.714 -12.606  -7.584  1.00  0.00     0.001 C 
BRANCH  40  41
HETATM   41  C   UNL     1     -17.229 -12.882  -7.775  1.00  0.00     0.000 C 
BRANCH  41  42
HETATM   42  C   UNL     1     -16.678 -13.760  -6.654  1.00  0.00     0.000 C 
BRANCH  42  43
HETATM   43  C   UNL     1     -15.246 -13.349  -6.325  1.00  0.00     0.000 C 
BRANCH  43  44
HETATM   44  C   UNL     1     -15.053 -11.842  -6.451  1.00  0.00    -0.000 C 
BRANCH  44  45
HETATM   45  C   UNL     1     -15.499 -11.129  -5.177  1.00  0.00    -0.005 C 
HETATM   46  C   UNL     1     -15.777  -9.661  -5.447  1.00  0.00     0.005 C 
ENDBRANCH  44  45
ENDBRANCH  43  44
ENDBRANCH  42  43
ENDBRANCH  41  42
ENDBRANCH  40  41
ENDBRANCH  39  40
ENDBRANCH  32  39
ENDBRANCH  30  32
ENDBRANCH  29  30
ENDBRANCH  28  29
ENDBRANCH   7  28
BRANCH   6  47
HETATM   47  O   UNL     1     -21.399 -10.264  -0.535  1.00  0.00    -0.276 OA
BRANCH  47  48
HETATM   48  C   UNL     1     -22.389 -11.156  -0.094  1.00  0.00     0.268 C 
HETATM   49  O   UNL     1     -23.577 -11.094  -0.342  1.00  0.00    -0.264 OA
BRANCH  48  50
HETATM   50  C   UNL     1     -21.858 -12.356   0.701  1.00  0.00     0.086 C 
BRANCH  50  51
HETATM   51  C   UNL     1     -22.825 -13.558   0.679  1.00  0.00     0.014 C 
BRANCH  51  52
HETATM   52  C   UNL     1     -23.355 -13.863   2.090  1.00  0.00     0.001 C 
BRANCH  52  53
HETATM   53  C   UNL     1     -22.371 -14.573   3.014  1.00  0.00     0.000 C 
BRANCH  53  54
HETATM   54  C   UNL     1     -22.340 -16.063   2.645  1.00  0.00    -0.000 C 
BRANCH  54  55
HETATM   55  C   UNL     1     -21.052 -16.750   3.082  1.00  0.00    -0.005 C 
HETATM   56  C   UNL     1     -19.839 -16.045   2.491  1.00  0.00     0.005 C 
ENDBRANCH  54  55
ENDBRANCH  53  54
ENDBRANCH  52  53
ENDBRANCH  51  52
ENDBRANCH  50  51
BRANCH  50  57
HETATM   57  C   UNL     1     -20.500 -12.745   0.034  1.00  0.00     0.014 C 
BRANCH  57  58
HETATM   58  C   UNL     1     -20.454 -14.188  -0.481  1.00  0.00     0.001 C 
BRANCH  58  59
HETATM   59  C   UNL     1     -19.288 -14.425  -1.434  1.00  0.00     0.000 C 
BRANCH  59  60
HETATM   60  C   UNL     1     -18.935 -13.148  -2.183  1.00  0.00     0.000 C 
BRANCH  60  61
HETATM   61  C   UNL     1     -17.670 -13.314  -2.999  1.00  0.00     0.000 C 
BRANCH  61  62
HETATM   62  C   UNL     1     -16.505 -12.708  -2.229  1.00  0.00    -0.000 C 
BRANCH  62  63
HETATM   63  C   UNL     1     -17.018 -11.765  -1.157  1.00  0.00    -0.005 C 
HETATM   64  C   UNL     1     -16.273 -11.972   0.147  1.00  0.00     0.005 C 
ENDBRANCH  62  63
ENDBRANCH  61  62
ENDBRANCH  60  61
ENDBRANCH  59  60
ENDBRANCH  58  59
ENDBRANCH  57  58
ENDBRANCH  50  57
ENDBRANCH  48  50
ENDBRANCH  47  48
ENDBRANCH   6  47
TORSDOF 47
ENDMDL
MODEL 5
REMARK VINA RESULT:      -6.2      3.286      8.454
REMARK WARNING: 32 MAX_TORS EXCEEDED!!!
REMARK  47 active torsions:
REMARK  status: ('A' for Active; 'I' for Inactive)
REMARK    1  A    between atoms: C_2  and  C_3 
REMARK    2  A    between atoms: C_3  and  C_4 
REMARK    3  A    between atoms: C_4  and  C_5 
REMARK    4  A    between atoms: C_5  and  C_6 
REMARK    5  A    between atoms: C_6  and  C_7 
REMARK    6  A    between atoms: C_7  and  C_8 
REMARK    7  A    between atoms: C_8  and  C_9 
REMARK    8  A    between atoms: C_9  and  C_10 
REMARK    9  A    between atoms: C_9  and  C_16 
REMARK   10  A    between atoms: C_10  and  C_11 
REMARK   11  A    between atoms: C_11  and  C_12 
REMARK   12  A    between atoms: C_12  and  C_13 
REMARK   13  A    between atoms: C_13  and  C_14 
REMARK   14  A    between atoms: C_16  and  O_18 
REMARK   15  A    between atoms: O_18  and  C_19 
REMARK   16  A    between atoms: C_19  and  C_20 
REMARK   17  A    between atoms: C_25  and  O_46 
REMARK   18  A    between atoms: C_26  and  C_27 
REMARK   19  A    between atoms: C_27  and  O_28 
REMARK   20  A    between atoms: O_28  and  C_29 
REMARK   21  A    between atoms: C_29  and  C_31 
REMARK   22  A    between atoms: C_31  and  C_32 
REMARK   23  A    between atoms: C_31  and  C_38 
REMARK   24  A    between atoms: C_32  and  C_33 
REMARK   25  A    between atoms: C_33  and  C_34 
REMARK   26  A    between atoms: C_34  and  C_35 
REMARK   27  A    between atoms: C_35  and  C_36 
REMARK   28  A    between atoms: C_38  and  C_39 
REMARK   29  A    between atoms: C_39  and  C_40 
REMARK   30  A    between atoms: C_40  and  C_41 
REMARK   31  A    between atoms: C_41  and  C_42 
REMARK   32  A    between atoms: C_42  and  C_43 
REMARK   33  A    between atoms: C_43  and  C_44 
REMARK   34  A    between atoms: O_46  and  C_47 
REMARK   35  A    between atoms: C_47  and  C_49 
REMARK   36  A    between atoms: C_49  and  C_50 
REMARK   37  A    between atoms: C_49  and  C_56 
REMARK   38  A    between atoms: C_50  and  C_51 
REMARK   39  A    between atoms: C_51  and  C_52 
REMARK   40  A    between atoms: C_52  and  C_53 
REMARK   41  A    between atoms: C_53  and  C_54 
REMARK   42  A    between atoms: C_56  and  C_57 
REMARK   43  A    between atoms: C_57  and  C_58 
REMARK   44  A    between atoms: C_58  and  C_59 
REMARK   45  A    between atoms: C_59  and  C_60 
REMARK   46  A    between atoms: C_60  and  C_61 
REMARK   47  A    between atoms: C_61  and  C_62 
ROOT
HETATM    1  C   UNL     1     -16.040 -10.915  -4.346  1.00  0.00    -0.007 A 
HETATM    2  C   UNL     1     -15.724 -11.120  -5.682  1.00  0.00     0.098 A 
HETATM    3  N   UNL     1     -15.050 -12.180  -6.134  1.00  0.00    -0.367 N 
ATOM      4  HN  UNL     1     -14.845 -12.277  -7.129  1.00  0.00     0.165 HD
HETATM    5  C   UNL     1     -14.642 -13.127  -5.253  1.00  0.00     0.040 A 
HETATM    6  C   UNL     1     -14.925 -13.044  -3.877  1.00  0.00     0.110 A 
HETATM    7  C   UNL     1     -15.662 -11.908  -3.407  1.00  0.00     0.012 A 
HETATM    8  C   UNL     1     -13.903 -14.213  -5.964  1.00  0.00     0.071 C 
ENDROOT
BRANCH   1   9
HETATM    9  C   UNL     1     -16.847  -9.674  -4.049  1.00  0.00     0.219 C 
BRANCH   9  10
HETATM   10  O   UNL     1     -18.210 -10.007  -4.319  1.00  0.00    -0.317 OA
BRANCH  10  11
HETATM   11  C   UNL     1     -18.793  -9.255  -5.292  1.00  0.00     0.263 C 
HETATM   12  O   UNL     1     -18.302  -9.027  -6.394  1.00  0.00    -0.265 OA
BRANCH  11  13
HETATM   13  C   UNL     1     -20.104  -8.687  -4.781  1.00  0.00     0.085 C 
BRANCH  13  14
HETATM   14  C   UNL     1     -20.093  -7.183  -5.119  1.00  0.00     0.014 C 
BRANCH  14  15
HETATM   15  C   UNL     1     -21.223  -6.651  -5.998  1.00  0.00     0.001 C 
BRANCH  15  16
HETATM   16  C   UNL     1     -20.774  -5.848  -7.215  1.00  0.00     0.000 C 
BRANCH  16  17
HETATM   17  C   UNL     1     -21.764  -4.708  -7.449  1.00  0.00     0.000 C 
BRANCH  17  18
HETATM   18  C   UNL     1     -21.686  -4.176  -8.872  1.00  0.00     0.000 C 
BRANCH  18  19
HETATM   19  C   UNL     1     -20.353  -4.550  -9.517  1.00  0.00    -0.000 C 
BRANCH  19  20
HETATM   20  C   UNL     1     -20.356  -4.176 -10.996  1.00  0.00    -0.005 C 
HETATM   21  C   UNL     1     -21.690  -3.588 -11.419  1.00  0.00     0.005 C 
ENDBRANCH  19  20
ENDBRANCH  18  19
ENDBRANCH  17  18
ENDBRANCH  16  17
ENDBRANCH  15  16
ENDBRANCH  14  15
ENDBRANCH  13  14
BRANCH  13  22
HETATM   22  C   UNL     1     -21.263  -9.485  -5.394  1.00  0.00     0.014 C 
BRANCH  22  23
HETATM   23  C   UNL     1     -21.353 -10.946  -4.904  1.00  0.00     0.001 C 
BRANCH  23  24
HETATM   24  C   UNL     1     -21.089 -12.022  -5.966  1.00  0.00     0.000 C 
BRANCH  24  25
HETATM   25  C   UNL     1     -19.872 -12.876  -5.626  1.00  0.00    -0.000 C 
BRANCH  25  26
HETATM   26  C   UNL     1     -18.801 -12.819  -6.710  1.00  0.00    -0.005 C 
HETATM   27  C   UNL     1     -19.443 -12.874  -8.088  1.00  0.00     0.005 C 
ENDBRANCH  25  26
ENDBRANCH  24  25
ENDBRANCH  23  24
ENDBRANCH  22  23
ENDBRANCH  13  22
ENDBRANCH  11  13
ENDBRANCH  10  11
ENDBRANCH   9  10
ENDBRANCH   1   9
BRANCH   7  28
HETATM   28  C   UNL     1     -16.110 -11.766  -1.965  1.00  0.00     0.221 C 
BRANCH  28  29
HETATM   29  O   UNL     1     -17.449 -12.250  -1.755  1.00  0.00    -0.316 OA
BRANCH  29  30
HETATM   30  C   UNL     1     -17.995 -12.034  -0.533  1.00  0.00     0.263 C 
HETATM   31  O   UNL     1     -17.354 -11.829   0.487  1.00  0.00    -0.265 OA
BRANCH  30  32
HETATM   32  C   UNL     1     -19.516 -12.070  -0.617  1.00  0.00     0.085 C 
BRANCH  32  33
HETATM   33  C   UNL     1     -20.135 -10.698  -0.292  1.00  0.00     0.014 C 
BRANCH  33  34
HETATM   34  C   UNL     1     -20.275  -9.750  -1.485  1.00  0.00     0.001 C 
BRANCH  34  35
HETATM   35  C   UNL     1     -20.525  -8.302  -1.047  1.00  0.00     0.000 C 
BRANCH  35  36
HETATM   36  C   UNL     1     -21.962  -7.887  -1.374  1.00  0.00    -0.000 C 
BRANCH  36  37
HETATM   37  C   UNL     1     -22.815  -7.716  -0.118  1.00  0.00    -0.005 C 
HETATM   38  C   UNL     1     -22.000  -7.974   1.139  1.00  0.00     0.005 C 
ENDBRANCH  36  37
ENDBRANCH  35  36
ENDBRANCH  34  35
ENDBRANCH  33  34
ENDBRANCH  32  33
BRANCH  32  39
HETATM   39  C   UNL     1     -19.963 -12.632  -1.975  1.00  0.00     0.014 C 
BRANCH  39  40
HETATM   40  C   UNL     1     -20.757 -13.933  -1.802  1.00  0.00     0.001 C 
BRANCH  40  41
HETATM   41  C   UNL     1     -21.170 -14.129  -0.350  1.00  0.00     0.000 C 
BRANCH  41  42
HETATM   42  C   UNL     1     -22.531 -14.813  -0.246  1.00  0.00     0.000 C 
BRANCH  42  43
HETATM   43  C   UNL     1     -23.646 -13.775  -0.336  1.00  0.00     0.000 C 
BRANCH  43  44
HETATM   44  C   UNL     1     -23.351 -12.560   0.536  1.00  0.00    -0.000 C 
BRANCH  44  45
HETATM   45  C   UNL     1     -23.841 -11.279  -0.135  1.00  0.00    -0.005 C 
HETATM   46  C   UNL     1     -23.580 -11.316  -1.630  1.00  0.00     0.005 C 
ENDBRANCH  44  45
ENDBRANCH  43  44
ENDBRANCH  42  43
ENDBRANCH  41  42
ENDBRANCH  40  41
ENDBRANCH  39  40
ENDBRANCH  32  39
ENDBRANCH  30  32
ENDBRANCH  29  30
ENDBRANCH  28  29
ENDBRANCH   7  28
BRANCH   6  47
HETATM   47  O   UNL     1     -14.608 -14.072  -2.903  1.00  0.00    -0.276 OA
BRANCH  47  48
HETATM   48  C   UNL     1     -13.331 -14.386  -2.412  1.00  0.00     0.268 C 
HETATM   49  O   UNL     1     -12.283 -14.304  -3.023  1.00  0.00    -0.264 OA
BRANCH  48  50
HETATM   50  C   UNL     1     -13.297 -14.783  -0.930  1.00  0.00     0.086 C 
BRANCH  50  51
HETATM   51  C   UNL     1     -13.740 -16.243  -0.696  1.00  0.00     0.014 C 
BRANCH  51  52
HETATM   52  C   UNL     1     -14.897 -16.310   0.315  1.00  0.00     0.001 C 
BRANCH  52  53
HETATM   53  C   UNL     1     -15.717 -15.032   0.449  1.00  0.00     0.000 C 
BRANCH  53  54
HETATM   54  C   UNL     1     -17.207 -15.392   0.356  1.00  0.00    -0.000 C 
BRANCH  54  55
HETATM   55  C   UNL     1     -17.640 -15.740  -1.063  1.00  0.00    -0.005 C 
HETATM   56  C   UNL     1     -18.407 -17.055  -1.084  1.00  0.00     0.005 C 
ENDBRANCH  54  55
ENDBRANCH  53  54
ENDBRANCH  52  53
ENDBRANCH  51  52
ENDBRANCH  50  51
BRANCH  50  57
HETATM   57  C   UNL     1     -11.818 -14.588  -0.467  1.00  0.00     0.014 C 
BRANCH  57  58
HETATM   58  C   UNL     1     -11.670 -14.304   1.032  1.00  0.00     0.001 C 
BRANCH  58  59
HETATM   59  C   UNL     1     -10.551 -15.120   1.668  1.00  0.00     0.000 C 
BRANCH  59  60
HETATM   60  C   UNL     1      -9.199 -14.468   1.415  1.00  0.00     0.000 C 
BRANCH  60  61
HETATM   61  C   UNL     1      -8.308 -14.547   2.637  1.00  0.00     0.000 C 
BRANCH  61  62
HETATM   62  C   UNL     1      -9.018 -13.879   3.807  1.00  0.00    -0.000 C 
BRANCH  62  63
HETATM   63  C   UNL     1      -8.407 -14.331   5.120  1.00  0.00    -0.005 C 
HETATM   64  C   UNL     1      -8.846 -13.433   6.259  1.00  0.00     0.005 C 
ENDBRANCH  62  63
ENDBRANCH  61  62
ENDBRANCH  60  61
ENDBRANCH  59  60
ENDBRANCH  58  59
ENDBRANCH  57  58
ENDBRANCH  50  57
ENDBRANCH  48  50
ENDBRANCH  47  48
ENDBRANCH   6  47
TORSDOF 47
ENDMDL
MODEL 6
REMARK VINA RESULT:      -6.1      2.988      9.688
REMARK WARNING: 32 MAX_TORS EXCEEDED!!!
REMARK  47 active torsions:
REMARK  status: ('A' for Active; 'I' for Inactive)
REMARK    1  A    between atoms: C_2  and  C_3 
REMARK    2  A    between atoms: C_3  and  C_4 
REMARK    3  A    between atoms: C_4  and  C_5 
REMARK    4  A    between atoms: C_5  and  C_6 
REMARK    5  A    between atoms: C_6  and  C_7 
REMARK    6  A    between atoms: C_7  and  C_8 
REMARK    7  A    between atoms: C_8  and  C_9 
REMARK    8  A    between atoms: C_9  and  C_10 
REMARK    9  A    between atoms: C_9  and  C_16 
REMARK   10  A    between atoms: C_10  and  C_11 
REMARK   11  A    between atoms: C_11  and  C_12 
REMARK   12  A    between atoms: C_12  and  C_13 
REMARK   13  A    between atoms: C_13  and  C_14 
REMARK   14  A    between atoms: C_16  and  O_18 
REMARK   15  A    between atoms: O_18  and  C_19 
REMARK   16  A    between atoms: C_19  and  C_20 
REMARK   17  A    between atoms: C_25  and  O_46 
REMARK   18  A    between atoms: C_26  and  C_27 
REMARK   19  A    between atoms: C_27  and  O_28 
REMARK   20  A    between atoms: O_28  and  C_29 
REMARK   21  A    between atoms: C_29  and  C_31 
REMARK   22  A    between atoms: C_31  and  C_32 
REMARK   23  A    between atoms: C_31  and  C_38 
REMARK   24  A    between atoms: C_32  and  C_33 
REMARK   25  A    between atoms: C_33  and  C_34 
REMARK   26  A    between atoms: C_34  and  C_35 
REMARK   27  A    between atoms: C_35  and  C_36 
REMARK   28  A    between atoms: C_38  and  C_39 
REMARK   29  A    between atoms: C_39  and  C_40 
REMARK   30  A    between atoms: C_40  and  C_41 
REMARK   31  A    between atoms: C_41  and  C_42 
REMARK   32  A    between atoms: C_42  and  C_43 
REMARK   33  A    between atoms: C_43  and  C_44 
REMARK   34  A    between atoms: O_46  and  C_47 
REMARK   35  A    between atoms: C_47  and  C_49 
REMARK   36  A    between atoms: C_49  and  C_50 
REMARK   37  A    between atoms: C_49  and  C_56 
REMARK   38  A    between atoms: C_50  and  C_51 
REMARK   39  A    between atoms: C_51  and  C_52 
REMARK   40  A    between atoms: C_52  and  C_53 
REMARK   41  A    between atoms: C_53  and  C_54 
REMARK   42  A    between atoms: C_56  and  C_57 
REMARK   43  A    between atoms: C_57  and  C_58 
REMARK   44  A    between atoms: C_58  and  C_59 
REMARK   45  A    between atoms: C_59  and  C_60 
REMARK   46  A    between atoms: C_60  and  C_61 
REMARK   47  A    between atoms: C_61  and  C_62 
ROOT
HETATM    1  C   UNL     1     -20.258 -15.092  -3.763  1.00  0.00    -0.007 A 
HETATM    2  C   UNL     1     -21.280 -15.330  -4.670  1.00  0.00     0.098 A 
HETATM    3  N   UNL     1     -21.520 -14.568  -5.740  1.00  0.00    -0.367 N 
ATOM      4  HN  UNL     1     -22.289 -14.791  -6.373  1.00  0.00     0.165 HD
HETATM    5  C   UNL     1     -20.728 -13.492  -5.973  1.00  0.00     0.040 A 
HETATM    6  C   UNL     1     -19.643 -13.163  -5.139  1.00  0.00     0.110 A 
HETATM    7  C   UNL     1     -19.388 -13.998  -4.003  1.00  0.00     0.012 A 
HETATM    8  C   UNL     1     -21.175 -12.777  -7.207  1.00  0.00     0.071 C 
ENDROOT
BRANCH   1   9
HETATM    9  C   UNL     1     -20.128 -16.100  -2.646  1.00  0.00     0.219 C 
BRANCH   9  10
HETATM   10  O   UNL     1     -20.925 -15.608  -1.567  1.00  0.00    -0.317 OA
BRANCH  10  11
HETATM   11  C   UNL     1     -20.224 -15.309  -0.439  1.00  0.00     0.263 C 
HETATM   12  O   UNL     1     -19.299 -15.978   0.014  1.00  0.00    -0.265 OA
BRANCH  11  13
HETATM   13  C   UNL     1     -20.807 -14.068   0.210  1.00  0.00     0.085 C 
BRANCH  13  14
HETATM   14  C   UNL     1     -20.162 -12.859  -0.495  1.00  0.00     0.014 C 
BRANCH  14  15
HETATM   15  C   UNL     1     -19.749 -11.675   0.376  1.00  0.00     0.001 C 
BRANCH  15  16
HETATM   16  C   UNL     1     -20.897 -10.785   0.846  1.00  0.00     0.000 C 
BRANCH  16  17
HETATM   17  C   UNL     1     -20.944  -9.533  -0.030  1.00  0.00     0.000 C 
BRANCH  17  18
HETATM   18  C   UNL     1     -22.209  -9.481  -0.873  1.00  0.00     0.000 C 
BRANCH  18  19
HETATM   19  C   UNL     1     -23.251 -10.464  -0.344  1.00  0.00    -0.000 C 
BRANCH  19  20
HETATM   20  C   UNL     1     -23.829 -11.290  -1.488  1.00  0.00    -0.005 C 
HETATM   21  C   UNL     1     -22.838 -11.433  -2.629  1.00  0.00     0.005 C 
ENDBRANCH  19  20
ENDBRANCH  18  19
ENDBRANCH  17  18
ENDBRANCH  16  17
ENDBRANCH  15  16
ENDBRANCH  14  15
ENDBRANCH  13  14
BRANCH  13  22
HETATM   22  C   UNL     1     -22.338 -14.134   0.121  1.00  0.00     0.014 C 
BRANCH  22  23
HETATM   23  C   UNL     1     -23.056 -13.987   1.479  1.00  0.00     0.001 C 
BRANCH  23  24
HETATM   24  C   UNL     1     -22.209 -14.306   2.719  1.00  0.00     0.000 C 
BRANCH  24  25
HETATM   25  C   UNL     1     -22.992 -15.100   3.759  1.00  0.00    -0.000 C 
BRANCH  25  26
HETATM   26  C   UNL     1     -24.493 -15.091   3.488  1.00  0.00    -0.005 C 
HETATM   27  C   UNL     1     -25.263 -15.324   4.779  1.00  0.00     0.005 C 
ENDBRANCH  25  26
ENDBRANCH  24  25
ENDBRANCH  23  24
ENDBRANCH  22  23
ENDBRANCH  13  22
ENDBRANCH  11  13
ENDBRANCH  10  11
ENDBRANCH   9  10
ENDBRANCH   1   9
BRANCH   7  28
HETATM   28  C   UNL     1     -18.189 -13.797  -3.097  1.00  0.00     0.221 C 
BRANCH  28  29
HETATM   29  O   UNL     1     -17.038 -14.543  -3.535  1.00  0.00    -0.316 OA
BRANCH  29  30
HETATM   30  C   UNL     1     -16.219 -15.030  -2.571  1.00  0.00     0.263 C 
HETATM   31  O   UNL     1     -16.516 -15.927  -1.796  1.00  0.00    -0.265 OA
BRANCH  30  32
HETATM   32  C   UNL     1     -14.876 -14.312  -2.602  1.00  0.00     0.085 C 
BRANCH  32  33
HETATM   33  C   UNL     1     -14.906 -13.014  -1.773  1.00  0.00     0.014 C 
BRANCH  33  34
HETATM   34  C   UNL     1     -15.953 -12.981  -0.656  1.00  0.00     0.001 C 
BRANCH  34  35
HETATM   35  C   UNL     1     -15.513 -12.104   0.522  1.00  0.00     0.000 C 
BRANCH  35  36
HETATM   36  C   UNL     1     -16.032 -12.685   1.840  1.00  0.00    -0.000 C 
BRANCH  36  37
HETATM   37  C   UNL     1     -15.542 -14.113   2.076  1.00  0.00    -0.005 C 
HETATM   38  C   UNL     1     -16.708 -15.064   2.297  1.00  0.00     0.005 C 
ENDBRANCH  36  37
ENDBRANCH  35  36
ENDBRANCH  34  35
ENDBRANCH  33  34
ENDBRANCH  32  33
BRANCH  32  39
HETATM   39  C   UNL     1     -13.748 -15.270  -2.190  1.00  0.00     0.014 C 
BRANCH  39  40
HETATM   40  C   UNL     1     -12.858 -14.645  -1.108  1.00  0.00     0.001 C 
BRANCH  40  41
HETATM   41  C   UNL     1     -12.869 -15.490   0.159  1.00  0.00     0.000 C 
BRANCH  41  42
HETATM   42  C   UNL     1     -11.763 -15.065   1.121  1.00  0.00     0.000 C 
BRANCH  42  43
HETATM   43  C   UNL     1     -10.816 -14.088   0.430  1.00  0.00     0.000 C 
BRANCH  43  44
HETATM   44  C   UNL     1      -9.884 -13.412   1.429  1.00  0.00    -0.000 C 
BRANCH  44  45
HETATM   45  C   UNL     1      -8.525 -14.109   1.460  1.00  0.00    -0.005 C 
HETATM   46  C   UNL     1      -8.171 -14.542   2.872  1.00  0.00     0.005 C 
ENDBRANCH  44  45
ENDBRANCH  43  44
ENDBRANCH  42  43
ENDBRANCH  41  42
ENDBRANCH  40  41
ENDBRANCH  39  40
ENDBRANCH  32  39
ENDBRANCH  30  32
ENDBRANCH  29  30
ENDBRANCH  28  29
ENDBRANCH   7  28
BRANCH   6  47
HETATM   47  O   UNL     1     -18.700 -12.089  -5.393  1.00  0.00    -0.276 OA
BRANCH  47  48
HETATM   48  C   UNL     1     -18.968 -10.713  -5.324  1.00  0.00     0.268 C 
HETATM   49  O   UNL     1     -18.865  -9.912  -6.232  1.00  0.00    -0.264 OA
BRANCH  48  50
HETATM   50  C   UNL     1     -19.525 -10.239  -3.975  1.00  0.00     0.086 C 
BRANCH  50  51
HETATM   51  C   UNL     1     -18.525 -10.437  -2.817  1.00  0.00     0.014 C 
BRANCH  51  52
HETATM   52  C   UNL     1     -17.517  -9.277  -2.757  1.00  0.00     0.001 C 
BRANCH  52  53
HETATM   53  C   UNL     1     -16.054  -9.682  -2.896  1.00  0.00     0.000 C 
BRANCH  53  54
HETATM   54  C   UNL     1     -15.716  -9.796  -4.390  1.00  0.00    -0.000 C 
BRANCH  54  55
HETATM   55  C   UNL     1     -15.273 -11.200  -4.786  1.00  0.00    -0.005 C 
HETATM   56  C   UNL     1     -15.363 -11.386  -6.294  1.00  0.00     0.005 C 
ENDBRANCH  54  55
ENDBRANCH  53  54
ENDBRANCH  52  53
ENDBRANCH  51  52
ENDBRANCH  50  51
BRANCH  50  57
HETATM   57  C   UNL     1     -19.849  -8.721  -4.155  1.00  0.00     0.014 C 
BRANCH  57  58
HETATM   58  C   UNL     1     -21.337  -8.427  -4.375  1.00  0.00     0.001 C 
BRANCH  58  59
HETATM   59  C   UNL     1     -21.590  -6.974  -4.760  1.00  0.00     0.000 C 
BRANCH  59  60
HETATM   60  C   UNL     1     -20.486  -6.459  -5.673  1.00  0.00     0.000 C 
BRANCH  60  61
HETATM   61  C   UNL     1     -20.360  -4.952  -5.596  1.00  0.00     0.000 C 
BRANCH  61  62
HETATM   62  C   UNL     1     -20.255  -4.394  -7.008  1.00  0.00    -0.000 C 
BRANCH  62  63
HETATM   63  C   UNL     1     -21.466  -3.538  -7.326  1.00  0.00    -0.005 C 
HETATM   64  C   UNL     1     -22.115  -3.979  -8.623  1.00  0.00     0.005 C 
ENDBRANCH  62  63
ENDBRANCH  61  62
ENDBRANCH  60  61
ENDBRANCH  59  60
ENDBRANCH  58  59
ENDBRANCH  57  58
ENDBRANCH  50  57
ENDBRANCH  48  50
ENDBRANCH  47  48
ENDBRANCH   6  47
TORSDOF 47
ENDMDL
MODEL 7
REMARK VINA RESULT:      -6.1      1.425      4.806
REMARK WARNING: 32 MAX_TORS EXCEEDED!!!
REMARK  47 active torsions:
REMARK  status: ('A' for Active; 'I' for Inactive)
REMARK    1  A    between atoms: C_2  and  C_3 
REMARK    2  A    between atoms: C_3  and  C_4 
REMARK    3  A    between atoms: C_4  and  C_5 
REMARK    4  A    between atoms: C_5  and  C_6 
REMARK    5  A    between atoms: C_6  and  C_7 
REMARK    6  A    between atoms: C_7  and  C_8 
REMARK    7  A    between atoms: C_8  and  C_9 
REMARK    8  A    between atoms: C_9  and  C_10 
REMARK    9  A    between atoms: C_9  and  C_16 
REMARK   10  A    between atoms: C_10  and  C_11 
REMARK   11  A    between atoms: C_11  and  C_12 
REMARK   12  A    between atoms: C_12  and  C_13 
REMARK   13  A    between atoms: C_13  and  C_14 
REMARK   14  A    between atoms: C_16  and  O_18 
REMARK   15  A    between atoms: O_18  and  C_19 
REMARK   16  A    between atoms: C_19  and  C_20 
REMARK   17  A    between atoms: C_25  and  O_46 
REMARK   18  A    between atoms: C_26  and  C_27 
REMARK   19  A    between atoms: C_27  and  O_28 
REMARK   20  A    between atoms: O_28  and  C_29 
REMARK   21  A    between atoms: C_29  and  C_31 
REMARK   22  A    between atoms: C_31  and  C_32 
REMARK   23  A    between atoms: C_31  and  C_38 
REMARK   24  A    between atoms: C_32  and  C_33 
REMARK   25  A    between atoms: C_33  and  C_34 
REMARK   26  A    between atoms: C_34  and  C_35 
REMARK   27  A    between atoms: C_35  and  C_36 
REMARK   28  A    between atoms: C_38  and  C_39 
REMARK   29  A    between atoms: C_39  and  C_40 
REMARK   30  A    between atoms: C_40  and  C_41 
REMARK   31  A    between atoms: C_41  and  C_42 
REMARK   32  A    between atoms: C_42  and  C_43 
REMARK   33  A    between atoms: C_43  and  C_44 
REMARK   34  A    between atoms: O_46  and  C_47 
REMARK   35  A    between atoms: C_47  and  C_49 
REMARK   36  A    between atoms: C_49  and  C_50 
REMARK   37  A    between atoms: C_49  and  C_56 
REMARK   38  A    between atoms: C_50  and  C_51 
REMARK   39  A    between atoms: C_51  and  C_52 
REMARK   40  A    between atoms: C_52  and  C_53 
REMARK   41  A    between atoms: C_53  and  C_54 
REMARK   42  A    between atoms: C_56  and  C_57 
REMARK   43  A    between atoms: C_57  and  C_58 
REMARK   44  A    between atoms: C_58  and  C_59 
REMARK   45  A    between atoms: C_59  and  C_60 
REMARK   46  A    between atoms: C_60  and  C_61 
REMARK   47  A    between atoms: C_61  and  C_62 
ROOT
HETATM    1  C   UNL     1     -21.290  -7.704  -3.036  1.00  0.00    -0.007 A 
HETATM    2  C   UNL     1     -21.743  -6.660  -2.240  1.00  0.00     0.098 A 
HETATM    3  N   UNL     1     -22.125  -6.804  -0.969  1.00  0.00    -0.367 N 
ATOM      4  HN  UNL     1     -22.450  -6.000  -0.432  1.00  0.00     0.165 HD
HETATM    5  C   UNL     1     -22.073  -8.035  -0.400  1.00  0.00     0.040 A 
HETATM    6  C   UNL     1     -21.607  -9.165  -1.098  1.00  0.00     0.110 A 
HETATM    7  C   UNL     1     -21.187  -8.994  -2.457  1.00  0.00     0.012 A 
HETATM    8  C   UNL     1     -22.551  -7.973   1.014  1.00  0.00     0.071 C 
ENDROOT
BRANCH   1   9
HETATM    9  C   UNL     1     -20.864  -7.321  -4.433  1.00  0.00     0.219 C 
BRANCH   9  10
HETATM   10  O   UNL     1     -21.273  -5.965  -4.621  1.00  0.00    -0.317 OA
BRANCH  10  11
HETATM   11  C   UNL     1     -22.334  -5.806  -5.457  1.00  0.00     0.263 C 
HETATM   12  O   UNL     1     -23.482  -6.171  -5.216  1.00  0.00    -0.265 OA
BRANCH  11  13
HETATM   13  C   UNL     1     -21.870  -5.175  -6.757  1.00  0.00     0.085 C 
BRANCH  13  14
HETATM   14  C   UNL     1     -23.071  -4.391  -7.320  1.00  0.00     0.014 C 
BRANCH  14  15
HETATM   15  C   UNL     1     -23.317  -4.467  -8.825  1.00  0.00     0.001 C 
BRANCH  15  16
HETATM   16  C   UNL     1     -23.711  -3.148  -9.484  1.00  0.00     0.000 C 
BRANCH  16  17
HETATM   17  C   UNL     1     -24.545  -3.446 -10.729  1.00  0.00     0.000 C 
BRANCH  17  18
HETATM   18  C   UNL     1     -23.872  -4.470 -11.629  1.00  0.00     0.000 C 
BRANCH  18  19
HETATM   19  C   UNL     1     -23.947  -4.037 -13.092  1.00  0.00    -0.000 C 
BRANCH  19  20
HETATM   20  C   UNL     1     -23.282  -2.678 -13.277  1.00  0.00    -0.005 C 
HETATM   21  C   UNL     1     -23.049  -2.367 -14.745  1.00  0.00     0.005 C 
ENDBRANCH  19  20
ENDBRANCH  18  19
ENDBRANCH  17  18
ENDBRANCH  16  17
ENDBRANCH  15  16
ENDBRANCH  14  15
ENDBRANCH  13  14
BRANCH  13  22
HETATM   22  C   UNL     1     -20.615  -4.336  -6.480  1.00  0.00     0.014 C 
BRANCH  22  23
HETATM   23  C   UNL     1     -19.474  -4.552  -7.497  1.00  0.00     0.001 C 
BRANCH  23  24
HETATM   24  C   UNL     1     -19.657  -3.868  -8.859  1.00  0.00     0.000 C 
BRANCH  24  25
HETATM   25  C   UNL     1     -19.849  -4.878  -9.985  1.00  0.00    -0.000 C 
BRANCH  25  26
HETATM   26  C   UNL     1     -20.527  -4.265 -11.206  1.00  0.00    -0.005 C 
HETATM   27  C   UNL     1     -20.415  -2.749 -11.165  1.00  0.00     0.005 C 
ENDBRANCH  25  26
ENDBRANCH  24  25
ENDBRANCH  23  24
ENDBRANCH  22  23
ENDBRANCH  13  22
ENDBRANCH  11  13
ENDBRANCH  10  11
ENDBRANCH   9  10
ENDBRANCH   1   9
BRANCH   7  28
HETATM   28  C   UNL     1     -20.574 -10.119  -3.268  1.00  0.00     0.221 C 
BRANCH  28  29
HETATM   29  O   UNL     1     -21.499 -11.197  -3.501  1.00  0.00    -0.316 OA
BRANCH  29  30
HETATM   30  C   UNL     1     -21.510 -11.739  -4.743  1.00  0.00     0.263 C 
HETATM   31  O   UNL     1     -21.398 -11.101  -5.780  1.00  0.00    -0.265 OA
BRANCH  30  32
HETATM   32  C   UNL     1     -21.668 -13.252  -4.661  1.00  0.00     0.085 C 
BRANCH  32  33
HETATM   33  C   UNL     1     -20.493 -13.983  -5.339  1.00  0.00     0.014 C 
BRANCH  33  34
HETATM   34  C   UNL     1     -19.114 -13.369  -5.088  1.00  0.00     0.001 C 
BRANCH  34  35
HETATM   35  C   UNL     1     -18.587 -13.686  -3.683  1.00  0.00     0.000 C 
BRANCH  35  36
HETATM   36  C   UNL     1     -17.222 -14.373  -3.770  1.00  0.00    -0.000 C 
BRANCH  36  37
HETATM   37  C   UNL     1     -17.158 -15.642  -2.920  1.00  0.00    -0.005 C 
HETATM   38  C   UNL     1     -16.281 -15.437  -1.695  1.00  0.00     0.005 C 
ENDBRANCH  36  37
ENDBRANCH  35  36
ENDBRANCH  34  35
ENDBRANCH  33  34
ENDBRANCH  32  33
BRANCH  32  39
HETATM   39  C   UNL     1     -21.895 -13.687  -3.206  1.00  0.00     0.014 C 
BRANCH  39  40
HETATM   40  C   UNL     1     -23.137 -14.579  -3.081  1.00  0.00     0.001 C 
BRANCH  40  41
HETATM   41  C   UNL     1     -23.676 -14.563  -1.658  1.00  0.00     0.000 C 
BRANCH  41  42
HETATM   42  C   UNL     1     -23.996 -13.143  -1.200  1.00  0.00     0.000 C 
BRANCH  42  43
HETATM   43  C   UNL     1     -23.654 -12.980   0.279  1.00  0.00     0.000 C 
BRANCH  43  44
HETATM   44  C   UNL     1     -23.490 -14.330   0.967  1.00  0.00    -0.000 C 
BRANCH  44  45
HETATM   45  C   UNL     1     -23.552 -14.177   2.484  1.00  0.00    -0.005 C 
HETATM   46  C   UNL     1     -22.312 -14.760   3.139  1.00  0.00     0.005 C 
ENDBRANCH  44  45
ENDBRANCH  43  44
ENDBRANCH  42  43
ENDBRANCH  41  42
ENDBRANCH  40  41
ENDBRANCH  39  40
ENDBRANCH  32  39
ENDBRANCH  30  32
ENDBRANCH  29  30
ENDBRANCH  28  29
ENDBRANCH   7  28
BRANCH   6  47
HETATM   47  O   UNL     1     -21.431 -10.483  -0.514  1.00  0.00    -0.276 OA
BRANCH  47  48
HETATM   48  C   UNL     1     -20.421 -10.867   0.382  1.00  0.00     0.268 C 
HETATM   49  O   UNL     1     -20.268 -10.454   1.515  1.00  0.00    -0.264 OA
BRANCH  48  50
HETATM   50  C   UNL     1     -19.502 -11.982  -0.133  1.00  0.00     0.086 C 
BRANCH  50  51
HETATM   51  C   UNL     1     -18.057 -11.852   0.393  1.00  0.00     0.014 C 
BRANCH  51  52
HETATM   52  C   UNL     1     -17.045 -11.923  -0.762  1.00  0.00     0.001 C 
BRANCH  52  53
HETATM   53  C   UNL     1     -17.298 -10.949  -1.908  1.00  0.00     0.000 C 
BRANCH  53  54
HETATM   54  C   UNL     1     -16.029 -10.860  -2.768  1.00  0.00    -0.000 C 
BRANCH  54  55
HETATM   55  C   UNL     1     -15.989  -9.604  -3.629  1.00  0.00    -0.005 C 
HETATM   56  C   UNL     1     -15.864  -9.965  -5.102  1.00  0.00     0.005 C 
ENDBRANCH  54  55
ENDBRANCH  53  54
ENDBRANCH  52  53
ENDBRANCH  51  52
ENDBRANCH  50  51
BRANCH  50  57
HETATM   57  C   UNL     1     -20.137 -13.323   0.361  1.00  0.00     0.014 C 
BRANCH  57  58
HETATM   58  C   UNL     1     -19.851 -14.517  -0.557  1.00  0.00     0.001 C 
BRANCH  58  59
HETATM   59  C   UNL     1     -19.509 -15.779   0.227  1.00  0.00     0.000 C 
BRANCH  59  60
HETATM   60  C   UNL     1     -19.082 -15.434   1.646  1.00  0.00     0.000 C 
BRANCH  60  61
HETATM   61  C   UNL     1     -18.270 -16.550   2.269  1.00  0.00     0.000 C 
BRANCH  61  62
HETATM   62  C   UNL     1     -16.937 -15.984   2.740  1.00  0.00    -0.000 C 
BRANCH  62  63
HETATM   63  C   UNL     1     -16.581 -14.745   1.941  1.00  0.00    -0.005 C 
HETATM   64  C   UNL     1     -15.639 -13.850   2.722  1.00  0.00     0.005 C 
ENDBRANCH  62  63
ENDBRANCH  61  62
ENDBRANCH  60  61
ENDBRANCH  59  60
ENDBRANCH  58  59
ENDBRANCH  57  58
ENDBRANCH  50  57
ENDBRANCH  48  50
ENDBRANCH  47  48
ENDBRANCH   6  47
TORSDOF 47
ENDMDL
MODEL 8
REMARK VINA RESULT:      -6.0      2.206      6.445
REMARK WARNING: 32 MAX_TORS EXCEEDED!!!
REMARK  47 active torsions:
REMARK  status: ('A' for Active; 'I' for Inactive)
REMARK    1  A    between atoms: C_2  and  C_3 
REMARK    2  A    between atoms: C_3  and  C_4 
REMARK    3  A    between atoms: C_4  and  C_5 
REMARK    4  A    between atoms: C_5  and  C_6 
REMARK    5  A    between atoms: C_6  and  C_7 
REMARK    6  A    between atoms: C_7  and  C_8 
REMARK    7  A    between atoms: C_8  and  C_9 
REMARK    8  A    between atoms: C_9  and  C_10 
REMARK    9  A    between atoms: C_9  and  C_16 
REMARK   10  A    between atoms: C_10  and  C_11 
REMARK   11  A    between atoms: C_11  and  C_12 
REMARK   12  A    between atoms: C_12  and  C_13 
REMARK   13  A    between atoms: C_13  and  C_14 
REMARK   14  A    between atoms: C_16  and  O_18 
REMARK   15  A    between atoms: O_18  and  C_19 
REMARK   16  A    between atoms: C_19  and  C_20 
REMARK   17  A    between atoms: C_25  and  O_46 
REMARK   18  A    between atoms: C_26  and  C_27 
REMARK   19  A    between atoms: C_27  and  O_28 
REMARK   20  A    between atoms: O_28  and  C_29 
REMARK   21  A    between atoms: C_29  and  C_31 
REMARK   22  A    between atoms: C_31  and  C_32 
REMARK   23  A    between atoms: C_31  and  C_38 
REMARK   24  A    between atoms: C_32  and  C_33 
REMARK   25  A    between atoms: C_33  and  C_34 
REMARK   26  A    between atoms: C_34  and  C_35 
REMARK   27  A    between atoms: C_35  and  C_36 
REMARK   28  A    between atoms: C_38  and  C_39 
REMARK   29  A    between atoms: C_39  and  C_40 
REMARK   30  A    between atoms: C_40  and  C_41 
REMARK   31  A    between atoms: C_41  and  C_42 
REMARK   32  A    between atoms: C_42  and  C_43 
REMARK   33  A    between atoms: C_43  and  C_44 
REMARK   34  A    between atoms: O_46  and  C_47 
REMARK   35  A    between atoms: C_47  and  C_49 
REMARK   36  A    between atoms: C_49  and  C_50 
REMARK   37  A    between atoms: C_49  and  C_56 
REMARK   38  A    between atoms: C_50  and  C_51 
REMARK   39  A    between atoms: C_51  and  C_52 
REMARK   40  A    between atoms: C_52  and  C_53 
REMARK   41  A    between atoms: C_53  and  C_54 
REMARK   42  A    between atoms: C_56  and  C_57 
REMARK   43  A    between atoms: C_57  and  C_58 
REMARK   44  A    between atoms: C_58  and  C_59 
REMARK   45  A    between atoms: C_59  and  C_60 
REMARK   46  A    between atoms: C_60  and  C_61 
REMARK   47  A    between atoms: C_61  and  C_62 
ROOT
HETATM    1  C   UNL     1     -22.028 -10.232  -0.007  1.00  0.00    -0.007 A 
HETATM    2  C   UNL     1     -23.368 -10.438  -0.303  1.00  0.00     0.098 A 
HETATM    3  N   UNL     1     -23.864 -11.595  -0.749  1.00  0.00    -0.367 N 
ATOM      4  HN  UNL     1     -24.859 -11.687  -0.951  1.00  0.00     0.165 HD
HETATM    5  C   UNL     1     -23.025 -12.645  -0.929  1.00  0.00     0.040 A 
HETATM    6  C   UNL     1     -21.650 -12.567  -0.638  1.00  0.00     0.110 A 
HETATM    7  C   UNL     1     -21.134 -11.324  -0.147  1.00  0.00     0.012 A 
HETATM    8  C   UNL     1     -23.780 -13.830  -1.439  1.00  0.00     0.071 C 
ENDROOT
BRANCH   1   9
HETATM    9  C   UNL     1     -21.680  -8.864   0.528  1.00  0.00     0.219 C 
BRANCH   9  10
HETATM   10  O   UNL     1     -20.970  -8.193  -0.515  1.00  0.00    -0.317 OA
BRANCH  10  11
HETATM   11  C   UNL     1     -21.755  -7.467  -1.357  1.00  0.00     0.263 C 
HETATM   12  O   UNL     1     -22.588  -6.638  -1.003  1.00  0.00    -0.265 OA
BRANCH  11  13
HETATM   13  C   UNL     1     -21.494  -7.891  -2.790  1.00  0.00     0.085 C 
BRANCH  13  14
HETATM   14  C   UNL     1     -21.493  -6.603  -3.637  1.00  0.00     0.014 C 
BRANCH  14  15
HETATM   15  C   UNL     1     -21.734  -6.748  -5.137  1.00  0.00     0.001 C 
BRANCH  15  16
HETATM   16  C   UNL     1     -21.523  -5.475  -5.953  1.00  0.00     0.000 C 
BRANCH  16  17
HETATM   17  C   UNL     1     -20.101  -4.967  -5.718  1.00  0.00     0.000 C 
BRANCH  17  18
HETATM   18  C   UNL     1     -19.391  -4.651  -7.026  1.00  0.00     0.000 C 
BRANCH  18  19
HETATM   19  C   UNL     1     -20.138  -5.264  -8.208  1.00  0.00    -0.000 C 
BRANCH  19  20
HETATM   20  C   UNL     1     -20.379  -4.213  -9.287  1.00  0.00    -0.005 C 
HETATM   21  C   UNL     1     -21.835  -4.182  -9.718  1.00  0.00     0.005 C 
ENDBRANCH  19  20
ENDBRANCH  18  19
ENDBRANCH  17  18
ENDBRANCH  16  17
ENDBRANCH  15  16
ENDBRANCH  14  15
ENDBRANCH  13  14
BRANCH  13  22
HETATM   22  C   UNL     1     -20.194  -8.705  -2.838  1.00  0.00     0.014 C 
BRANCH  22  23
HETATM   23  C   UNL     1     -20.358 -10.125  -3.419  1.00  0.00     0.001 C 
BRANCH  23  24
HETATM   24  C   UNL     1     -21.759 -10.473  -3.942  1.00  0.00     0.000 C 
BRANCH  24  25
HETATM   25  C   UNL     1     -21.713 -11.520  -5.050  1.00  0.00    -0.000 C 
BRANCH  25  26
HETATM   26  C   UNL     1     -22.463 -12.794  -4.676  1.00  0.00    -0.005 C 
HETATM   27  C   UNL     1     -22.404 -13.794  -5.820  1.00  0.00     0.005 C 
ENDBRANCH  25  26
ENDBRANCH  24  25
ENDBRANCH  23  24
ENDBRANCH  22  23
ENDBRANCH  13  22
ENDBRANCH  11  13
ENDBRANCH  10  11
ENDBRANCH   9  10
ENDBRANCH   1   9
BRANCH   7  28
HETATM   28  C   UNL     1     -19.693 -11.157   0.294  1.00  0.00     0.221 C 
BRANCH  28  29
HETATM   29  O   UNL     1     -18.759 -11.411  -0.772  1.00  0.00    -0.316 OA
BRANCH  29  30
HETATM   30  C   UNL     1     -17.490 -11.726  -0.415  1.00  0.00     0.263 C 
HETATM   31  O   UNL     1     -17.118 -11.913   0.735  1.00  0.00    -0.265 OA
BRANCH  30  32
HETATM   32  C   UNL     1     -16.601 -11.829  -1.648  1.00  0.00     0.085 C 
BRANCH  32  33
HETATM   33  C   UNL     1     -16.052 -10.452  -2.068  1.00  0.00     0.014 C 
BRANCH  33  34
HETATM   34  C   UNL     1     -16.596  -9.913  -3.393  1.00  0.00     0.001 C 
BRANCH  34  35
HETATM   35  C   UNL     1     -15.741 -10.348  -4.589  1.00  0.00     0.000 C 
BRANCH  35  36
HETATM   36  C   UNL     1     -16.252  -9.694  -5.875  1.00  0.00    -0.000 C 
BRANCH  36  37
HETATM   37  C   UNL     1     -17.752  -9.904  -6.075  1.00  0.00    -0.005 C 
HETATM   38  C   UNL     1     -18.488  -8.576  -6.144  1.00  0.00     0.005 C 
ENDBRANCH  36  37
ENDBRANCH  35  36
ENDBRANCH  34  35
ENDBRANCH  33  34
ENDBRANCH  32  33
BRANCH  32  39
HETATM   39  C   UNL     1     -15.502 -12.879  -1.428  1.00  0.00     0.014 C 
BRANCH  39  40
HETATM   40  C   UNL     1     -15.149 -13.594  -2.739  1.00  0.00     0.001 C 
BRANCH  40  41
HETATM   41  C   UNL     1     -13.696 -13.348  -3.117  1.00  0.00     0.000 C 
BRANCH  41  42
HETATM   42  C   UNL     1     -13.527 -13.229  -4.630  1.00  0.00     0.000 C 
BRANCH  42  43
HETATM   43  C   UNL     1     -14.730 -13.844  -5.340  1.00  0.00     0.000 C 
BRANCH  43  44
HETATM   44  C   UNL     1     -14.391 -15.204  -5.940  1.00  0.00    -0.000 C 
BRANCH  44  45
HETATM   45  C   UNL     1     -15.406 -16.257  -5.503  1.00  0.00    -0.005 C 
HETATM   46  C   UNL     1     -16.484 -16.440  -6.557  1.00  0.00     0.005 C 
ENDBRANCH  44  45
ENDBRANCH  43  44
ENDBRANCH  42  43
ENDBRANCH  41  42
ENDBRANCH  40  41
ENDBRANCH  39  40
ENDBRANCH  32  39
ENDBRANCH  30  32
ENDBRANCH  29  30
ENDBRANCH  28  29
ENDBRANCH   7  28
BRANCH   6  47
HETATM   47  O   UNL     1     -20.724 -13.682  -0.711  1.00  0.00    -0.276 OA
BRANCH  47  48
HETATM   48  C   UNL     1     -20.379 -14.546   0.340  1.00  0.00     0.268 C 
HETATM   49  O   UNL     1     -20.978 -14.682   1.389  1.00  0.00    -0.264 OA
BRANCH  48  50
HETATM   50  C   UNL     1     -19.172 -15.449   0.053  1.00  0.00     0.086 C 
BRANCH  50  51
HETATM   51  C   UNL     1     -18.439 -15.065  -1.249  1.00  0.00     0.014 C 
BRANCH  51  52
HETATM   52  C   UNL     1     -18.730 -16.083  -2.364  1.00  0.00     0.001 C 
BRANCH  52  53
HETATM   53  C   UNL     1     -18.791 -15.503  -3.773  1.00  0.00     0.000 C 
BRANCH  53  54
HETATM   54  C   UNL     1     -19.074 -13.997  -3.672  1.00  0.00    -0.000 C 
BRANCH  54  55
HETATM   55  C   UNL     1     -18.273 -13.179  -4.678  1.00  0.00    -0.005 C 
HETATM   56  C   UNL     1     -18.698 -13.511  -6.101  1.00  0.00     0.005 C 
ENDBRANCH  54  55
ENDBRANCH  53  54
ENDBRANCH  52  53
ENDBRANCH  51  52
ENDBRANCH  50  51
BRANCH  50  57
HETATM   57  C   UNL     1     -18.215 -15.288   1.278  1.00  0.00     0.014 C 
BRANCH  57  58
HETATM   58  C   UNL     1     -16.731 -15.452   0.930  1.00  0.00     0.001 C 
BRANCH  58  59
HETATM   59  C   UNL     1     -15.819 -14.787   1.955  1.00  0.00     0.000 C 
BRANCH  59  60
HETATM   60  C   UNL     1     -14.474 -15.496   2.020  1.00  0.00     0.000 C 
BRANCH  60  61
HETATM   61  C   UNL     1     -13.671 -15.279   0.756  1.00  0.00     0.000 C 
BRANCH  61  62
HETATM   62  C   UNL     1     -12.816 -14.030   0.925  1.00  0.00    -0.000 C 
BRANCH  62  63
HETATM   63  C   UNL     1     -11.344 -14.390   0.871  1.00  0.00    -0.005 C 
HETATM   64  C   UNL     1     -10.480 -13.186   1.191  1.00  0.00     0.005 C 
ENDBRANCH  62  63
ENDBRANCH  61  62
ENDBRANCH  60  61
ENDBRANCH  59  60
ENDBRANCH  58  59
ENDBRANCH  57  58
ENDBRANCH  50  57
ENDBRANCH  48  50
ENDBRANCH  47  48
ENDBRANCH   6  47
TORSDOF 47
ENDMDL
MODEL 9
REMARK VINA RESULT:      -6.0      3.087      9.055
REMARK WARNING: 32 MAX_TORS EXCEEDED!!!
REMARK  47 active torsions:
REMARK  status: ('A' for Active; 'I' for Inactive)
REMARK    1  A    between atoms: C_2  and  C_3 
REMARK    2  A    between atoms: C_3  and  C_4 
REMARK    3  A    between atoms: C_4  and  C_5 
REMARK    4  A    between atoms: C_5  and  C_6 
REMARK    5  A    between atoms: C_6  and  C_7 
REMARK    6  A    between atoms: C_7  and  C_8 
REMARK    7  A    between atoms: C_8  and  C_9 
REMARK    8  A    between atoms: C_9  and  C_10 
REMARK    9  A    between atoms: C_9  and  C_16 
REMARK   10  A    between atoms: C_10  and  C_11 
REMARK   11  A    between atoms: C_11  and  C_12 
REMARK   12  A    between atoms: C_12  and  C_13 
REMARK   13  A    between atoms: C_13  and  C_14 
REMARK   14  A    between atoms: C_16  and  O_18 
REMARK   15  A    between atoms: O_18  and  C_19 
REMARK   16  A    between atoms: C_19  and  C_20 
REMARK   17  A    between atoms: C_25  and  O_46 
REMARK   18  A    between atoms: C_26  and  C_27 
REMARK   19  A    between atoms: C_27  and  O_28 
REMARK   20  A    between atoms: O_28  and  C_29 
REMARK   21  A    between atoms: C_29  and  C_31 
REMARK   22  A    between atoms: C_31  and  C_32 
REMARK   23  A    between atoms: C_31  and  C_38 
REMARK   24  A    between atoms: C_32  and  C_33 
REMARK   25  A    between atoms: C_33  and  C_34 
REMARK   26  A    between atoms: C_34  and  C_35 
REMARK   27  A    between atoms: C_35  and  C_36 
REMARK   28  A    between atoms: C_38  and  C_39 
REMARK   29  A    between atoms: C_39  and  C_40 
REMARK   30  A    between atoms: C_40  and  C_41 
REMARK   31  A    between atoms: C_41  and  C_42 
REMARK   32  A    between atoms: C_42  and  C_43 
REMARK   33  A    between atoms: C_43  and  C_44 
REMARK   34  A    between atoms: O_46  and  C_47 
REMARK   35  A    between atoms: C_47  and  C_49 
REMARK   36  A    between atoms: C_49  and  C_50 
REMARK   37  A    between atoms: C_49  and  C_56 
REMARK   38  A    between atoms: C_50  and  C_51 
REMARK   39  A    between atoms: C_51  and  C_52 
REMARK   40  A    between atoms: C_52  and  C_53 
REMARK   41  A    between atoms: C_53  and  C_54 
REMARK   42  A    between atoms: C_56  and  C_57 
REMARK   43  A    between atoms: C_57  and  C_58 
REMARK   44  A    between atoms: C_58  and  C_59 
REMARK   45  A    between atoms: C_59  and  C_60 
REMARK   46  A    between atoms: C_60  and  C_61 
REMARK   47  A    between atoms: C_61  and  C_62 
ROOT
HETATM    1  C   UNL     1     -16.049 -10.714  -3.905  1.00  0.00    -0.007 A 
HETATM    2  C   UNL     1     -15.530 -10.994  -5.162  1.00  0.00     0.098 A 
HETATM    3  N   UNL     1     -14.610 -11.933  -5.396  1.00  0.00    -0.367 N 
ATOM      4  HN  UNL     1     -14.263 -12.094  -6.342  1.00  0.00     0.165 HD
HETATM    5  C   UNL     1     -14.142 -12.671  -4.358  1.00  0.00     0.040 A 
HETATM    6  C   UNL     1     -14.611 -12.498  -3.042  1.00  0.00     0.110 A 
HETATM    7  C   UNL     1     -15.609 -11.496  -2.808  1.00  0.00     0.012 A 
HETATM    8  C   UNL     1     -13.120 -13.650  -4.837  1.00  0.00     0.071 C 
ENDROOT
BRANCH   1   9
HETATM    9  C   UNL     1     -17.113  -9.644  -3.863  1.00  0.00     0.219 C 
BRANCH   9  10
HETATM   10  O   UNL     1     -18.201 -10.128  -4.653  1.00  0.00    -0.317 OA
BRANCH  10  11
HETATM   11  C   UNL     1     -18.887  -9.161  -5.321  1.00  0.00     0.263 C 
HETATM   12  O   UNL     1     -18.527  -8.641  -6.373  1.00  0.00    -0.265 OA
BRANCH  11  13
HETATM   13  C   UNL     1     -20.125  -8.776  -4.532  1.00  0.00     0.085 C 
BRANCH  13  14
HETATM   14  C   UNL     1     -21.181  -8.326  -5.560  1.00  0.00     0.014 C 
BRANCH  14  15
HETATM   15  C   UNL     1     -21.584  -6.853  -5.556  1.00  0.00     0.001 C 
BRANCH  15  16
HETATM   16  C   UNL     1     -20.429  -5.865  -5.696  1.00  0.00     0.000 C 
BRANCH  16  17
HETATM   17  C   UNL     1     -20.372  -5.372  -7.142  1.00  0.00     0.000 C 
BRANCH  17  18
HETATM   18  C   UNL     1     -21.322  -4.209  -7.380  1.00  0.00     0.000 C 
BRANCH  18  19
HETATM   19  C   UNL     1     -21.673  -4.093  -8.862  1.00  0.00    -0.000 C 
BRANCH  19  20
HETATM   20  C   UNL     1     -20.476  -4.481  -9.723  1.00  0.00    -0.005 C 
HETATM   21  C   UNL     1     -20.508  -3.780 -11.069  1.00  0.00     0.005 C 
ENDBRANCH  19  20
ENDBRANCH  18  19
ENDBRANCH  17  18
ENDBRANCH  16  17
ENDBRANCH  15  16
ENDBRANCH  14  15
ENDBRANCH  13  14
BRANCH  13  22
HETATM   22  C   UNL     1     -20.538  -9.960  -3.648  1.00  0.00     0.014 C 
BRANCH  22  23
HETATM   23  C   UNL     1     -22.032 -10.336  -3.753  1.00  0.00     0.001 C 
BRANCH  23  24
HETATM   24  C   UNL     1     -22.356 -11.829  -3.603  1.00  0.00     0.000 C 
BRANCH  24  25
HETATM   25  C   UNL     1     -23.007 -12.141  -2.260  1.00  0.00    -0.000 C 
BRANCH  25  26
HETATM   26  C   UNL     1     -23.430 -10.881  -1.512  1.00  0.00    -0.005 C 
HETATM   27  C   UNL     1     -24.147 -11.250  -0.223  1.00  0.00     0.005 C 
ENDBRANCH  25  26
ENDBRANCH  24  25
ENDBRANCH  23  24
ENDBRANCH  22  23
ENDBRANCH  13  22
ENDBRANCH  11  13
ENDBRANCH  10  11
ENDBRANCH   9  10
ENDBRANCH   1   9
BRANCH   7  28
HETATM   28  C   UNL     1     -16.258 -11.294  -1.452  1.00  0.00     0.221 C 
BRANCH  28  29
HETATM   29  O   UNL     1     -17.046 -12.427  -1.045  1.00  0.00    -0.316 OA
BRANCH  29  30
HETATM   30  C   UNL     1     -18.083 -12.774  -1.845  1.00  0.00     0.263 C 
HETATM   31  O   UNL     1     -17.969 -13.173  -2.995  1.00  0.00    -0.265 OA
BRANCH  30  32
HETATM   32  C   UNL     1     -19.404 -12.610  -1.105  1.00  0.00     0.085 C 
BRANCH  32  33
HETATM   33  C   UNL     1     -19.982 -13.969  -0.666  1.00  0.00     0.014 C 
BRANCH  33  34
HETATM   34  C   UNL     1     -20.642 -13.979   0.714  1.00  0.00     0.001 C 
BRANCH  34  35
HETATM   35  C   UNL     1     -22.162 -14.163   0.627  1.00  0.00     0.000 C 
BRANCH  35  36
HETATM   36  C   UNL     1     -22.812 -13.867   1.981  1.00  0.00    -0.000 C 
BRANCH  36  37
HETATM   37  C   UNL     1     -22.274 -14.768   3.092  1.00  0.00    -0.005 C 
HETATM   38  C   UNL     1     -23.387 -15.208   4.029  1.00  0.00     0.005 C 
ENDBRANCH  36  37
ENDBRANCH  35  36
ENDBRANCH  34  35
ENDBRANCH  33  34
ENDBRANCH  32  33
BRANCH  32  39
HETATM   39  C   UNL     1     -19.247 -11.615   0.054  1.00  0.00     0.014 C 
BRANCH  39  40
HETATM   40  C   UNL     1     -20.176 -10.407  -0.122  1.00  0.00     0.001 C 
BRANCH  40  41
HETATM   41  C   UNL     1     -20.831 -10.028   1.199  1.00  0.00     0.000 C 
BRANCH  41  42
HETATM   42  C   UNL     1     -21.149  -8.536   1.255  1.00  0.00     0.000 C 
BRANCH  42  43
HETATM   43  C   UNL     1     -22.604  -8.296   0.862  1.00  0.00     0.000 C 
BRANCH  43  44
HETATM   44  C   UNL     1     -22.735  -7.131  -0.112  1.00  0.00    -0.000 C 
BRANCH  44  45
HETATM   45  C   UNL     1     -21.957  -7.406  -1.397  1.00  0.00    -0.005 C 
HETATM   46  C   UNL     1     -21.735  -6.125  -2.181  1.00  0.00     0.005 C 
ENDBRANCH  44  45
ENDBRANCH  43  44
ENDBRANCH  42  43
ENDBRANCH  41  42
ENDBRANCH  40  41
ENDBRANCH  39  40
ENDBRANCH  32  39
ENDBRANCH  30  32
ENDBRANCH  29  30
ENDBRANCH  28  29
ENDBRANCH   7  28
BRANCH   6  47
HETATM   47  O   UNL     1     -14.228 -13.323  -1.912  1.00  0.00    -0.276 OA
BRANCH  47  48
HETATM   48  C   UNL     1     -14.666 -14.631  -1.651  1.00  0.00     0.268 C 
HETATM   49  O   UNL     1     -15.296 -15.345  -2.406  1.00  0.00    -0.264 OA
BRANCH  48  50
HETATM   50  C   UNL     1     -14.204 -15.201  -0.303  1.00  0.00     0.086 C 
BRANCH  50  51
HETATM   51  C   UNL     1     -12.733 -15.667  -0.328  1.00  0.00     0.014 C 
BRANCH  51  52
HETATM   52  C   UNL     1     -11.830 -14.678   0.428  1.00  0.00     0.001 C 
BRANCH  52  53
HETATM   53  C   UNL     1     -10.608 -15.297   1.098  1.00  0.00     0.000 C 
BRANCH  53  54
HETATM   54  C   UNL     1      -9.534 -14.211   1.260  1.00  0.00    -0.000 C 
BRANCH  54  55
HETATM   55  C   UNL     1      -8.604 -14.477   2.437  1.00  0.00    -0.005 C 
HETATM   56  C   UNL     1      -9.060 -13.706   3.668  1.00  0.00     0.005 C 
ENDBRANCH  54  55
ENDBRANCH  53  54
ENDBRANCH  52  53
ENDBRANCH  51  52
ENDBRANCH  50  51
BRANCH  50  57
HETATM   57  C   UNL     1     -14.386 -14.048   0.735  1.00  0.00     0.014 C 
BRANCH  57  58
HETATM   58  C   UNL     1     -15.248 -14.433   1.943  1.00  0.00     0.001 C 
BRANCH  58  59
HETATM   59  C   UNL     1     -14.534 -15.403   2.878  1.00  0.00     0.000 C 
BRANCH  59  60
HETATM   60  C   UNL     1     -15.083 -15.290   4.293  1.00  0.00     0.000 C 
BRANCH  60  61
HETATM   61  C   UNL     1     -14.390 -16.251   5.235  1.00  0.00     0.000 C 
BRANCH  61  62
HETATM   62  C   UNL     1     -13.553 -15.452   6.225  1.00  0.00    -0.000 C 
BRANCH  62  63
HETATM   63  C   UNL     1     -12.153 -16.030   6.316  1.00  0.00    -0.005 C 
HETATM   64  C   UNL     1     -11.511 -16.110   4.946  1.00  0.00     0.005 C 
ENDBRANCH  62  63
ENDBRANCH  61  62
ENDBRANCH  60  61
ENDBRANCH  59  60
ENDBRANCH  58  59
ENDBRANCH  57  58
ENDBRANCH  50  57
ENDBRANCH  48  50
ENDBRANCH  47  48
ENDBRANCH   6  47
TORSDOF 47
ENDMDL
