MODEL 1
REMARK VINA RESULT:      -5.9      0.000      0.000
REMARK  22 active torsions:
REMARK  status: ('A' for Active; 'I' for Inactive)
REMARK       I    between atoms: C_2  and  N_4 
REMARK    1  A    between atoms: N_4  and  C_5 
REMARK    2  A    between atoms: C_6  and  O_51 
REMARK    3  A    between atoms: C_7  and  O_25 
REMARK    4  A    between atoms: C_8  and  C_23 
REMARK    5  A    between atoms: C_10  and  N_11 
REMARK       I    between atoms: N_11  and  C_12 
REMARK    6  A    between atoms: C_12  and  C_14 
REMARK    7  A    between atoms: C_14  and  C_15 
REMARK    8  A    between atoms: C_15  and  C_16 
REMARK    9  A    between atoms: C_15  and  N_19 
REMARK       I    between atoms: C_16  and  N_18 
REMARK       I    between atoms: N_19  and  C_20 
REMARK   10  A    between atoms: C_23  and  O_24 
REMARK   11  A    between atoms: O_25  and  C_26 
REMARK   12  A    between atoms: C_27  and  N_47 
REMARK   13  A    between atoms: C_28  and  O_46 
REMARK   14  A    between atoms: C_29  and  O_34 
REMARK   15  A    between atoms: C_30  and  C_32 
REMARK   16  A    between atoms: C_32  and  O_33 
REMARK   17  A    between atoms: O_34  and  C_35 
REMARK   18  A    between atoms: C_36  and  O_45 
REMARK   19  A    between atoms: C_37  and  O_44 
REMARK   20  A    between atoms: C_38  and  O_43 
REMARK   21  A    between atoms: C_39  and  C_41 
REMARK   22  A    between atoms: C_41  and  O_42 
REMARK       I    between atoms: N_47  and  C_48 
ROOT
HETATM    1  O   UNL     1     -19.453 -12.191  -1.087  1.00  0.00    -0.348 OA
ENDROOT
BRANCH   1   2
HETATM    2  C   UNL     1     -20.523 -11.499  -1.773  1.00  0.00     0.186 C 
HETATM    3  C   UNL     1     -19.994 -10.953  -3.074  1.00  0.00     0.176 C 
HETATM    4  C   UNL     1     -19.162  -9.665  -2.931  1.00  0.00     0.164 C 
HETATM    5  C   UNL     1     -20.033  -8.551  -2.300  1.00  0.00     0.249 C 
HETATM    6  O   UNL     1     -20.610  -9.017  -1.071  1.00  0.00    -0.354 OA
HETATM    7  C   UNL     1     -21.235 -10.323  -1.014  1.00  0.00     0.179 C 
BRANCH   3   8
HETATM    8  O   UNL     1     -21.069 -10.795  -4.010  1.00  0.00    -0.391 OA
HETATM    9  H   UNL     1     -21.856 -10.526  -3.500  1.00  0.00     0.210 HD
ENDBRANCH   3   8
BRANCH   4  10
HETATM   10  N   UNL     1     -18.650  -9.387  -4.276  1.00  0.00    -0.350 N 
HETATM   11  C   UNL     1     -17.453  -9.817  -4.773  1.00  0.00     0.214 C 
HETATM   12  C   UNL     1     -17.261  -9.410  -6.220  1.00  0.00     0.117 C 
HETATM   13  O   UNL     1     -16.634 -10.461  -4.139  1.00  0.00    -0.274 OA
HETATM   14  H   UNL     1     -19.304  -9.004  -4.953  1.00  0.00     0.163 HD
ENDBRANCH   4  10
BRANCH   5  15
HETATM   15  N   UNL     1     -21.099  -8.058  -3.174  1.00  0.00    -0.333 N 
HETATM   16  C   UNL     1     -21.525  -6.741  -3.157  1.00  0.00     0.222 C 
HETATM   17  O   UNL     1     -21.189  -5.923  -2.312  1.00  0.00    -0.273 OA
HETATM   18  H   UNL     1     -21.774  -8.736  -3.488  1.00  0.00     0.165 HD
BRANCH  16  19
HETATM   19  C   UNL     1     -22.454  -6.381  -4.314  1.00  0.00     0.137 C 
BRANCH  19  20
HETATM   20  C   UNL     1     -21.654  -5.859  -5.517  1.00  0.00     0.185 C 
BRANCH  20  21
HETATM   21  C   UNL     1     -20.791  -6.992  -6.160  1.00  0.00     0.238 C 
HETATM   22  O   UNL     1     -21.070  -8.176  -6.073  1.00  0.00    -0.271 OA
HETATM   23  N   UNL     1     -19.713  -6.559  -6.854  1.00  0.00    -0.368 N 
HETATM   24  H   UNL     1     -19.430  -5.580  -6.865  1.00  0.00     0.159 HD
HETATM   25  H   UNL     1     -19.061  -7.245  -7.237  1.00  0.00     0.159 HD
ENDBRANCH  20  21
BRANCH  20  26
HETATM   26  N   UNL     1     -22.539  -5.374  -6.598  1.00  0.00    -0.348 N 
HETATM   27  C   UNL     1     -22.165  -4.286  -7.363  1.00  0.00     0.214 C 
HETATM   28  O   UNL     1     -21.146  -3.630  -7.139  1.00  0.00    -0.274 OA
HETATM   29  C   UNL     1     -23.046  -4.010  -8.539  1.00  0.00     0.117 C 
HETATM   30  H   UNL     1     -23.091  -6.072  -7.069  1.00  0.00     0.163 HD
ENDBRANCH  20  26
ENDBRANCH  19  20
ENDBRANCH  16  19
ENDBRANCH   5  15
BRANCH   7  31
HETATM   31  C   UNL     1     -22.700 -10.178  -1.502  1.00  0.00     0.198 C 
BRANCH  31  32
HETATM   32  O   UNL     1     -23.279 -11.422  -1.875  1.00  0.00    -0.398 OA
HETATM   33  H   UNL     1     -23.846 -11.261  -2.650  1.00  0.00     0.209 HD
ENDBRANCH  31  32
ENDBRANCH   7  31
ENDBRANCH   1   2
BRANCH   1  34
HETATM   34  C   UNL     1     -19.439 -13.646  -1.290  1.00  0.00     0.286 C 
HETATM   35  C   UNL     1     -19.372 -14.441   0.033  1.00  0.00     0.170 C 
HETATM   36  C   UNL     1     -17.970 -14.280   0.606  1.00  0.00     0.177 C 
HETATM   37  C   UNL     1     -16.856 -14.847  -0.260  1.00  0.00     0.186 C 
HETATM   38  C   UNL     1     -17.092 -14.467  -1.760  1.00  0.00     0.180 C 
HETATM   39  O   UNL     1     -18.451 -14.183  -2.196  1.00  0.00    -0.349 OA
BRANCH  35  40
HETATM   40  N   UNL     1     -20.474 -14.135   0.974  1.00  0.00    -0.349 N 
HETATM   41  C   UNL     1     -21.821 -14.051   0.645  1.00  0.00     0.214 C 
HETATM   42  O   UNL     1     -22.305 -14.163  -0.471  1.00  0.00    -0.274 OA
HETATM   43  C   UNL     1     -22.728 -13.799   1.811  1.00  0.00     0.117 C 
HETATM   44  H   UNL     1     -20.208 -13.865   1.913  1.00  0.00     0.163 HD
ENDBRANCH  35  40
BRANCH  36  45
HETATM   45  O   UNL     1     -17.649 -12.901   0.823  1.00  0.00    -0.391 OA
HETATM   46  H   UNL     1     -18.227 -12.383   0.232  1.00  0.00     0.210 HD
ENDBRANCH  36  45
BRANCH  37  47
HETATM   47  O   UNL     1     -16.393 -16.184   0.106  1.00  0.00    -0.348 OA
BRANCH  47  48
HETATM   48  C   UNL     1     -14.964 -16.247   0.466  1.00  0.00     0.292 C 
HETATM   49  C   UNL     1     -14.384 -15.330   1.582  1.00  0.00     0.204 C 
HETATM   50  C   UNL     1     -13.698 -14.070   1.077  1.00  0.00     0.183 C 
HETATM   51  C   UNL     1     -12.683 -14.381  -0.019  1.00  0.00     0.180 C 
HETATM   52  C   UNL     1     -13.083 -15.504  -1.001  1.00  0.00     0.179 C 
HETATM   53  O   UNL     1     -14.159 -16.388  -0.694  1.00  0.00    -0.348 OA
BRANCH  49  54
HETATM   54  O   UNL     1     -15.301 -14.973   2.620  1.00  0.00    -0.388 OA
HETATM   55  H   UNL     1     -15.980 -14.430   2.162  1.00  0.00     0.210 HD
ENDBRANCH  49  54
BRANCH  50  56
HETATM   56  O   UNL     1     -14.697 -13.130   0.677  1.00  0.00    -0.390 OA
HETATM   57  H   UNL     1     -15.087 -12.734   1.480  1.00  0.00     0.210 HD
ENDBRANCH  50  56
BRANCH  51  58
HETATM   58  O   UNL     1     -11.402 -14.716   0.558  1.00  0.00    -0.390 OA
HETATM   59  H   UNL     1     -11.184 -15.651   0.404  1.00  0.00     0.210 HD
ENDBRANCH  51  58
BRANCH  52  60
HETATM   60  C   UNL     1     -13.432 -14.950  -2.383  1.00  0.00     0.198 C 
BRANCH  60  61
HETATM   61  O   UNL     1     -12.622 -13.811  -2.664  1.00  0.00    -0.398 OA
HETATM   62  H   UNL     1     -12.534 -13.332  -1.815  1.00  0.00     0.209 HD
ENDBRANCH  60  61
ENDBRANCH  52  60
ENDBRANCH  47  48
ENDBRANCH  37  47
BRANCH  38  63
HETATM   63  C   UNL     1     -16.198 -13.234  -2.083  1.00  0.00     0.198 C 
BRANCH  63  64
HETATM   64  O   UNL     1     -16.722 -12.018  -1.558  1.00  0.00    -0.398 OA
HETATM   65  H   UNL     1     -16.773 -11.382  -2.293  1.00  0.00     0.209 HD
ENDBRANCH  63  64
ENDBRANCH  38  63
ENDBRANCH   1  34
TORSDOF 22
ENDMDL
MODEL 2
REMARK VINA RESULT:      -5.9      2.911      5.347
REMARK  22 active torsions:
REMARK  status: ('A' for Active; 'I' for Inactive)
REMARK       I    between atoms: C_2  and  N_4 
REMARK    1  A    between atoms: N_4  and  C_5 
REMARK    2  A    between atoms: C_6  and  O_51 
REMARK    3  A    between atoms: C_7  and  O_25 
REMARK    4  A    between atoms: C_8  and  C_23 
REMARK    5  A    between atoms: C_10  and  N_11 
REMARK       I    between atoms: N_11  and  C_12 
REMARK    6  A    between atoms: C_12  and  C_14 
REMARK    7  A    between atoms: C_14  and  C_15 
REMARK    8  A    between atoms: C_15  and  C_16 
REMARK    9  A    between atoms: C_15  and  N_19 
REMARK       I    between atoms: C_16  and  N_18 
REMARK       I    between atoms: N_19  and  C_20 
REMARK   10  A    between atoms: C_23  and  O_24 
REMARK   11  A    between atoms: O_25  and  C_26 
REMARK   12  A    between atoms: C_27  and  N_47 
REMARK   13  A    between atoms: C_28  and  O_46 
REMARK   14  A    between atoms: C_29  and  O_34 
REMARK   15  A    between atoms: C_30  and  C_32 
REMARK   16  A    between atoms: C_32  and  O_33 
REMARK   17  A    between atoms: O_34  and  C_35 
REMARK   18  A    between atoms: C_36  and  O_45 
REMARK   19  A    between atoms: C_37  and  O_44 
REMARK   20  A    between atoms: C_38  and  O_43 
REMARK   21  A    between atoms: C_39  and  C_41 
REMARK   22  A    between atoms: C_41  and  O_42 
REMARK       I    between atoms: N_47  and  C_48 
ROOT
HETATM    1  O   UNL     1     -15.885 -13.986  -2.507  1.00  0.00    -0.348 OA
ENDROOT
BRANCH   1   2
HETATM    2  C   UNL     1     -17.155 -13.299  -2.409  1.00  0.00     0.186 C 
HETATM    3  C   UNL     1     -17.972 -13.610  -3.637  1.00  0.00     0.176 C 
HETATM    4  C   UNL     1     -17.563 -12.816  -4.891  1.00  0.00     0.164 C 
HETATM    5  C   UNL     1     -17.722 -11.299  -4.621  1.00  0.00     0.249 C 
HETATM    6  O   UNL     1     -17.001 -10.935  -3.434  1.00  0.00    -0.354 OA
HETATM    7  C   UNL     1     -17.128 -11.739  -2.235  1.00  0.00     0.179 C 
BRANCH   3   8
HETATM    8  O   UNL     1     -19.369 -13.465  -3.343  1.00  0.00    -0.391 OA
HETATM    9  H   UNL     1     -19.435 -12.994  -2.491  1.00  0.00     0.210 HD
ENDBRANCH   3   8
BRANCH   4  10
HETATM   10  N   UNL     1     -18.387 -13.359  -5.975  1.00  0.00    -0.350 N 
HETATM   11  C   UNL     1     -17.927 -13.751  -7.199  1.00  0.00     0.214 C 
HETATM   12  C   UNL     1     -19.032 -14.327  -8.061  1.00  0.00     0.117 C 
HETATM   13  O   UNL     1     -16.765 -13.662  -7.561  1.00  0.00    -0.274 OA
HETATM   14  H   UNL     1     -19.336 -13.636  -5.743  1.00  0.00     0.163 HD
ENDBRANCH   4  10
BRANCH   5  15
HETATM   15  N   UNL     1     -19.112 -10.857  -4.494  1.00  0.00    -0.333 N 
HETATM   16  C   UNL     1     -19.629  -9.809  -5.236  1.00  0.00     0.222 C 
HETATM   17  O   UNL     1     -18.952  -9.054  -5.921  1.00  0.00    -0.273 OA
HETATM   18  H   UNL     1     -19.564 -11.039  -3.613  1.00  0.00     0.165 HD
BRANCH  16  19
HETATM   19  C   UNL     1     -21.148  -9.681  -5.142  1.00  0.00     0.137 C 
BRANCH  19  20
HETATM   20  C   UNL     1     -21.543  -8.421  -4.357  1.00  0.00     0.185 C 
BRANCH  20  21
HETATM   21  C   UNL     1     -21.244  -8.585  -2.832  1.00  0.00     0.238 C 
HETATM   22  O   UNL     1     -20.531  -7.820  -2.204  1.00  0.00    -0.271 OA
HETATM   23  N   UNL     1     -21.864  -9.633  -2.242  1.00  0.00    -0.368 N 
HETATM   24  H   UNL     1     -22.397 -10.320  -2.774  1.00  0.00     0.159 HD
HETATM   25  H   UNL     1     -21.656  -9.847  -1.266  1.00  0.00     0.159 HD
ENDBRANCH  20  21
BRANCH  20  26
HETATM   26  N   UNL     1     -20.766  -7.239  -4.788  1.00  0.00    -0.348 N 
HETATM   27  C   UNL     1     -21.419  -6.087  -5.184  1.00  0.00     0.214 C 
HETATM   28  O   UNL     1     -22.646  -6.013  -5.276  1.00  0.00    -0.274 OA
HETATM   29  C   UNL     1     -20.531  -4.907  -5.412  1.00  0.00     0.117 C 
HETATM   30  H   UNL     1     -19.874  -7.105  -4.340  1.00  0.00     0.163 HD
ENDBRANCH  20  26
ENDBRANCH  19  20
ENDBRANCH  16  19
ENDBRANCH   5  15
BRANCH   7  31
HETATM   31  C   UNL     1     -18.389 -11.263  -1.466  1.00  0.00     0.198 C 
BRANCH  31  32
HETATM   32  O   UNL     1     -18.813 -12.194  -0.478  1.00  0.00    -0.398 OA
HETATM   33  H   UNL     1     -18.480 -13.070  -0.740  1.00  0.00     0.209 HD
ENDBRANCH  31  32
ENDBRANCH   7  31
ENDBRANCH   1   2
BRANCH   1  34
HETATM   34  C   UNL     1     -14.729 -13.197  -2.058  1.00  0.00     0.286 C 
HETATM   35  C   UNL     1     -13.387 -13.718  -2.618  1.00  0.00     0.170 C 
HETATM   36  C   UNL     1     -13.058 -15.024  -1.906  1.00  0.00     0.177 C 
HETATM   37  C   UNL     1     -12.847 -14.900  -0.406  1.00  0.00     0.186 C 
HETATM   38  C   UNL     1     -13.942 -13.971   0.219  1.00  0.00     0.180 C 
HETATM   39  O   UNL     1     -14.581 -12.983  -0.638  1.00  0.00    -0.349 OA
BRANCH  35  40
HETATM   40  N   UNL     1     -13.336 -13.778  -4.097  1.00  0.00    -0.349 N 
HETATM   41  C   UNL     1     -13.662 -12.740  -4.962  1.00  0.00     0.214 C 
HETATM   42  O   UNL     1     -14.089 -11.640  -4.648  1.00  0.00    -0.274 OA
HETATM   43  C   UNL     1     -13.448 -13.055  -6.412  1.00  0.00     0.117 C 
HETATM   44  H   UNL     1     -13.144 -14.682  -4.508  1.00  0.00     0.163 HD
ENDBRANCH  35  40
BRANCH  36  45
HETATM   45  O   UNL     1     -14.097 -15.994  -2.087  1.00  0.00    -0.391 OA
HETATM   46  H   UNL     1     -13.665 -16.814  -2.388  1.00  0.00     0.210 HD
ENDBRANCH  36  45
BRANCH  37  47
HETATM   47  O   UNL     1     -11.454 -14.806   0.027  1.00  0.00    -0.348 OA
BRANCH  47  48
HETATM   48  C   UNL     1     -11.287 -14.332   1.414  1.00  0.00     0.292 C 
HETATM   49  C   UNL     1     -10.215 -13.260   1.763  1.00  0.00     0.204 C 
HETATM   50  C   UNL     1      -8.913 -13.819   2.317  1.00  0.00     0.183 C 
HETATM   51  C   UNL     1      -9.161 -14.801   3.458  1.00  0.00     0.180 C 
HETATM   52  C   UNL     1     -10.402 -15.707   3.302  1.00  0.00     0.179 C 
HETATM   53  O   UNL     1     -11.402 -15.408   2.331  1.00  0.00    -0.348 OA
BRANCH  49  54
HETATM   54  O   UNL     1      -9.911 -12.333   0.717  1.00  0.00    -0.388 OA
HETATM   55  H   UNL     1      -9.826 -11.471   1.180  1.00  0.00     0.210 HD
ENDBRANCH  49  54
BRANCH  50  56
HETATM   56  O   UNL     1      -8.158 -14.378   1.240  1.00  0.00    -0.390 OA
HETATM   57  H   UNL     1      -7.339 -14.764   1.606  1.00  0.00     0.210 HD
ENDBRANCH  50  56
BRANCH  51  58
HETATM   58  O   UNL     1      -9.267 -14.098   4.715  1.00  0.00    -0.390 OA
HETATM   59  H   UNL     1     -10.174 -13.782   4.863  1.00  0.00     0.210 HD
ENDBRANCH  51  58
BRANCH  52  60
HETATM   60  C   UNL     1     -10.010 -17.156   3.007  1.00  0.00     0.198 C 
BRANCH  60  61
HETATM   61  O   UNL     1      -8.901 -17.183   2.114  1.00  0.00    -0.398 OA
HETATM   62  H   UNL     1      -9.029 -17.976   1.555  1.00  0.00     0.209 HD
ENDBRANCH  60  61
ENDBRANCH  52  60
ENDBRANCH  47  48
ENDBRANCH  37  47
BRANCH  38  63
HETATM   63  C   UNL     1     -15.043 -14.883   0.834  1.00  0.00     0.198 C 
BRANCH  63  64
HETATM   64  O   UNL     1     -14.693 -15.382   2.121  1.00  0.00    -0.398 OA
HETATM   65  H   UNL     1     -14.641 -16.351   2.053  1.00  0.00     0.209 HD
ENDBRANCH  63  64
ENDBRANCH  38  63
ENDBRANCH   1  34
TORSDOF 22
ENDMDL
MODEL 3
REMARK VINA RESULT:      -5.6      1.601      3.078
REMARK  22 active torsions:
REMARK  status: ('A' for Active; 'I' for Inactive)
REMARK       I    between atoms: C_2  and  N_4 
REMARK    1  A    between atoms: N_4  and  C_5 
REMARK    2  A    between atoms: C_6  and  O_51 
REMARK    3  A    between atoms: C_7  and  O_25 
REMARK    4  A    between atoms: C_8  and  C_23 
REMARK    5  A    between atoms: C_10  and  N_11 
REMARK       I    between atoms: N_11  and  C_12 
REMARK    6  A    between atoms: C_12  and  C_14 
REMARK    7  A    between atoms: C_14  and  C_15 
REMARK    8  A    between atoms: C_15  and  C_16 
REMARK    9  A    between atoms: C_15  and  N_19 
REMARK       I    between atoms: C_16  and  N_18 
REMARK       I    between atoms: N_19  and  C_20 
REMARK   10  A    between atoms: C_23  and  O_24 
REMARK   11  A    between atoms: O_25  and  C_26 
REMARK   12  A    between atoms: C_27  and  N_47 
REMARK   13  A    between atoms: C_28  and  O_46 
REMARK   14  A    between atoms: C_29  and  O_34 
REMARK   15  A    between atoms: C_30  and  C_32 
REMARK   16  A    between atoms: C_32  and  O_33 
REMARK   17  A    between atoms: O_34  and  C_35 
REMARK   18  A    between atoms: C_36  and  O_45 
REMARK   19  A    between atoms: C_37  and  O_44 
REMARK   20  A    between atoms: C_38  and  O_43 
REMARK   21  A    between atoms: C_39  and  C_41 
REMARK   22  A    between atoms: C_41  and  O_42 
REMARK       I    between atoms: N_47  and  C_48 
ROOT
HETATM    1  O   UNL     1     -19.395 -11.624  -2.176  1.00  0.00    -0.348 OA
ENDROOT
BRANCH   1   2
HETATM    2  C   UNL     1     -19.033 -10.770  -3.286  1.00  0.00     0.186 C 
HETATM    3  C   UNL     1     -19.526  -9.373  -3.007  1.00  0.00     0.176 C 
HETATM    4  C   UNL     1     -21.033  -9.170  -3.254  1.00  0.00     0.164 C 
HETATM    5  C   UNL     1     -21.362  -9.471  -4.737  1.00  0.00     0.249 C 
HETATM    6  O   UNL     1     -20.880 -10.777  -5.090  1.00  0.00    -0.354 OA
HETATM    7  C   UNL     1     -19.539 -11.179  -4.716  1.00  0.00     0.179 C 
BRANCH   3   8
HETATM    8  O   UNL     1     -18.732  -8.421  -3.729  1.00  0.00    -0.391 OA
HETATM    9  H   UNL     1     -17.984  -8.176  -3.151  1.00  0.00     0.210 HD
ENDBRANCH   3   8
BRANCH   4  10
HETATM   10  N   UNL     1     -21.314  -7.803  -2.805  1.00  0.00    -0.350 N 
HETATM   11  C   UNL     1     -21.951  -7.465  -1.646  1.00  0.00     0.214 C 
HETATM   12  C   UNL     1     -22.021  -5.964  -1.454  1.00  0.00     0.117 C 
HETATM   13  O   UNL     1     -22.404  -8.269  -0.848  1.00  0.00    -0.274 OA
HETATM   14  H   UNL     1     -20.845  -7.047  -3.295  1.00  0.00     0.163 HD
ENDBRANCH   4  10
BRANCH   5  15
HETATM   15  N   UNL     1     -20.825  -8.490  -5.681  1.00  0.00    -0.333 N 
HETATM   16  C   UNL     1     -21.358  -7.220  -5.816  1.00  0.00     0.222 C 
HETATM   17  O   UNL     1     -22.412  -6.861  -5.308  1.00  0.00    -0.273 OA
HETATM   18  H   UNL     1     -20.345  -8.855  -6.487  1.00  0.00     0.165 HD
BRANCH  16  19
HETATM   19  C   UNL     1     -20.498  -6.279  -6.658  1.00  0.00     0.137 C 
BRANCH  19  20
HETATM   20  C   UNL     1     -21.344  -5.576  -7.729  1.00  0.00     0.185 C 
BRANCH  20  21
HETATM   21  C   UNL     1     -22.052  -4.308  -7.152  1.00  0.00     0.238 C 
HETATM   22  O   UNL     1     -21.449  -3.311  -6.791  1.00  0.00    -0.271 OA
HETATM   23  N   UNL     1     -23.402  -4.384  -7.105  1.00  0.00    -0.368 N 
HETATM   24  H   UNL     1     -23.908  -5.240  -7.330  1.00  0.00     0.159 HD
HETATM   25  H   UNL     1     -23.927  -3.624  -6.670  1.00  0.00     0.159 HD
ENDBRANCH  20  21
BRANCH  20  26
HETATM   26  N   UNL     1     -20.516  -5.089  -8.853  1.00  0.00    -0.348 N 
HETATM   27  C   UNL     1     -21.117  -4.603  -9.998  1.00  0.00     0.214 C 
HETATM   28  O   UNL     1     -22.337  -4.626 -10.173  1.00  0.00    -0.274 OA
HETATM   29  C   UNL     1     -20.185  -3.969 -10.979  1.00  0.00     0.117 C 
HETATM   30  H   UNL     1     -19.636  -4.666  -8.607  1.00  0.00     0.163 HD
ENDBRANCH  20  26
ENDBRANCH  19  20
ENDBRANCH  16  19
ENDBRANCH   5  15
BRANCH   7  31
HETATM   31  C   UNL     1     -18.559 -10.659  -5.801  1.00  0.00     0.198 C 
BRANCH  31  32
HETATM   32  O   UNL     1     -17.233 -10.504  -5.313  1.00  0.00    -0.398 OA
HETATM   33  H   UNL     1     -17.202  -9.673  -4.808  1.00  0.00     0.209 HD
ENDBRANCH  31  32
ENDBRANCH   7  31
ENDBRANCH   1   2
BRANCH   1  34
HETATM   34  C   UNL     1     -19.348 -13.062  -2.473  1.00  0.00     0.286 C 
HETATM   35  C   UNL     1     -19.650 -13.944  -1.242  1.00  0.00     0.170 C 
HETATM   36  C   UNL     1     -18.451 -13.869  -0.305  1.00  0.00     0.177 C 
HETATM   37  C   UNL     1     -17.153 -14.414  -0.881  1.00  0.00     0.186 C 
HETATM   38  C   UNL     1     -16.972 -13.927  -2.358  1.00  0.00     0.180 C 
HETATM   39  O   UNL     1     -18.160 -13.570  -3.119  1.00  0.00    -0.349 OA
BRANCH  35  40
HETATM   40  N   UNL     1     -20.959 -13.665  -0.610  1.00  0.00    -0.349 N 
HETATM   41  C   UNL     1     -22.203 -13.921  -1.174  1.00  0.00     0.214 C 
HETATM   42  O   UNL     1     -22.416 -14.363  -2.292  1.00  0.00    -0.274 OA
HETATM   43  C   UNL     1     -23.364 -13.605  -0.280  1.00  0.00     0.117 C 
HETATM   44  H   UNL     1     -20.943 -13.152   0.263  1.00  0.00     0.163 HD
ENDBRANCH  35  40
BRANCH  36  45
HETATM   45  O   UNL     1     -18.180 -12.519   0.089  1.00  0.00    -0.391 OA
HETATM   46  H   UNL     1     -19.043 -12.099   0.262  1.00  0.00     0.210 HD
ENDBRANCH  36  45
BRANCH  37  47
HETATM   47  O   UNL     1     -16.825 -15.786  -0.502  1.00  0.00    -0.348 OA
BRANCH  47  48
HETATM   48  C   UNL     1     -15.547 -15.920   0.222  1.00  0.00     0.292 C 
HETATM   49  C   UNL     1     -15.302 -15.149   1.550  1.00  0.00     0.204 C 
HETATM   50  C   UNL     1     -14.517 -13.855   1.399  1.00  0.00     0.183 C 
HETATM   51  C   UNL     1     -13.239 -14.061   0.591  1.00  0.00     0.180 C 
HETATM   52  C   UNL     1     -13.346 -15.057  -0.585  1.00  0.00     0.179 C 
HETATM   53  O   UNL     1     -14.456 -15.946  -0.685  1.00  0.00    -0.348 OA
BRANCH  49  54
HETATM   54  O   UNL     1     -16.470 -14.892   2.335  1.00  0.00    -0.388 OA
HETATM   55  H   UNL     1     -16.518 -15.658   2.947  1.00  0.00     0.210 HD
ENDBRANCH  49  54
BRANCH  50  56
HETATM   56  O   UNL     1     -15.380 -12.855   0.854  1.00  0.00    -0.390 OA
HETATM   57  H   UNL     1     -15.451 -12.124   1.498  1.00  0.00     0.210 HD
ENDBRANCH  50  56
BRANCH  51  58
HETATM   58  O   UNL     1     -12.161 -14.487   1.451  1.00  0.00    -0.390 OA
HETATM   59  H   UNL     1     -12.050 -15.452   1.420  1.00  0.00     0.210 HD
ENDBRANCH  51  58
BRANCH  52  60
HETATM   60  C   UNL     1     -13.312 -14.341  -1.936  1.00  0.00     0.198 C 
BRANCH  60  61
HETATM   61  O   UNL     1     -13.107 -15.291  -2.979  1.00  0.00    -0.398 OA
HETATM   62  H   UNL     1     -13.917 -15.261  -3.528  1.00  0.00     0.209 HD
ENDBRANCH  60  61
ENDBRANCH  52  60
ENDBRANCH  47  48
ENDBRANCH  37  47
BRANCH  38  63
HETATM   63  C   UNL     1     -16.007 -12.706  -2.340  1.00  0.00     0.198 C 
BRANCH  63  64
HETATM   64  O   UNL     1     -15.735 -12.196  -3.642  1.00  0.00    -0.398 OA
HETATM   65  H   UNL     1     -15.526 -11.251  -3.546  1.00  0.00     0.209 HD
ENDBRANCH  63  64
ENDBRANCH  38  63
ENDBRANCH   1  34
TORSDOF 22
ENDMDL
MODEL 4
REMARK VINA RESULT:      -5.6      3.194      5.995
REMARK  22 active torsions:
REMARK  status: ('A' for Active; 'I' for Inactive)
REMARK       I    between atoms: C_2  and  N_4 
REMARK    1  A    between atoms: N_4  and  C_5 
REMARK    2  A    between atoms: C_6  and  O_51 
REMARK    3  A    between atoms: C_7  and  O_25 
REMARK    4  A    between atoms: C_8  and  C_23 
REMARK    5  A    between atoms: C_10  and  N_11 
REMARK       I    between atoms: N_11  and  C_12 
REMARK    6  A    between atoms: C_12  and  C_14 
REMARK    7  A    between atoms: C_14  and  C_15 
REMARK    8  A    between atoms: C_15  and  C_16 
REMARK    9  A    between atoms: C_15  and  N_19 
REMARK       I    between atoms: C_16  and  N_18 
REMARK       I    between atoms: N_19  and  C_20 
REMARK   10  A    between atoms: C_23  and  O_24 
REMARK   11  A    between atoms: O_25  and  C_26 
REMARK   12  A    between atoms: C_27  and  N_47 
REMARK   13  A    between atoms: C_28  and  O_46 
REMARK   14  A    between atoms: C_29  and  O_34 
REMARK   15  A    between atoms: C_30  and  C_32 
REMARK   16  A    between atoms: C_32  and  O_33 
REMARK   17  A    between atoms: O_34  and  C_35 
REMARK   18  A    between atoms: C_36  and  O_45 
REMARK   19  A    between atoms: C_37  and  O_44 
REMARK   20  A    between atoms: C_38  and  O_43 
REMARK   21  A    between atoms: C_39  and  C_41 
REMARK   22  A    between atoms: C_41  and  O_42 
REMARK       I    between atoms: N_47  and  C_48 
ROOT
HETATM    1  O   UNL     1     -15.990 -14.716  -2.237  1.00  0.00    -0.348 OA
ENDROOT
BRANCH   1   2
HETATM    2  C   UNL     1     -17.320 -14.179  -2.054  1.00  0.00     0.186 C 
HETATM    3  C   UNL     1     -17.904 -13.854  -3.405  1.00  0.00     0.176 C 
HETATM    4  C   UNL     1     -17.387 -12.543  -4.024  1.00  0.00     0.164 C 
HETATM    5  C   UNL     1     -17.733 -11.356  -3.091  1.00  0.00     0.249 C 
HETATM    6  O   UNL     1     -17.243 -11.615  -1.766  1.00  0.00    -0.354 OA
HETATM    7  C   UNL     1     -17.473 -12.905  -1.148  1.00  0.00     0.179 C 
BRANCH   3   8
HETATM    8  O   UNL     1     -19.337 -13.886  -3.338  1.00  0.00    -0.391 OA
HETATM    9  H   UNL     1     -19.660 -13.051  -3.728  1.00  0.00     0.210 HD
ENDBRANCH   3   8
BRANCH   4  10
HETATM   10  N   UNL     1     -17.976 -12.491  -5.365  1.00  0.00    -0.350 N 
HETATM   11  C   UNL     1     -17.306 -12.187  -6.514  1.00  0.00     0.214 C 
HETATM   12  C   UNL     1     -18.198 -12.288  -7.734  1.00  0.00     0.117 C 
HETATM   13  O   UNL     1     -16.127 -11.879  -6.564  1.00  0.00    -0.274 OA
HETATM   14  H   UNL     1     -18.905 -12.886  -5.479  1.00  0.00     0.163 HD
ENDBRANCH   4  10
BRANCH   5  15
HETATM   15  N   UNL     1     -19.162 -11.046  -3.022  1.00  0.00    -0.333 N 
HETATM   16  C   UNL     1     -19.635  -9.785  -2.702  1.00  0.00     0.222 C 
HETATM   17  O   UNL     1     -18.932  -8.876  -2.281  1.00  0.00    -0.273 OA
HETATM   18  H   UNL     1     -19.781 -11.815  -2.818  1.00  0.00     0.165 HD
BRANCH  16  19
HETATM   19  C   UNL     1     -21.134  -9.614  -2.937  1.00  0.00     0.137 C 
BRANCH  19  20
HETATM   20  C   UNL     1     -21.911  -9.726  -1.617  1.00  0.00     0.185 C 
BRANCH  20  21
HETATM   21  C   UNL     1     -22.559 -11.139  -1.457  1.00  0.00     0.238 C 
HETATM   22  O   UNL     1     -21.971 -12.176  -1.713  1.00  0.00    -0.271 OA
HETATM   23  N   UNL     1     -23.825 -11.132  -0.980  1.00  0.00    -0.368 N 
HETATM   24  H   UNL     1     -24.349 -10.269  -0.838  1.00  0.00     0.159 HD
HETATM   25  H   UNL     1     -24.338 -12.012  -0.921  1.00  0.00     0.159 HD
ENDBRANCH  20  21
BRANCH  20  26
HETATM   26  N   UNL     1     -21.028  -9.559  -0.443  1.00  0.00    -0.348 N 
HETATM   27  C   UNL     1     -21.474  -8.867   0.666  1.00  0.00     0.214 C 
HETATM   28  O   UNL     1     -22.566  -8.296   0.704  1.00  0.00    -0.274 OA
HETATM   29  C   UNL     1     -20.568  -8.929   1.853  1.00  0.00     0.117 C 
HETATM   30  H   UNL     1     -20.384 -10.311  -0.261  1.00  0.00     0.163 HD
ENDBRANCH  20  26
ENDBRANCH  19  20
ENDBRANCH  16  19
ENDBRANCH   5  15
BRANCH   7  31
HETATM   31  C   UNL     1     -18.878 -12.880  -0.490  1.00  0.00     0.198 C 
BRANCH  31  32
HETATM   32  O   UNL     1     -19.133 -11.670   0.213  1.00  0.00    -0.398 OA
HETATM   33  H   UNL     1     -18.303 -11.161   0.230  1.00  0.00     0.209 HD
ENDBRANCH  31  32
ENDBRANCH   7  31
ENDBRANCH   1   2
BRANCH   1  34
HETATM   34  C   UNL     1     -14.904 -13.774  -1.931  1.00  0.00     0.286 C 
HETATM   35  C   UNL     1     -13.540 -14.216  -2.505  1.00  0.00     0.170 C 
HETATM   36  C   UNL     1     -13.047 -15.401  -1.684  1.00  0.00     0.177 C 
HETATM   37  C   UNL     1     -12.787 -15.099  -0.216  1.00  0.00     0.186 C 
HETATM   38  C   UNL     1     -13.945 -14.222   0.368  1.00  0.00     0.180 C 
HETATM   39  O   UNL     1     -14.719 -13.398  -0.550  1.00  0.00    -0.349 OA
BRANCH  35  40
HETATM   40  N   UNL     1     -13.545 -14.427  -3.971  1.00  0.00    -0.349 N 
HETATM   41  C   UNL     1     -13.343 -13.444  -4.932  1.00  0.00     0.214 C 
HETATM   42  O   UNL     1     -13.185 -12.250  -4.728  1.00  0.00    -0.274 OA
HETATM   43  C   UNL     1     -13.328 -13.952  -6.342  1.00  0.00     0.117 C 
HETATM   44  H   UNL     1     -13.817 -15.345  -4.297  1.00  0.00     0.163 HD
ENDBRANCH  35  40
BRANCH  36  45
HETATM   45  O   UNL     1     -13.987 -16.482  -1.711  1.00  0.00    -0.391 OA
HETATM   46  H   UNL     1     -13.768 -17.062  -0.959  1.00  0.00     0.210 HD
ENDBRANCH  36  45
BRANCH  37  47
HETATM   47  O   UNL     1     -11.395 -14.823   0.131  1.00  0.00    -0.348 OA
BRANCH  47  48
HETATM   48  C   UNL     1     -11.200 -14.380   1.524  1.00  0.00     0.292 C 
HETATM   49  C   UNL     1     -10.169 -13.267   1.868  1.00  0.00     0.204 C 
HETATM   50  C   UNL     1      -8.823 -13.776   2.358  1.00  0.00     0.183 C 
HETATM   51  C   UNL     1      -8.981 -14.801   3.478  1.00  0.00     0.180 C 
HETATM   52  C   UNL     1     -10.180 -15.763   3.338  1.00  0.00     0.179 C 
HETATM   53  O   UNL     1     -11.229 -15.487   2.413  1.00  0.00    -0.348 OA
BRANCH  49  54
HETATM   54  O   UNL     1      -9.950 -12.296   0.841  1.00  0.00    -0.388 OA
HETATM   55  H   UNL     1      -9.195 -11.764   1.174  1.00  0.00     0.210 HD
ENDBRANCH  49  54
BRANCH  50  56
HETATM   56  O   UNL     1      -8.081 -14.266   1.239  1.00  0.00    -0.390 OA
HETATM   57  H   UNL     1      -7.129 -14.168   1.434  1.00  0.00     0.210 HD
ENDBRANCH  50  56
BRANCH  51  58
HETATM   58  O   UNL     1      -9.074 -14.140   4.758  1.00  0.00    -0.390 OA
HETATM   59  H   UNL     1      -9.374 -13.222   4.655  1.00  0.00     0.210 HD
ENDBRANCH  51  58
BRANCH  52  60
HETATM   60  C   UNL     1      -9.730 -17.182   2.986  1.00  0.00     0.198 C 
BRANCH  60  61
HETATM   61  O   UNL     1      -9.096 -17.183   1.709  1.00  0.00    -0.398 OA
HETATM   62  H   UNL     1      -8.333 -17.790   1.793  1.00  0.00     0.209 HD
ENDBRANCH  60  61
ENDBRANCH  52  60
ENDBRANCH  47  48
ENDBRANCH  37  47
BRANCH  38  63
HETATM   63  C   UNL     1     -14.919 -15.168   1.128  1.00  0.00     0.198 C 
BRANCH  63  64
HETATM   64  O   UNL     1     -14.774 -15.090   2.543  1.00  0.00    -0.398 OA
HETATM   65  H   UNL     1     -13.823 -15.036   2.736  1.00  0.00     0.209 HD
ENDBRANCH  63  64
ENDBRANCH  38  63
ENDBRANCH   1  34
TORSDOF 22
ENDMDL
MODEL 5
REMARK VINA RESULT:      -5.4      1.877      2.460
REMARK  22 active torsions:
REMARK  status: ('A' for Active; 'I' for Inactive)
REMARK       I    between atoms: C_2  and  N_4 
REMARK    1  A    between atoms: N_4  and  C_5 
REMARK    2  A    between atoms: C_6  and  O_51 
REMARK    3  A    between atoms: C_7  and  O_25 
REMARK    4  A    between atoms: C_8  and  C_23 
REMARK    5  A    between atoms: C_10  and  N_11 
REMARK       I    between atoms: N_11  and  C_12 
REMARK    6  A    between atoms: C_12  and  C_14 
REMARK    7  A    between atoms: C_14  and  C_15 
REMARK    8  A    between atoms: C_15  and  C_16 
REMARK    9  A    between atoms: C_15  and  N_19 
REMARK       I    between atoms: C_16  and  N_18 
REMARK       I    between atoms: N_19  and  C_20 
REMARK   10  A    between atoms: C_23  and  O_24 
REMARK   11  A    between atoms: O_25  and  C_26 
REMARK   12  A    between atoms: C_27  and  N_47 
REMARK   13  A    between atoms: C_28  and  O_46 
REMARK   14  A    between atoms: C_29  and  O_34 
REMARK   15  A    between atoms: C_30  and  C_32 
REMARK   16  A    between atoms: C_32  and  O_33 
REMARK   17  A    between atoms: O_34  and  C_35 
REMARK   18  A    between atoms: C_36  and  O_45 
REMARK   19  A    between atoms: C_37  and  O_44 
REMARK   20  A    between atoms: C_38  and  O_43 
REMARK   21  A    between atoms: C_39  and  C_41 
REMARK   22  A    between atoms: C_41  and  O_42 
REMARK       I    between atoms: N_47  and  C_48 
ROOT
HETATM    1  O   UNL     1     -19.187 -12.172  -2.462  1.00  0.00    -0.348 OA
ENDROOT
BRANCH   1   2
HETATM    2  C   UNL     1     -20.239 -11.352  -3.023  1.00  0.00     0.186 C 
HETATM    3  C   UNL     1     -20.232 -11.512  -4.522  1.00  0.00     0.176 C 
HETATM    4  C   UNL     1     -19.131 -10.711  -5.242  1.00  0.00     0.164 C 
HETATM    5  C   UNL     1     -19.315  -9.200  -4.955  1.00  0.00     0.249 C 
HETATM    6  O   UNL     1     -19.374  -8.975  -3.538  1.00  0.00    -0.354 OA
HETATM    7  C   UNL     1     -20.212  -9.814  -2.706  1.00  0.00     0.179 C 
BRANCH   3   8
HETATM    8  O   UNL     1     -21.535 -11.225  -5.049  1.00  0.00    -0.391 OA
HETATM    9  H   UNL     1     -21.406 -10.849  -5.942  1.00  0.00     0.210 HD
ENDBRANCH   3   8
BRANCH   4  10
HETATM   10  N   UNL     1     -19.227 -11.107  -6.650  1.00  0.00    -0.350 N 
HETATM   11  C   UNL     1     -18.514 -12.110  -7.241  1.00  0.00     0.214 C 
HETATM   12  C   UNL     1     -18.901 -12.301  -8.694  1.00  0.00     0.117 C 
HETATM   13  O   UNL     1     -17.670 -12.784  -6.673  1.00  0.00    -0.274 OA
HETATM   14  H   UNL     1     -20.007 -10.736  -7.185  1.00  0.00     0.163 HD
ENDBRANCH   4  10
BRANCH   5  15
HETATM   15  N   UNL     1     -20.497  -8.611  -5.585  1.00  0.00    -0.333 N 
HETATM   16  C   UNL     1     -20.839  -7.279  -5.424  1.00  0.00     0.222 C 
HETATM   17  O   UNL     1     -20.306  -6.527  -4.620  1.00  0.00    -0.273 OA
HETATM   18  H   UNL     1     -21.256  -9.239  -5.796  1.00  0.00     0.165 HD
BRANCH  16  19
HETATM   19  C   UNL     1     -21.949  -6.813  -6.364  1.00  0.00     0.137 C 
BRANCH  19  20
HETATM   20  C   UNL     1     -21.450  -5.688  -7.284  1.00  0.00     0.185 C 
BRANCH  20  21
HETATM   21  C   UNL     1     -22.325  -4.402  -7.134  1.00  0.00     0.238 C 
HETATM   22  O   UNL     1     -21.900  -3.277  -7.335  1.00  0.00    -0.271 OA
HETATM   23  N   UNL     1     -23.613  -4.630  -6.789  1.00  0.00    -0.368 N 
HETATM   24  H   UNL     1     -23.956  -5.559  -6.544  1.00  0.00     0.159 HD
HETATM   25  H   UNL     1     -24.224  -3.835  -6.599  1.00  0.00     0.159 HD
ENDBRANCH  20  21
BRANCH  20  26
HETATM   26  N   UNL     1     -20.072  -5.271  -6.945  1.00  0.00    -0.348 N 
HETATM   27  C   UNL     1     -19.250  -4.739  -7.920  1.00  0.00     0.214 C 
HETATM   28  O   UNL     1     -19.582  -4.662  -9.105  1.00  0.00    -0.274 OA
HETATM   29  C   UNL     1     -17.957  -4.183  -7.419  1.00  0.00     0.117 C 
HETATM   30  H   UNL     1     -19.929  -4.921  -6.012  1.00  0.00     0.163 HD
ENDBRANCH  20  26
ENDBRANCH  19  20
ENDBRANCH  16  19
ENDBRANCH   5  15
BRANCH   7  31
HETATM   31  C   UNL     1     -21.652  -9.236  -2.733  1.00  0.00     0.198 C 
BRANCH  31  32
HETATM   32  O   UNL     1     -22.626 -10.168  -2.281  1.00  0.00    -0.398 OA
HETATM   33  H   UNL     1     -22.466 -11.008  -2.747  1.00  0.00     0.209 HD
ENDBRANCH  31  32
ENDBRANCH   7  31
ENDBRANCH   1   2
BRANCH   1  34
HETATM   34  C   UNL     1     -19.642 -13.142  -1.455  1.00  0.00     0.286 C 
HETATM   35  C   UNL     1     -19.101 -12.843  -0.039  1.00  0.00     0.170 C 
HETATM   36  C   UNL     1     -17.616 -13.181  -0.023  1.00  0.00     0.177 C 
HETATM   37  C   UNL     1     -17.290 -14.645  -0.278  1.00  0.00     0.186 C 
HETATM   38  C   UNL     1     -18.163 -15.196  -1.454  1.00  0.00     0.180 C 
HETATM   39  O   UNL     1     -19.432 -14.542  -1.739  1.00  0.00    -0.349 OA
BRANCH  35  40
HETATM   40  N   UNL     1     -19.443 -11.492   0.461  1.00  0.00    -0.349 N 
HETATM   41  C   UNL     1     -20.728 -10.998   0.649  1.00  0.00     0.214 C 
HETATM   42  O   UNL     1     -21.773 -11.573   0.385  1.00  0.00    -0.274 OA
HETATM   43  C   UNL     1     -20.781  -9.621   1.238  1.00  0.00     0.117 C 
HETATM   44  H   UNL     1     -18.675 -10.843   0.578  1.00  0.00     0.163 HD
ENDBRANCH  35  40
BRANCH  36  45
HETATM   45  O   UNL     1     -16.899 -12.432  -1.011  1.00  0.00    -0.391 OA
HETATM   46  H   UNL     1     -16.637 -13.064  -1.706  1.00  0.00     0.210 HD
ENDBRANCH  36  45
BRANCH  37  47
HETATM   47  O   UNL     1     -17.054 -15.452   0.917  1.00  0.00    -0.348 OA
BRANCH  47  48
HETATM   48  C   UNL     1     -15.629 -15.721   1.187  1.00  0.00     0.292 C 
HETATM   49  C   UNL     1     -14.825 -14.830   2.177  1.00  0.00     0.204 C 
HETATM   50  C   UNL     1     -13.990 -13.742   1.521  1.00  0.00     0.183 C 
HETATM   51  C   UNL     1     -13.126 -14.298   0.392  1.00  0.00     0.180 C 
HETATM   52  C   UNL     1     -13.775 -15.412  -0.459  1.00  0.00     0.179 C 
HETATM   53  O   UNL     1     -14.950 -16.081  -0.006  1.00  0.00    -0.348 OA
BRANCH  49  54
HETATM   54  O   UNL     1     -15.590 -14.249   3.238  1.00  0.00    -0.388 OA
HETATM   55  H   UNL     1     -14.913 -13.954   3.884  1.00  0.00     0.210 HD
ENDBRANCH  49  54
BRANCH  50  56
HETATM   56  O   UNL     1     -14.856 -12.685   1.106  1.00  0.00    -0.390 OA
HETATM   57  H   UNL     1     -15.129 -12.180   1.896  1.00  0.00     0.210 HD
ENDBRANCH  50  56
BRANCH  51  58
HETATM   58  O   UNL     1     -11.874 -14.794   0.912  1.00  0.00    -0.390 OA
HETATM   59  H   UNL     1     -11.954 -15.027   1.852  1.00  0.00     0.210 HD
ENDBRANCH  51  58
BRANCH  52  60
HETATM   60  C   UNL     1     -14.139 -14.914  -1.859  1.00  0.00     0.198 C 
BRANCH  60  61
HETATM   61  O   UNL     1     -14.323 -13.501  -1.835  1.00  0.00    -0.398 OA
HETATM   62  H   UNL     1     -14.774 -13.279  -2.675  1.00  0.00     0.209 HD
ENDBRANCH  60  61
ENDBRANCH  52  60
ENDBRANCH  47  48
ENDBRANCH  37  47
BRANCH  38  63
HETATM   63  C   UNL     1     -17.291 -15.172  -2.743  1.00  0.00     0.198 C 
BRANCH  63  64
HETATM   64  O   UNL     1     -17.373 -13.935  -3.444  1.00  0.00    -0.398 OA
HETATM   65  H   UNL     1     -16.598 -13.405  -3.189  1.00  0.00     0.209 HD
ENDBRANCH  63  64
ENDBRANCH  38  63
ENDBRANCH   1  34
TORSDOF 22
ENDMDL
MODEL 6
REMARK VINA RESULT:      -5.4      3.570     11.214
REMARK  22 active torsions:
REMARK  status: ('A' for Active; 'I' for Inactive)
REMARK       I    between atoms: C_2  and  N_4 
REMARK    1  A    between atoms: N_4  and  C_5 
REMARK    2  A    between atoms: C_6  and  O_51 
REMARK    3  A    between atoms: C_7  and  O_25 
REMARK    4  A    between atoms: C_8  and  C_23 
REMARK    5  A    between atoms: C_10  and  N_11 
REMARK       I    between atoms: N_11  and  C_12 
REMARK    6  A    between atoms: C_12  and  C_14 
REMARK    7  A    between atoms: C_14  and  C_15 
REMARK    8  A    between atoms: C_15  and  C_16 
REMARK    9  A    between atoms: C_15  and  N_19 
REMARK       I    between atoms: C_16  and  N_18 
REMARK       I    between atoms: N_19  and  C_20 
REMARK   10  A    between atoms: C_23  and  O_24 
REMARK   11  A    between atoms: O_25  and  C_26 
REMARK   12  A    between atoms: C_27  and  N_47 
REMARK   13  A    between atoms: C_28  and  O_46 
REMARK   14  A    between atoms: C_29  and  O_34 
REMARK   15  A    between atoms: C_30  and  C_32 
REMARK   16  A    between atoms: C_32  and  O_33 
REMARK   17  A    between atoms: O_34  and  C_35 
REMARK   18  A    between atoms: C_36  and  O_45 
REMARK   19  A    between atoms: C_37  and  O_44 
REMARK   20  A    between atoms: C_38  and  O_43 
REMARK   21  A    between atoms: C_39  and  C_41 
REMARK   22  A    between atoms: C_41  and  O_42 
REMARK       I    between atoms: N_47  and  C_48 
ROOT
HETATM    1  O   UNL     1     -17.067 -13.928  -1.142  1.00  0.00    -0.348 OA
ENDROOT
BRANCH   1   2
HETATM    2  C   UNL     1     -15.842 -14.695  -1.175  1.00  0.00     0.186 C 
HETATM    3  C   UNL     1     -15.746 -15.515   0.086  1.00  0.00     0.176 C 
HETATM    4  C   UNL     1     -15.295 -14.722   1.327  1.00  0.00     0.164 C 
HETATM    5  C   UNL     1     -13.890 -14.121   1.077  1.00  0.00     0.249 C 
HETATM    6  O   UNL     1     -13.892 -13.358  -0.139  1.00  0.00    -0.354 OA
HETATM    7  C   UNL     1     -14.492 -13.908  -1.338  1.00  0.00     0.179 C 
BRANCH   3   8
HETATM    8  O   UNL     1     -14.923 -16.667  -0.141  1.00  0.00    -0.391 OA
HETATM    9  H   UNL     1     -14.959 -17.209   0.670  1.00  0.00     0.210 HD
ENDBRANCH   3   8
BRANCH   4  10
HETATM   10  N   UNL     1     -15.394 -15.666   2.443  1.00  0.00    -0.350 N 
HETATM   11  C   UNL     1     -15.359 -15.335   3.767  1.00  0.00     0.214 C 
HETATM   12  C   UNL     1     -15.554 -16.544   4.659  1.00  0.00     0.117 C 
HETATM   13  O   UNL     1     -15.200 -14.202   4.191  1.00  0.00    -0.274 OA
HETATM   14  H   UNL     1     -15.694 -16.612   2.226  1.00  0.00     0.163 HD
ENDBRANCH   4  10
BRANCH   5  15
HETATM   15  N   UNL     1     -12.816 -15.115   1.019  1.00  0.00    -0.333 N 
HETATM   16  C   UNL     1     -11.498 -14.803   1.304  1.00  0.00     0.222 C 
HETATM   17  O   UNL     1     -11.081 -13.662   1.454  1.00  0.00    -0.273 OA
HETATM   18  H   UNL     1     -12.961 -15.899   0.403  1.00  0.00     0.165 HD
BRANCH  16  19
HETATM   19  C   UNL     1     -10.593 -16.025   1.435  1.00  0.00     0.137 C 
BRANCH  19  20
HETATM   20  C   UNL     1      -9.851 -16.015   2.780  1.00  0.00     0.185 C 
BRANCH  20  21
HETATM   21  C   UNL     1      -8.590 -15.095   2.726  1.00  0.00     0.238 C 
HETATM   22  O   UNL     1      -8.075 -14.605   3.718  1.00  0.00    -0.271 OA
HETATM   23  N   UNL     1      -8.083 -14.899   1.486  1.00  0.00    -0.368 N 
HETATM   24  H   UNL     1      -8.551 -15.239   0.647  1.00  0.00     0.159 HD
HETATM   25  H   UNL     1      -7.306 -14.248   1.364  1.00  0.00     0.159 HD
ENDBRANCH  20  21
BRANCH  20  26
HETATM   26  N   UNL     1     -10.692 -15.471   3.868  1.00  0.00    -0.348 N 
HETATM   27  C   UNL     1     -10.742 -16.111   5.091  1.00  0.00     0.214 C 
HETATM   28  O   UNL     1     -10.173 -17.183   5.308  1.00  0.00    -0.274 OA
HETATM   29  C   UNL     1     -11.470 -15.367   6.162  1.00  0.00     0.117 C 
HETATM   30  H   UNL     1     -10.795 -14.470   3.893  1.00  0.00     0.163 HD
ENDBRANCH  20  26
ENDBRANCH  19  20
ENDBRANCH  16  19
ENDBRANCH   5  15
BRANCH   7  31
HETATM   31  C   UNL     1     -13.434 -14.797  -2.043  1.00  0.00     0.198 C 
BRANCH  31  32
HETATM   32  O   UNL     1     -12.135 -14.217  -2.030  1.00  0.00    -0.398 OA
HETATM   33  H   UNL     1     -11.505 -14.905  -2.307  1.00  0.00     0.209 HD
ENDBRANCH  31  32
ENDBRANCH   7  31
ENDBRANCH   1   2
BRANCH   1  34
HETATM   34  C   UNL     1     -17.901 -14.057  -2.346  1.00  0.00     0.286 C 
HETATM   35  C   UNL     1     -17.957 -12.762  -3.185  1.00  0.00     0.170 C 
HETATM   36  C   UNL     1     -18.810 -11.750  -2.429  1.00  0.00     0.177 C 
HETATM   37  C   UNL     1     -20.260 -12.161  -2.225  1.00  0.00     0.186 C 
HETATM   38  C   UNL     1     -20.340 -13.665  -1.797  1.00  0.00     0.180 C 
HETATM   39  O   UNL     1     -19.247 -14.550  -2.173  1.00  0.00    -0.349 OA
BRANCH  35  40
HETATM   40  N   UNL     1     -16.630 -12.267  -3.616  1.00  0.00    -0.349 N 
HETATM   41  C   UNL     1     -15.862 -12.797  -4.646  1.00  0.00     0.214 C 
HETATM   42  O   UNL     1     -16.131 -13.780  -5.320  1.00  0.00    -0.274 OA
HETATM   43  C   UNL     1     -14.590 -12.052  -4.915  1.00  0.00     0.117 C 
HETATM   44  H   UNL     1     -16.206 -11.547  -3.045  1.00  0.00     0.163 HD
ENDBRANCH  35  40
BRANCH  36  45
HETATM   45  O   UNL     1     -18.278 -11.490  -1.125  1.00  0.00    -0.391 OA
HETATM   46  H   UNL     1     -19.038 -11.293  -0.547  1.00  0.00     0.210 HD
ENDBRANCH  36  45
BRANCH  37  47
HETATM   47  O   UNL     1     -21.211 -11.607  -3.186  1.00  0.00    -0.348 OA
BRANCH  47  48
HETATM   48  C   UNL     1     -21.936 -10.420  -2.697  1.00  0.00     0.292 C 
HETATM   49  C   UNL     1     -21.592  -9.001  -3.234  1.00  0.00     0.204 C 
HETATM   50  C   UNL     1     -20.661  -8.192  -2.344  1.00  0.00     0.183 C 
HETATM   51  C   UNL     1     -21.139  -8.176  -0.895  1.00  0.00     0.180 C 
HETATM   52  C   UNL     1     -21.768  -9.490  -0.384  1.00  0.00     0.179 C 
HETATM   53  O   UNL     1     -22.163 -10.510  -1.298  1.00  0.00    -0.348 OA
BRANCH  49  54
HETATM   54  O   UNL     1     -21.103  -8.956  -4.577  1.00  0.00    -0.388 OA
HETATM   55  H   UNL     1     -20.280  -9.491  -4.548  1.00  0.00     0.210 HD
ENDBRANCH  49  54
BRANCH  50  56
HETATM   56  O   UNL     1     -19.330  -8.689  -2.498  1.00  0.00    -0.390 OA
HETATM   57  H   UNL     1     -18.807  -8.024  -2.986  1.00  0.00     0.210 HD
ENDBRANCH  50  56
BRANCH  51  58
HETATM   58  O   UNL     1     -22.088  -7.107  -0.688  1.00  0.00    -0.390 OA
HETATM   59  H   UNL     1     -22.964  -7.458  -0.456  1.00  0.00     0.210 HD
ENDBRANCH  51  58
BRANCH  52  60
HETATM   60  C   UNL     1     -20.851 -10.207   0.609  1.00  0.00     0.198 C 
BRANCH  60  61
HETATM   61  O   UNL     1     -20.721  -9.428   1.795  1.00  0.00    -0.398 OA
HETATM   62  H   UNL     1     -19.776  -9.480   2.043  1.00  0.00     0.209 HD
ENDBRANCH  60  61
ENDBRANCH  52  60
ENDBRANCH  47  48
ENDBRANCH  37  47
BRANCH  38  63
HETATM   63  C   UNL     1     -20.507 -13.709  -0.251  1.00  0.00     0.198 C 
BRANCH  63  64
HETATM   64  O   UNL     1     -19.265 -13.827   0.437  1.00  0.00    -0.398 OA
HETATM   65  H   UNL     1     -19.236 -14.713   0.836  1.00  0.00     0.209 HD
ENDBRANCH  63  64
ENDBRANCH  38  63
ENDBRANCH   1  34
TORSDOF 22
ENDMDL
MODEL 7
REMARK VINA RESULT:      -5.4      2.436     10.549
REMARK  22 active torsions:
REMARK  status: ('A' for Active; 'I' for Inactive)
REMARK       I    between atoms: C_2  and  N_4 
REMARK    1  A    between atoms: N_4  and  C_5 
REMARK    2  A    between atoms: C_6  and  O_51 
REMARK    3  A    between atoms: C_7  and  O_25 
REMARK    4  A    between atoms: C_8  and  C_23 
REMARK    5  A    between atoms: C_10  and  N_11 
REMARK       I    between atoms: N_11  and  C_12 
REMARK    6  A    between atoms: C_12  and  C_14 
REMARK    7  A    between atoms: C_14  and  C_15 
REMARK    8  A    between atoms: C_15  and  C_16 
REMARK    9  A    between atoms: C_15  and  N_19 
REMARK       I    between atoms: C_16  and  N_18 
REMARK       I    between atoms: N_19  and  C_20 
REMARK   10  A    between atoms: C_23  and  O_24 
REMARK   11  A    between atoms: O_25  and  C_26 
REMARK   12  A    between atoms: C_27  and  N_47 
REMARK   13  A    between atoms: C_28  and  O_46 
REMARK   14  A    between atoms: C_29  and  O_34 
REMARK   15  A    between atoms: C_30  and  C_32 
REMARK   16  A    between atoms: C_32  and  O_33 
REMARK   17  A    between atoms: O_34  and  C_35 
REMARK   18  A    between atoms: C_36  and  O_45 
REMARK   19  A    between atoms: C_37  and  O_44 
REMARK   20  A    between atoms: C_38  and  O_43 
REMARK   21  A    between atoms: C_39  and  C_41 
REMARK   22  A    between atoms: C_41  and  O_42 
REMARK       I    between atoms: N_47  and  C_48 
ROOT
HETATM    1  O   UNL     1     -20.229  -9.466  -2.870  1.00  0.00    -0.348 OA
ENDROOT
BRANCH   1   2
HETATM    2  C   UNL     1     -20.353 -10.370  -1.747  1.00  0.00     0.186 C 
HETATM    3  C   UNL     1     -19.044 -11.094  -1.558  1.00  0.00     0.176 C 
HETATM    4  C   UNL     1     -18.809 -12.250  -2.548  1.00  0.00     0.164 C 
HETATM    5  C   UNL     1     -19.931 -13.306  -2.391  1.00  0.00     0.249 C 
HETATM    6  O   UNL     1     -21.216 -12.678  -2.515  1.00  0.00    -0.354 OA
HETATM    7  C   UNL     1     -21.493 -11.448  -1.800  1.00  0.00     0.179 C 
BRANCH   3   8
HETATM    8  O   UNL     1     -18.915 -11.522  -0.195  1.00  0.00    -0.391 OA
HETATM    9  H   UNL     1     -18.123 -11.082   0.168  1.00  0.00     0.210 HD
ENDBRANCH   3   8
BRANCH   4  10
HETATM   10  N   UNL     1     -17.448 -12.720  -2.273  1.00  0.00    -0.350 N 
HETATM   11  C   UNL     1     -16.438 -12.801  -3.187  1.00  0.00     0.214 C 
HETATM   12  C   UNL     1     -15.140 -13.266  -2.557  1.00  0.00     0.117 C 
HETATM   13  O   UNL     1     -16.553 -12.524  -4.369  1.00  0.00    -0.274 OA
HETATM   14  H   UNL     1     -17.181 -12.822  -1.298  1.00  0.00     0.163 HD
ENDBRANCH   4  10
BRANCH   5  15
HETATM   15  N   UNL     1     -19.880 -14.049  -1.130  1.00  0.00    -0.333 N 
HETATM   16  C   UNL     1     -18.951 -15.048  -0.893  1.00  0.00     0.222 C 
HETATM   17  O   UNL     1     -18.218 -15.520  -1.752  1.00  0.00    -0.273 OA
HETATM   18  H   UNL     1     -20.740 -14.113  -0.610  1.00  0.00     0.165 HD
BRANCH  16  19
HETATM   19  C   UNL     1     -18.905 -15.510   0.561  1.00  0.00     0.137 C 
BRANCH  19  20
HETATM   20  C   UNL     1     -17.560 -15.146   1.208  1.00  0.00     0.185 C 
BRANCH  20  21
HETATM   21  C   UNL     1     -16.480 -16.240   0.927  1.00  0.00     0.238 C 
HETATM   22  O   UNL     1     -16.273 -17.183   1.673  1.00  0.00    -0.271 OA
HETATM   23  N   UNL     1     -15.802 -16.082  -0.233  1.00  0.00    -0.368 N 
HETATM   24  H   UNL     1     -15.914 -15.258  -0.822  1.00  0.00     0.159 HD
HETATM   25  H   UNL     1     -15.030 -16.715  -0.447  1.00  0.00     0.159 HD
ENDBRANCH  20  21
BRANCH  20  26
HETATM   26  N   UNL     1     -17.005 -13.891   0.657  1.00  0.00    -0.348 N 
HETATM   27  C   UNL     1     -16.177 -13.101   1.430  1.00  0.00     0.214 C 
HETATM   28  O   UNL     1     -15.931 -13.348   2.613  1.00  0.00    -0.274 OA
HETATM   29  C   UNL     1     -15.532 -11.966   0.704  1.00  0.00     0.117 C 
HETATM   30  H   UNL     1     -16.820 -13.884  -0.333  1.00  0.00     0.163 HD
ENDBRANCH  20  26
ENDBRANCH  19  20
ENDBRANCH  16  19
ENDBRANCH   5  15
BRANCH   7  31
HETATM   31  C   UNL     1     -21.951 -11.818  -0.365  1.00  0.00     0.198 C 
BRANCH  31  32
HETATM   32  O   UNL     1     -22.702 -13.025  -0.322  1.00  0.00    -0.398 OA
HETATM   33  H   UNL     1     -22.365 -13.604  -1.028  1.00  0.00     0.209 HD
ENDBRANCH  31  32
ENDBRANCH   7  31
ENDBRANCH   1   2
BRANCH   1  34
HETATM   34  C   UNL     1     -21.456  -9.310  -3.664  1.00  0.00     0.286 C 
HETATM   35  C   UNL     1     -21.182  -9.144  -5.175  1.00  0.00     0.170 C 
HETATM   36  C   UNL     1     -20.592  -7.756  -5.395  1.00  0.00     0.177 C 
HETATM   37  C   UNL     1     -21.513  -6.604  -5.024  1.00  0.00     0.186 C 
HETATM   38  C   UNL     1     -22.226  -6.899  -3.662  1.00  0.00     0.180 C 
HETATM   39  O   UNL     1     -22.388  -8.286  -3.253  1.00  0.00    -0.349 OA
BRANCH  35  40
HETATM   40  N   UNL     1     -20.408 -10.256  -5.770  1.00  0.00    -0.349 N 
HETATM   41  C   UNL     1     -20.881 -11.543  -5.997  1.00  0.00     0.214 C 
HETATM   42  O   UNL     1     -21.983 -11.975  -5.696  1.00  0.00    -0.274 OA
HETATM   43  C   UNL     1     -19.903 -12.450  -6.681  1.00  0.00     0.117 C 
HETATM   44  H   UNL     1     -19.423 -10.090  -5.931  1.00  0.00     0.163 HD
ENDBRANCH  35  40
BRANCH  36  45
HETATM   45  O   UNL     1     -19.392  -7.572  -4.636  1.00  0.00    -0.391 OA
HETATM   46  H   UNL     1     -18.786  -7.049  -5.192  1.00  0.00     0.210 HD
ENDBRANCH  36  45
BRANCH  37  47
HETATM   47  O   UNL     1     -22.247  -6.004  -6.136  1.00  0.00    -0.348 OA
BRANCH  47  48
HETATM   48  C   UNL     1     -21.439  -5.810  -7.355  1.00  0.00     0.292 C 
HETATM   49  C   UNL     1     -20.306  -4.746  -7.396  1.00  0.00     0.204 C 
HETATM   50  C   UNL     1     -20.697  -3.423  -8.037  1.00  0.00     0.183 C 
HETATM   51  C   UNL     1     -21.364  -3.630  -9.394  1.00  0.00     0.180 C 
HETATM   52  C   UNL     1     -22.290  -4.860  -9.503  1.00  0.00     0.179 C 
HETATM   53  O   UNL     1     -22.253  -5.888  -8.515  1.00  0.00    -0.348 OA
BRANCH  49  54
HETATM   54  O   UNL     1     -19.667  -4.481  -6.143  1.00  0.00    -0.388 OA
HETATM   55  H   UNL     1     -20.095  -3.656  -5.828  1.00  0.00     0.210 HD
ENDBRANCH  49  54
BRANCH  50  56
HETATM   56  O   UNL     1     -21.502  -2.686  -7.114  1.00  0.00    -0.390 OA
HETATM   57  H   UNL     1     -22.102  -2.107  -7.623  1.00  0.00     0.210 HD
ENDBRANCH  50  56
BRANCH  51  58
HETATM   58  O   UNL     1     -20.369  -3.715 -10.437  1.00  0.00    -0.390 OA
HETATM   59  H   UNL     1     -19.900  -4.566 -10.402  1.00  0.00     0.210 HD
ENDBRANCH  51  58
BRANCH  52  60
HETATM   60  C   UNL     1     -23.764  -4.454  -9.569  1.00  0.00     0.198 C 
BRANCH  60  61
HETATM   61  O   UNL     1     -24.121  -3.740  -8.389  1.00  0.00    -0.398 OA
HETATM   62  H   UNL     1     -24.355  -4.422  -7.727  1.00  0.00     0.209 HD
ENDBRANCH  60  61
ENDBRANCH  52  60
ENDBRANCH  47  48
ENDBRANCH  37  47
BRANCH  38  63
HETATM   63  C   UNL     1     -21.451  -6.138  -2.547  1.00  0.00     0.198 C 
BRANCH  63  64
HETATM   64  O   UNL     1     -22.304  -5.647  -1.517  1.00  0.00    -0.398 OA
HETATM   65  H   UNL     1     -22.050  -4.725  -1.344  1.00  0.00     0.209 HD
ENDBRANCH  63  64
ENDBRANCH  38  63
ENDBRANCH   1  34
TORSDOF 22
ENDMDL
MODEL 8
REMARK VINA RESULT:      -5.4      3.296      9.007
REMARK  22 active torsions:
REMARK  status: ('A' for Active; 'I' for Inactive)
REMARK       I    between atoms: C_2  and  N_4 
REMARK    1  A    between atoms: N_4  and  C_5 
REMARK    2  A    between atoms: C_6  and  O_51 
REMARK    3  A    between atoms: C_7  and  O_25 
REMARK    4  A    between atoms: C_8  and  C_23 
REMARK    5  A    between atoms: C_10  and  N_11 
REMARK       I    between atoms: N_11  and  C_12 
REMARK    6  A    between atoms: C_12  and  C_14 
REMARK    7  A    between atoms: C_14  and  C_15 
REMARK    8  A    between atoms: C_15  and  C_16 
REMARK    9  A    between atoms: C_15  and  N_19 
REMARK       I    between atoms: C_16  and  N_18 
REMARK       I    between atoms: N_19  and  C_20 
REMARK   10  A    between atoms: C_23  and  O_24 
REMARK   11  A    between atoms: O_25  and  C_26 
REMARK   12  A    between atoms: C_27  and  N_47 
REMARK   13  A    between atoms: C_28  and  O_46 
REMARK   14  A    between atoms: C_29  and  O_34 
REMARK   15  A    between atoms: C_30  and  C_32 
REMARK   16  A    between atoms: C_32  and  O_33 
REMARK   17  A    between atoms: O_34  and  C_35 
REMARK   18  A    between atoms: C_36  and  O_45 
REMARK   19  A    between atoms: C_37  and  O_44 
REMARK   20  A    between atoms: C_38  and  O_43 
REMARK   21  A    between atoms: C_39  and  C_41 
REMARK   22  A    between atoms: C_41  and  O_42 
REMARK       I    between atoms: N_47  and  C_48 
ROOT
HETATM    1  O   UNL     1     -18.891 -10.380  -5.035  1.00  0.00    -0.348 OA
ENDROOT
BRANCH   1   2
HETATM    2  C   UNL     1     -18.274 -11.623  -5.442  1.00  0.00     0.186 C 
HETATM    3  C   UNL     1     -17.542 -12.212  -4.263  1.00  0.00     0.176 C 
HETATM    4  C   UNL     1     -16.181 -11.555  -3.967  1.00  0.00     0.164 C 
HETATM    5  C   UNL     1     -15.250 -11.712  -5.194  1.00  0.00     0.249 C 
HETATM    6  O   UNL     1     -15.901 -11.209  -6.371  1.00  0.00    -0.354 OA
HETATM    7  C   UNL     1     -17.273 -11.578  -6.652  1.00  0.00     0.179 C 
BRANCH   3   8
HETATM    8  O   UNL     1     -17.427 -13.633  -4.420  1.00  0.00    -0.391 OA
HETATM    9  H   UNL     1     -16.643 -13.915  -3.911  1.00  0.00     0.210 HD
ENDBRANCH   3   8
BRANCH   4  10
HETATM   10  N   UNL     1     -15.713 -12.184  -2.728  1.00  0.00    -0.350 N 
HETATM   11  C   UNL     1     -16.239 -11.976  -1.486  1.00  0.00     0.214 C 
HETATM   12  C   UNL     1     -15.563 -12.832  -0.434  1.00  0.00     0.117 C 
HETATM   13  O   UNL     1     -17.151 -11.202  -1.243  1.00  0.00    -0.274 OA
HETATM   14  H   UNL     1     -15.072 -12.968  -2.818  1.00  0.00     0.163 HD
ENDBRANCH   4  10
BRANCH   5  15
HETATM   15  N   UNL     1     -14.809 -13.086  -5.439  1.00  0.00    -0.333 N 
HETATM   16  C   UNL     1     -13.671 -13.383  -6.170  1.00  0.00     0.222 C 
HETATM   17  O   UNL     1     -13.038 -12.559  -6.816  1.00  0.00    -0.273 OA
HETATM   18  H   UNL     1     -15.522 -13.797  -5.424  1.00  0.00     0.165 HD
BRANCH  16  19
HETATM   19  C   UNL     1     -13.254 -14.849  -6.087  1.00  0.00     0.137 C 
BRANCH  19  20
HETATM   20  C   UNL     1     -14.474 -15.753  -5.850  1.00  0.00     0.185 C 
BRANCH  20  21
HETATM   21  C   UNL     1     -14.687 -16.742  -7.041  1.00  0.00     0.238 C 
HETATM   22  O   UNL     1     -15.789 -17.079  -7.441  1.00  0.00    -0.271 OA
HETATM   23  N   UNL     1     -13.548 -17.182  -7.623  1.00  0.00    -0.368 N 
HETATM   24  H   UNL     1     -12.625 -16.967  -7.247  1.00  0.00     0.159 HD
HETATM   25  H   UNL     1     -13.607 -17.889  -8.358  1.00  0.00     0.159 HD
ENDBRANCH  20  21
BRANCH  20  26
HETATM   26  N   UNL     1     -14.305 -16.604  -4.653  1.00  0.00    -0.348 N 
HETATM   27  C   UNL     1     -14.747 -16.163  -3.421  1.00  0.00     0.214 C 
HETATM   28  O   UNL     1     -15.217 -15.037  -3.243  1.00  0.00    -0.274 OA
HETATM   29  C   UNL     1     -14.693 -17.183  -2.330  1.00  0.00     0.117 C 
HETATM   30  H   UNL     1     -14.348 -17.599  -4.805  1.00  0.00     0.163 HD
ENDBRANCH  20  26
ENDBRANCH  19  20
ENDBRANCH  16  19
ENDBRANCH   5  15
BRANCH   7  31
HETATM   31  C   UNL     1     -17.263 -12.942  -7.392  1.00  0.00     0.198 C 
BRANCH  31  32
HETATM   32  O   UNL     1     -18.489 -13.650  -7.252  1.00  0.00    -0.398 OA
HETATM   33  H   UNL     1     -18.825 -13.832  -8.147  1.00  0.00     0.209 HD
ENDBRANCH  31  32
ENDBRANCH   7  31
ENDBRANCH   1   2
BRANCH   1  34
HETATM   34  C   UNL     1     -20.325 -10.281  -5.344  1.00  0.00     0.286 C 
HETATM   35  C   UNL     1     -21.054  -9.214  -4.499  1.00  0.00     0.170 C 
HETATM   36  C   UNL     1     -21.167  -9.740  -3.074  1.00  0.00     0.177 C 
HETATM   37  C   UNL     1     -21.995 -11.007  -2.924  1.00  0.00     0.186 C 
HETATM   38  C   UNL     1     -21.643 -12.021  -4.063  1.00  0.00     0.180 C 
HETATM   39  O   UNL     1     -21.099 -11.500  -5.308  1.00  0.00    -0.349 OA
BRANCH  35  40
HETATM   40  N   UNL     1     -20.479  -7.855  -4.623  1.00  0.00    -0.349 N 
HETATM   41  C   UNL     1     -21.022  -6.809  -5.359  1.00  0.00     0.214 C 
HETATM   42  O   UNL     1     -22.021  -6.856  -6.060  1.00  0.00    -0.274 OA
HETATM   43  C   UNL     1     -20.268  -5.518  -5.247  1.00  0.00     0.117 C 
HETATM   44  H   UNL     1     -19.563  -7.710  -4.217  1.00  0.00     0.163 HD
ENDBRANCH  35  40
BRANCH  36  45
HETATM   45  O   UNL     1     -19.878 -10.035  -2.522  1.00  0.00    -0.391 OA
HETATM   46  H   UNL     1     -19.231  -9.507  -3.026  1.00  0.00     0.210 HD
ENDBRANCH  36  45
BRANCH  37  47
HETATM   47  O   UNL     1     -23.381 -10.805  -2.507  1.00  0.00    -0.348 OA
BRANCH  47  48
HETATM   48  C   UNL     1     -23.694 -11.356  -1.175  1.00  0.00     0.292 C 
HETATM   49  C   UNL     1     -22.917 -10.877   0.085  1.00  0.00     0.204 C 
HETATM   50  C   UNL     1     -21.779 -11.789   0.516  1.00  0.00     0.183 C 
HETATM   51  C   UNL     1     -22.229 -13.244   0.616  1.00  0.00     0.180 C 
HETATM   52  C   UNL     1     -23.243 -13.705  -0.453  1.00  0.00     0.179 C 
HETATM   53  O   UNL     1     -23.940 -12.752  -1.252  1.00  0.00    -0.348 OA
BRANCH  49  54
HETATM   54  O   UNL     1     -22.436  -9.531   0.034  1.00  0.00    -0.388 OA
HETATM   55  H   UNL     1     -23.180  -8.999   0.389  1.00  0.00     0.210 HD
ENDBRANCH  49  54
BRANCH  50  56
HETATM   56  O   UNL     1     -20.674 -11.596  -0.370  1.00  0.00    -0.390 OA
HETATM   57  H   UNL     1     -20.340 -10.686  -0.253  1.00  0.00     0.210 HD
ENDBRANCH  50  56
BRANCH  51  58
HETATM   58  O   UNL     1     -22.790 -13.510   1.920  1.00  0.00    -0.390 OA
HETATM   59  H   UNL     1     -23.388 -14.276   1.892  1.00  0.00     0.210 HD
ENDBRANCH  51  58
BRANCH  52  60
HETATM   60  C   UNL     1     -22.603 -14.653  -1.469  1.00  0.00     0.198 C 
BRANCH  60  61
HETATM   61  O   UNL     1     -23.618 -15.314  -2.218  1.00  0.00    -0.398 OA
HETATM   62  H   UNL     1     -24.433 -15.243  -1.680  1.00  0.00     0.209 HD
ENDBRANCH  60  61
ENDBRANCH  52  60
ENDBRANCH  47  48
ENDBRANCH  37  47
BRANCH  38  63
HETATM   63  C   UNL     1     -20.643 -13.061  -3.479  1.00  0.00     0.198 C 
BRANCH  63  64
HETATM   64  O   UNL     1     -20.492 -14.210  -4.308  1.00  0.00    -0.398 OA
HETATM   65  H   UNL     1     -20.183 -13.903  -5.177  1.00  0.00     0.209 HD
ENDBRANCH  63  64
ENDBRANCH  38  63
ENDBRANCH   1  34
TORSDOF 22
ENDMDL
MODEL 9
REMARK VINA RESULT:      -5.3      2.297     10.837
REMARK  22 active torsions:
REMARK  status: ('A' for Active; 'I' for Inactive)
REMARK       I    between atoms: C_2  and  N_4 
REMARK    1  A    between atoms: N_4  and  C_5 
REMARK    2  A    between atoms: C_6  and  O_51 
REMARK    3  A    between atoms: C_7  and  O_25 
REMARK    4  A    between atoms: C_8  and  C_23 
REMARK    5  A    between atoms: C_10  and  N_11 
REMARK       I    between atoms: N_11  and  C_12 
REMARK    6  A    between atoms: C_12  and  C_14 
REMARK    7  A    between atoms: C_14  and  C_15 
REMARK    8  A    between atoms: C_15  and  C_16 
REMARK    9  A    between atoms: C_15  and  N_19 
REMARK       I    between atoms: C_16  and  N_18 
REMARK       I    between atoms: N_19  and  C_20 
REMARK   10  A    between atoms: C_23  and  O_24 
REMARK   11  A    between atoms: O_25  and  C_26 
REMARK   12  A    between atoms: C_27  and  N_47 
REMARK   13  A    between atoms: C_28  and  O_46 
REMARK   14  A    between atoms: C_29  and  O_34 
REMARK   15  A    between atoms: C_30  and  C_32 
REMARK   16  A    between atoms: C_32  and  O_33 
REMARK   17  A    between atoms: O_34  and  C_35 
REMARK   18  A    between atoms: C_36  and  O_45 
REMARK   19  A    between atoms: C_37  and  O_44 
REMARK   20  A    between atoms: C_38  and  O_43 
REMARK   21  A    between atoms: C_39  and  C_41 
REMARK   22  A    between atoms: C_41  and  O_42 
REMARK       I    between atoms: N_47  and  C_48 
ROOT
HETATM    1  O   UNL     1     -19.132 -11.156  -2.989  1.00  0.00    -0.348 OA
ENDROOT
BRANCH   1   2
HETATM    2  C   UNL     1     -18.382 -12.324  -2.583  1.00  0.00     0.186 C 
HETATM    3  C   UNL     1     -19.203 -13.112  -1.595  1.00  0.00     0.176 C 
HETATM    4  C   UNL     1     -19.207 -12.535  -0.167  1.00  0.00     0.164 C 
HETATM    5  C   UNL     1     -17.760 -12.500   0.383  1.00  0.00     0.249 C 
HETATM    6  O   UNL     1     -16.904 -11.799  -0.532  1.00  0.00    -0.354 OA
HETATM    7  C   UNL     1     -16.962 -12.094  -1.950  1.00  0.00     0.179 C 
BRANCH   3   8
HETATM    8  O   UNL     1     -18.802 -14.489  -1.615  1.00  0.00    -0.391 OA
HETATM    9  H   UNL     1     -18.035 -14.572  -1.017  1.00  0.00     0.210 HD
ENDBRANCH   3   8
BRANCH   4  10
HETATM   10  N   UNL     1     -20.152 -13.368   0.581  1.00  0.00    -0.350 N 
HETATM   11  C   UNL     1     -21.441 -13.031   0.881  1.00  0.00     0.214 C 
HETATM   12  C   UNL     1     -22.164 -14.146   1.609  1.00  0.00     0.117 C 
HETATM   13  O   UNL     1     -21.960 -11.965   0.592  1.00  0.00    -0.274 OA
HETATM   14  H   UNL     1     -19.897 -14.340   0.733  1.00  0.00     0.163 HD
ENDBRANCH   4  10
BRANCH   5  15
HETATM   15  N   UNL     1     -17.191 -13.822   0.655  1.00  0.00    -0.333 N 
HETATM   16  C   UNL     1     -16.321 -14.055   1.706  1.00  0.00     0.222 C 
HETATM   17  O   UNL     1     -15.814 -13.172   2.384  1.00  0.00    -0.273 OA
HETATM   18  H   UNL     1     -17.114 -14.449  -0.129  1.00  0.00     0.165 HD
BRANCH  16  19
HETATM   19  C   UNL     1     -16.054 -15.536   1.965  1.00  0.00     0.137 C 
BRANCH  19  20
HETATM   20  C   UNL     1     -14.907 -16.048   1.080  1.00  0.00     0.185 C 
BRANCH  20  21
HETATM   21  C   UNL     1     -15.420 -16.438  -0.344  1.00  0.00     0.238 C 
HETATM   22  O   UNL     1     -16.601 -16.565  -0.618  1.00  0.00    -0.271 OA
HETATM   23  N   UNL     1     -14.448 -16.600  -1.272  1.00  0.00    -0.368 N 
HETATM   24  H   UNL     1     -13.457 -16.573  -1.033  1.00  0.00     0.159 HD
HETATM   25  H   UNL     1     -14.702 -16.929  -2.204  1.00  0.00     0.159 HD
ENDBRANCH  20  21
BRANCH  20  26
HETATM   26  N   UNL     1     -13.877 -15.009   0.859  1.00  0.00    -0.348 N 
HETATM   27  C   UNL     1     -12.538 -15.349   0.867  1.00  0.00     0.214 C 
HETATM   28  O   UNL     1     -12.139 -16.484   1.134  1.00  0.00    -0.274 OA
HETATM   29  C   UNL     1     -11.609 -14.258   0.446  1.00  0.00     0.117 C 
HETATM   30  H   UNL     1     -14.134 -14.251   0.248  1.00  0.00     0.163 HD
ENDBRANCH  20  26
ENDBRANCH  19  20
ENDBRANCH  16  19
ENDBRANCH   5  15
BRANCH   7  31
HETATM   31  C   UNL     1     -16.048 -13.317  -2.225  1.00  0.00     0.198 C 
BRANCH  31  32
HETATM   32  O   UNL     1     -14.869 -13.310  -1.429  1.00  0.00    -0.398 OA
HETATM   33  H   UNL     1     -14.124 -13.079  -2.012  1.00  0.00     0.209 HD
ENDBRANCH  31  32
ENDBRANCH   7  31
ENDBRANCH   1   2
BRANCH   1  34
HETATM   34  C   UNL     1     -19.369 -11.056  -4.436  1.00  0.00     0.286 C 
HETATM   35  C   UNL     1     -18.457 -10.018  -5.127  1.00  0.00     0.170 C 
HETATM   36  C   UNL     1     -18.938  -8.629  -4.724  1.00  0.00     0.177 C 
HETATM   37  C   UNL     1     -20.350  -8.286  -5.171  1.00  0.00     0.186 C 
HETATM   38  C   UNL     1     -21.306  -9.501  -4.925  1.00  0.00     0.180 C 
HETATM   39  O   UNL     1     -20.727 -10.836  -4.875  1.00  0.00    -0.349 OA
BRANCH  35  40
HETATM   40  N   UNL     1     -17.011 -10.264  -4.930  1.00  0.00    -0.349 N 
HETATM   41  C   UNL     1     -16.258 -11.237  -5.577  1.00  0.00     0.214 C 
HETATM   42  O   UNL     1     -16.675 -12.073  -6.364  1.00  0.00    -0.274 OA
HETATM   43  C   UNL     1     -14.798 -11.214  -5.241  1.00  0.00     0.117 C 
HETATM   44  H   UNL     1     -16.558  -9.744  -4.189  1.00  0.00     0.163 HD
ENDBRANCH  35  40
BRANCH  36  45
HETATM   45  O   UNL     1     -18.914  -8.461  -3.302  1.00  0.00    -0.391 OA
HETATM   46  H   UNL     1     -18.920  -9.356  -2.914  1.00  0.00     0.210 HD
ENDBRANCH  36  45
BRANCH  37  47
HETATM   47  O   UNL     1     -20.446  -7.499  -6.399  1.00  0.00    -0.348 OA
BRANCH  47  48
HETATM   48  C   UNL     1     -20.420  -6.040  -6.180  1.00  0.00     0.292 C 
HETATM   49  C   UNL     1     -21.698  -5.283  -5.717  1.00  0.00     0.204 C 
HETATM   50  C   UNL     1     -22.478  -4.608  -6.834  1.00  0.00     0.183 C 
HETATM   51  C   UNL     1     -21.573  -3.754  -7.718  1.00  0.00     0.180 C 
HETATM   52  C   UNL     1     -20.162  -4.326  -7.980  1.00  0.00     0.179 C 
HETATM   53  O   UNL     1     -19.653  -5.395  -7.185  1.00  0.00    -0.348 OA
BRANCH  49  54
HETATM   54  O   UNL     1     -22.605  -6.045  -4.915  1.00  0.00    -0.388 OA
HETATM   55  H   UNL     1     -23.487  -5.833  -5.289  1.00  0.00     0.210 HD
ENDBRANCH  49  54
BRANCH  50  56
HETATM   56  O   UNL     1     -23.202  -5.605  -7.557  1.00  0.00    -0.390 OA
HETATM   57  H   UNL     1     -23.233  -5.344  -8.498  1.00  0.00     0.210 HD
ENDBRANCH  50  56
BRANCH  51  58
HETATM   58  O   UNL     1     -21.431  -2.428  -7.164  1.00  0.00    -0.390 OA
HETATM   59  H   UNL     1     -22.170  -2.218  -6.570  1.00  0.00     0.210 HD
ENDBRANCH  51  58
BRANCH  52  60
HETATM   60  C   UNL     1     -20.010  -4.820  -9.419  1.00  0.00     0.198 C 
BRANCH  60  61
HETATM   61  O   UNL     1     -21.124  -4.391 -10.196  1.00  0.00    -0.398 OA
HETATM   62  H   UNL     1     -21.034  -3.420 -10.276  1.00  0.00     0.209 HD
ENDBRANCH  60  61
ENDBRANCH  52  60
ENDBRANCH  47  48
ENDBRANCH  37  47
BRANCH  38  63
HETATM   63  C   UNL     1     -22.071  -9.240  -3.596  1.00  0.00     0.198 C 
BRANCH  63  64
HETATM   64  O   UNL     1     -21.707  -8.008  -2.980  1.00  0.00    -0.398 OA
HETATM   65  H   UNL     1     -20.744  -7.911  -3.071  1.00  0.00     0.209 HD
ENDBRANCH  63  64
ENDBRANCH  38  63
ENDBRANCH   1  34
TORSDOF 22
ENDMDL
