MODEL 1
REMARK VINA RESULT:      -6.6      0.000      0.000
REMARK  17 active torsions:
REMARK  status: ('A' for Active; 'I' for Inactive)
REMARK    1  A    between atoms: C_2  and  C_3 
REMARK    2  A    between atoms: C_3  and  C_4 
REMARK    3  A    between atoms: C_4  and  C_5 
REMARK    4  A    between atoms: C_5  and  C_6 
REMARK    5  A    between atoms: C_6  and  C_7 
REMARK    6  A    between atoms: C_7  and  C_8 
REMARK    7  A    between atoms: C_8  and  C_9 
REMARK    8  A    between atoms: C_9  and  C_10 
REMARK    9  A    between atoms: C_10  and  C_11 
REMARK   10  A    between atoms: C_11  and  C_12 
REMARK   11  A    between atoms: C_12  and  C_13 
REMARK   12  A    between atoms: C_13  and  C_14 
REMARK   13  A    between atoms: C_14  and  C_15 
REMARK   14  A    between atoms: C_15  and  C_16 
REMARK   15  A    between atoms: C_16  and  N_17 
REMARK   16  A    between atoms: N_17  and  C_20 
REMARK   17  A    between atoms: C_20  and  C_21 
ROOT
HETATM    1  C   UNL     1     -20.994  -4.817  -6.358  1.00  0.00     0.000 C 
ENDROOT
BRANCH   1   2
HETATM    2  C   UNL     1     -20.144  -6.058  -6.570  1.00  0.00     0.000 C 
BRANCH   2   3
HETATM    3  C   UNL     1     -20.688  -7.192  -5.714  1.00  0.00     0.000 C 
BRANCH   3   4
HETATM    4  C   UNL     1     -21.803  -6.688  -4.816  1.00  0.00     0.000 C 
BRANCH   4   5
HETATM    5  C   UNL     1     -21.708  -7.340  -3.447  1.00  0.00     0.000 C 
BRANCH   5   6
HETATM    6  C   UNL     1     -22.303  -6.422  -2.393  1.00  0.00     0.000 C 
BRANCH   6   7
HETATM    7  C   UNL     1     -21.732  -6.742  -1.023  1.00  0.00     0.000 C 
BRANCH   7   8
HETATM    8  C   UNL     1     -22.719  -7.584  -0.228  1.00  0.00     0.000 C 
BRANCH   8   9
HETATM    9  C   UNL     1     -21.982  -8.590   0.645  1.00  0.00     0.000 C 
BRANCH   9  10
HETATM   10  C   UNL     1     -22.221 -10.007   0.141  1.00  0.00    -0.000 C 
BRANCH  10  11
HETATM   11  C   UNL     1     -23.684 -10.216  -0.227  1.00  0.00    -0.005 C 
HETATM   12  C   UNL     1     -23.874 -11.525  -0.972  1.00  0.00     0.005 C 
ENDBRANCH  10  11
ENDBRANCH   9  10
ENDBRANCH   8   9
ENDBRANCH   7   8
ENDBRANCH   6   7
ENDBRANCH   5   6
ENDBRANCH   4   5
ENDBRANCH   3   4
ENDBRANCH   2   3
ENDBRANCH   1   2
BRANCH   1  13
HETATM   13  C   UNL     1     -20.777  -3.798  -7.471  1.00  0.00     0.000 C 
BRANCH  13  14
HETATM   14  C   UNL     1     -20.267  -4.456  -8.754  1.00  0.00     0.002 C 
BRANCH  14  15
HETATM   15  C   UNL     1     -20.579  -3.681 -10.040  1.00  0.00     0.028 C 
BRANCH  15  16
HETATM   16  C   UNL     1     -21.288  -4.532 -11.101  1.00  0.00     0.237 C 
BRANCH  16  17
HETATM   17  N   UNL     1     -22.698  -4.008 -11.418  1.00  0.00    -0.065 N 
HETATM   18  C   UNL     1     -23.630  -5.081 -11.901  1.00  0.00     0.272 C 
HETATM   19  C   UNL     1     -23.274  -3.252 -10.224  1.00  0.00     0.272 C 
BRANCH  17  20
HETATM   20  C   UNL     1     -22.533  -2.934 -12.591  1.00  0.00     0.349 C 
BRANCH  20  21
HETATM   21  C   UNL     1     -23.679  -2.867 -13.641  1.00  0.00     0.199 C 
HETATM   22  O   UNL     1     -23.315  -3.132 -14.820  1.00  0.00    -0.647 OA
HETATM   23  O   UNL     1     -24.771  -2.431 -13.180  1.00  0.00    -0.647 OA
ENDBRANCH  20  21
ENDBRANCH  17  20
ENDBRANCH  16  17
ENDBRANCH  15  16
ENDBRANCH  14  15
ENDBRANCH  13  14
ENDBRANCH   1  13
TORSDOF 17
ENDMDL
MODEL 2
REMARK VINA RESULT:      -6.5      1.502      2.451
REMARK  17 active torsions:
REMARK  status: ('A' for Active; 'I' for Inactive)
REMARK    1  A    between atoms: C_2  and  C_3 
REMARK    2  A    between atoms: C_3  and  C_4 
REMARK    3  A    between atoms: C_4  and  C_5 
REMARK    4  A    between atoms: C_5  and  C_6 
REMARK    5  A    between atoms: C_6  and  C_7 
REMARK    6  A    between atoms: C_7  and  C_8 
REMARK    7  A    between atoms: C_8  and  C_9 
REMARK    8  A    between atoms: C_9  and  C_10 
REMARK    9  A    between atoms: C_10  and  C_11 
REMARK   10  A    between atoms: C_11  and  C_12 
REMARK   11  A    between atoms: C_12  and  C_13 
REMARK   12  A    between atoms: C_13  and  C_14 
REMARK   13  A    between atoms: C_14  and  C_15 
REMARK   14  A    between atoms: C_15  and  C_16 
REMARK   15  A    between atoms: C_16  and  N_17 
REMARK   16  A    between atoms: N_17  and  C_20 
REMARK   17  A    between atoms: C_20  and  C_21 
ROOT
HETATM    1  C   UNL     1     -20.451  -5.925  -5.906  1.00  0.00     0.000 C 
ENDROOT
BRANCH   1   2
HETATM    2  C   UNL     1     -21.806  -6.093  -5.240  1.00  0.00     0.000 C 
BRANCH   2   3
HETATM    3  C   UNL     1     -21.730  -7.221  -4.223  1.00  0.00     0.000 C 
BRANCH   3   4
HETATM    4  C   UNL     1     -21.159  -6.713  -2.912  1.00  0.00     0.000 C 
BRANCH   4   5
HETATM    5  C   UNL     1     -22.279  -6.243  -1.999  1.00  0.00     0.000 C 
BRANCH   5   6
HETATM    6  C   UNL     1     -22.208  -6.978  -0.672  1.00  0.00     0.000 C 
BRANCH   6   7
HETATM    7  C   UNL     1     -22.356  -8.475  -0.882  1.00  0.00     0.000 C 
BRANCH   7   8
HETATM    8  C   UNL     1     -21.583  -9.232   0.189  1.00  0.00     0.000 C 
BRANCH   8   9
HETATM    9  C   UNL     1     -20.603 -10.206  -0.449  1.00  0.00     0.000 C 
BRANCH   9  10
HETATM   10  C   UNL     1     -20.848 -10.302  -1.949  1.00  0.00    -0.000 C 
BRANCH  10  11
HETATM   11  C   UNL     1     -19.548 -10.570  -2.697  1.00  0.00    -0.005 C 
HETATM   12  C   UNL     1     -18.665  -9.335  -2.708  1.00  0.00     0.005 C 
ENDBRANCH  10  11
ENDBRANCH   9  10
ENDBRANCH   8   9
ENDBRANCH   7   8
ENDBRANCH   6   7
ENDBRANCH   5   6
ENDBRANCH   4   5
ENDBRANCH   3   4
ENDBRANCH   2   3
ENDBRANCH   1   2
BRANCH   1  13
HETATM   13  C   UNL     1     -20.307  -4.542  -6.531  1.00  0.00     0.000 C 
BRANCH  13  14
HETATM   14  C   UNL     1     -21.606  -4.074  -7.187  1.00  0.00     0.002 C 
BRANCH  14  15
HETATM   15  C   UNL     1     -21.831  -4.599  -8.610  1.00  0.00     0.028 C 
BRANCH  15  16
HETATM   16  C   UNL     1     -22.662  -3.647  -9.480  1.00  0.00     0.237 C 
BRANCH  16  17
HETATM   17  N   UNL     1     -22.486  -3.930 -10.980  1.00  0.00    -0.065 N 
HETATM   18  C   UNL     1     -21.085  -4.328 -11.345  1.00  0.00     0.272 C 
HETATM   19  C   UNL     1     -23.510  -4.956 -11.460  1.00  0.00     0.272 C 
BRANCH  17  20
HETATM   20  C   UNL     1     -22.825  -2.568 -11.745  1.00  0.00     0.349 C 
BRANCH  20  21
HETATM   21  C   UNL     1     -23.530  -2.699 -13.125  1.00  0.00     0.199 C 
HETATM   22  O   UNL     1     -24.791  -2.697 -13.065  1.00  0.00    -0.647 OA
HETATM   23  O   UNL     1     -22.739  -2.917 -14.086  1.00  0.00    -0.647 OA
ENDBRANCH  20  21
ENDBRANCH  17  20
ENDBRANCH  16  17
ENDBRANCH  15  16
ENDBRANCH  14  15
ENDBRANCH  13  14
ENDBRANCH   1  13
TORSDOF 17
ENDMDL
MODEL 3
REMARK VINA RESULT:      -6.4      1.321      2.010
REMARK  17 active torsions:
REMARK  status: ('A' for Active; 'I' for Inactive)
REMARK    1  A    between atoms: C_2  and  C_3 
REMARK    2  A    between atoms: C_3  and  C_4 
REMARK    3  A    between atoms: C_4  and  C_5 
REMARK    4  A    between atoms: C_5  and  C_6 
REMARK    5  A    between atoms: C_6  and  C_7 
REMARK    6  A    between atoms: C_7  and  C_8 
REMARK    7  A    between atoms: C_8  and  C_9 
REMARK    8  A    between atoms: C_9  and  C_10 
REMARK    9  A    between atoms: C_10  and  C_11 
REMARK   10  A    between atoms: C_11  and  C_12 
REMARK   11  A    between atoms: C_12  and  C_13 
REMARK   12  A    between atoms: C_13  and  C_14 
REMARK   13  A    between atoms: C_14  and  C_15 
REMARK   14  A    between atoms: C_15  and  C_16 
REMARK   15  A    between atoms: C_16  and  N_17 
REMARK   16  A    between atoms: N_17  and  C_20 
REMARK   17  A    between atoms: C_20  and  C_21 
ROOT
HETATM    1  C   UNL     1     -20.558  -6.075  -5.859  1.00  0.00     0.000 C 
ENDROOT
BRANCH   1   2
HETATM    2  C   UNL     1     -21.913  -6.432  -5.272  1.00  0.00     0.000 C 
BRANCH   2   3
HETATM    3  C   UNL     1     -21.711  -7.242  -4.000  1.00  0.00     0.000 C 
BRANCH   3   4
HETATM    4  C   UNL     1     -21.183  -6.356  -2.887  1.00  0.00     0.000 C 
BRANCH   4   5
HETATM    5  C   UNL     1     -22.228  -6.209  -1.794  1.00  0.00     0.000 C 
BRANCH   5   6
HETATM    6  C   UNL     1     -22.422  -7.537  -1.081  1.00  0.00     0.000 C 
BRANCH   6   7
HETATM    7  C   UNL     1     -21.162  -7.927  -0.328  1.00  0.00     0.000 C 
BRANCH   7   8
HETATM    8  C   UNL     1     -21.318  -9.320   0.266  1.00  0.00     0.000 C 
BRANCH   8   9
HETATM    9  C   UNL     1     -21.834 -10.294  -0.784  1.00  0.00     0.000 C 
BRANCH   9  10
HETATM   10  C   UNL     1     -20.701 -10.743  -1.696  1.00  0.00    -0.000 C 
BRANCH  10  11
HETATM   11  C   UNL     1     -21.240 -11.240  -3.032  1.00  0.00    -0.005 C 
HETATM   12  C   UNL     1     -22.685 -10.814  -3.224  1.00  0.00     0.005 C 
ENDBRANCH  10  11
ENDBRANCH   9  10
ENDBRANCH   8   9
ENDBRANCH   7   8
ENDBRANCH   6   7
ENDBRANCH   5   6
ENDBRANCH   4   5
ENDBRANCH   3   4
ENDBRANCH   2   3
ENDBRANCH   1   2
BRANCH   1  13
HETATM   13  C   UNL     1     -20.525  -4.629  -6.341  1.00  0.00     0.000 C 
BRANCH  13  14
HETATM   14  C   UNL     1     -21.771  -4.270  -7.152  1.00  0.00     0.002 C 
BRANCH  14  15
HETATM   15  C   UNL     1     -21.655  -4.539  -8.657  1.00  0.00     0.028 C 
BRANCH  15  16
HETATM   16  C   UNL     1     -22.584  -3.657  -9.501  1.00  0.00     0.237 C 
BRANCH  16  17
HETATM   17  N   UNL     1     -22.453  -3.946 -11.004  1.00  0.00    -0.065 N 
HETATM   18  C   UNL     1     -21.056  -4.314 -11.414  1.00  0.00     0.272 C 
HETATM   19  C   UNL     1     -23.466  -5.000 -11.442  1.00  0.00     0.272 C 
BRANCH  17  20
HETATM   20  C   UNL     1     -22.850  -2.598 -11.766  1.00  0.00     0.349 C 
BRANCH  20  21
HETATM   21  C   UNL     1     -23.551  -2.756 -13.146  1.00  0.00     0.199 C 
HETATM   22  O   UNL     1     -22.757  -2.923 -14.113  1.00  0.00    -0.647 OA
HETATM   23  O   UNL     1     -24.799  -2.566 -13.111  1.00  0.00    -0.647 OA
ENDBRANCH  20  21
ENDBRANCH  17  20
ENDBRANCH  16  17
ENDBRANCH  15  16
ENDBRANCH  14  15
ENDBRANCH  13  14
ENDBRANCH   1  13
TORSDOF 17
ENDMDL
MODEL 4
REMARK VINA RESULT:      -6.4      5.910     11.098
REMARK  17 active torsions:
REMARK  status: ('A' for Active; 'I' for Inactive)
REMARK    1  A    between atoms: C_2  and  C_3 
REMARK    2  A    between atoms: C_3  and  C_4 
REMARK    3  A    between atoms: C_4  and  C_5 
REMARK    4  A    between atoms: C_5  and  C_6 
REMARK    5  A    between atoms: C_6  and  C_7 
REMARK    6  A    between atoms: C_7  and  C_8 
REMARK    7  A    between atoms: C_8  and  C_9 
REMARK    8  A    between atoms: C_9  and  C_10 
REMARK    9  A    between atoms: C_10  and  C_11 
REMARK   10  A    between atoms: C_11  and  C_12 
REMARK   11  A    between atoms: C_12  and  C_13 
REMARK   12  A    between atoms: C_13  and  C_14 
REMARK   13  A    between atoms: C_14  and  C_15 
REMARK   14  A    between atoms: C_15  and  C_16 
REMARK   15  A    between atoms: C_16  and  N_17 
REMARK   16  A    between atoms: N_17  and  C_20 
REMARK   17  A    between atoms: C_20  and  C_21 
ROOT
HETATM    1  C   UNL     1     -21.334  -6.840  -3.042  1.00  0.00     0.000 C 
ENDROOT
BRANCH   1   2
HETATM    2  C   UNL     1     -21.877  -6.516  -4.423  1.00  0.00     0.000 C 
BRANCH   2   3
HETATM    3  C   UNL     1     -20.720  -6.398  -5.404  1.00  0.00     0.000 C 
BRANCH   3   4
HETATM    4  C   UNL     1     -20.245  -4.959  -5.489  1.00  0.00     0.000 C 
BRANCH   4   5
HETATM    5  C   UNL     1     -19.500  -4.730  -6.793  1.00  0.00     0.000 C 
BRANCH   5   6
HETATM    6  C   UNL     1     -20.482  -4.701  -7.952  1.00  0.00     0.000 C 
BRANCH   6   7
HETATM    7  C   UNL     1     -21.585  -3.690  -7.693  1.00  0.00     0.000 C 
BRANCH   7   8
HETATM    8  C   UNL     1     -22.941  -4.300  -8.019  1.00  0.00     0.000 C 
BRANCH   8   9
HETATM    9  C   UNL     1     -23.512  -3.684  -9.288  1.00  0.00     0.000 C 
BRANCH   9  10
HETATM   10  C   UNL     1     -22.896  -4.335 -10.519  1.00  0.00    -0.000 C 
BRANCH  10  11
HETATM   11  C   UNL     1     -22.236  -3.293 -11.414  1.00  0.00    -0.005 C 
HETATM   12  C   UNL     1     -20.723  -3.390 -11.331  1.00  0.00     0.005 C 
ENDBRANCH  10  11
ENDBRANCH   9  10
ENDBRANCH   8   9
ENDBRANCH   7   8
ENDBRANCH   6   7
ENDBRANCH   5   6
ENDBRANCH   4   5
ENDBRANCH   3   4
ENDBRANCH   2   3
ENDBRANCH   1   2
BRANCH   1  13
HETATM   13  C   UNL     1     -22.112  -6.110  -1.953  1.00  0.00     0.000 C 
BRANCH  13  14
HETATM   14  C   UNL     1     -22.407  -7.018  -0.759  1.00  0.00     0.002 C 
BRANCH  14  15
HETATM   15  C   UNL     1     -21.371  -8.123  -0.522  1.00  0.00     0.028 C 
BRANCH  15  16
HETATM   16  C   UNL     1     -21.847  -9.195   0.467  1.00  0.00     0.237 C 
BRANCH  16  17
HETATM   17  N   UNL     1     -22.311 -10.476  -0.243  1.00  0.00    -0.065 N 
HETATM   18  C   UNL     1     -23.800 -10.665  -0.206  1.00  0.00     0.272 C 
HETATM   19  C   UNL     1     -21.769 -10.529  -1.669  1.00  0.00     0.272 C 
BRANCH  17  20
HETATM   20  C   UNL     1     -21.640 -11.700   0.537  1.00  0.00     0.349 C 
BRANCH  20  21
HETATM   21  C   UNL     1     -20.273 -12.208  -0.004  1.00  0.00     0.199 C 
HETATM   22  O   UNL     1     -20.338 -13.306  -0.623  1.00  0.00    -0.647 OA
HETATM   23  O   UNL     1     -19.286 -11.514   0.368  1.00  0.00    -0.647 OA
ENDBRANCH  20  21
ENDBRANCH  17  20
ENDBRANCH  16  17
ENDBRANCH  15  16
ENDBRANCH  14  15
ENDBRANCH  13  14
ENDBRANCH   1  13
TORSDOF 17
ENDMDL
MODEL 5
REMARK VINA RESULT:      -6.3      1.385      2.344
REMARK  17 active torsions:
REMARK  status: ('A' for Active; 'I' for Inactive)
REMARK    1  A    between atoms: C_2  and  C_3 
REMARK    2  A    between atoms: C_3  and  C_4 
REMARK    3  A    between atoms: C_4  and  C_5 
REMARK    4  A    between atoms: C_5  and  C_6 
REMARK    5  A    between atoms: C_6  and  C_7 
REMARK    6  A    between atoms: C_7  and  C_8 
REMARK    7  A    between atoms: C_8  and  C_9 
REMARK    8  A    between atoms: C_9  and  C_10 
REMARK    9  A    between atoms: C_10  and  C_11 
REMARK   10  A    between atoms: C_11  and  C_12 
REMARK   11  A    between atoms: C_12  and  C_13 
REMARK   12  A    between atoms: C_13  and  C_14 
REMARK   13  A    between atoms: C_14  and  C_15 
REMARK   14  A    between atoms: C_15  and  C_16 
REMARK   15  A    between atoms: C_16  and  N_17 
REMARK   16  A    between atoms: N_17  and  C_20 
REMARK   17  A    between atoms: C_20  and  C_21 
ROOT
HETATM    1  C   UNL     1     -20.440  -5.913  -6.048  1.00  0.00     0.000 C 
ENDROOT
BRANCH   1   2
HETATM    2  C   UNL     1     -21.785  -6.359  -5.499  1.00  0.00     0.000 C 
BRANCH   2   3
HETATM    3  C   UNL     1     -21.567  -7.154  -4.220  1.00  0.00     0.000 C 
BRANCH   3   4
HETATM    4  C   UNL     1     -21.023  -8.534  -4.543  1.00  0.00     0.000 C 
BRANCH   4   5
HETATM    5  C   UNL     1     -19.620  -8.689  -3.982  1.00  0.00     0.000 C 
BRANCH   5   6
HETATM    6  C   UNL     1     -19.682  -9.297  -2.591  1.00  0.00     0.000 C 
BRANCH   6   7
HETATM    7  C   UNL     1     -20.510 -10.570  -2.602  1.00  0.00     0.000 C 
BRANCH   7   8
HETATM    8  C   UNL     1     -21.138 -10.798  -1.234  1.00  0.00     0.000 C 
BRANCH   8   9
HETATM    9  C   UNL     1     -21.313  -9.476  -0.500  1.00  0.00     0.000 C 
BRANCH   9  10
HETATM   10  C   UNL     1     -22.720  -9.366   0.071  1.00  0.00    -0.000 C 
BRANCH  10  11
HETATM   11  C   UNL     1     -23.155  -7.910   0.176  1.00  0.00    -0.005 C 
HETATM   12  C   UNL     1     -22.285  -7.022  -0.695  1.00  0.00     0.005 C 
ENDBRANCH  10  11
ENDBRANCH   9  10
ENDBRANCH   8   9
ENDBRANCH   7   8
ENDBRANCH   6   7
ENDBRANCH   5   6
ENDBRANCH   4   5
ENDBRANCH   3   4
ENDBRANCH   2   3
ENDBRANCH   1   2
BRANCH   1  13
HETATM   13  C   UNL     1     -20.478  -4.457  -6.496  1.00  0.00     0.000 C 
BRANCH  13  14
HETATM   14  C   UNL     1     -21.753  -4.134  -7.277  1.00  0.00     0.002 C 
BRANCH  14  15
HETATM   15  C   UNL     1     -21.683  -4.448  -8.776  1.00  0.00     0.028 C 
BRANCH  15  16
HETATM   16  C   UNL     1     -22.612  -3.568  -9.621  1.00  0.00     0.237 C 
BRANCH  16  17
HETATM   17  N   UNL     1     -22.513  -3.890 -11.120  1.00  0.00    -0.065 N 
HETATM   18  C   UNL     1     -21.123  -4.261 -11.552  1.00  0.00     0.272 C 
HETATM   19  C   UNL     1     -23.531  -4.957 -11.512  1.00  0.00     0.272 C 
BRANCH  17  20
HETATM   20  C   UNL     1     -22.932  -2.561 -11.903  1.00  0.00     0.349 C 
BRANCH  20  21
HETATM   21  C   UNL     1     -23.564  -2.749 -13.311  1.00  0.00     0.199 C 
HETATM   22  O   UNL     1     -22.722  -2.854 -14.246  1.00  0.00    -0.647 OA
HETATM   23  O   UNL     1     -24.822  -2.640 -13.327  1.00  0.00    -0.647 OA
ENDBRANCH  20  21
ENDBRANCH  17  20
ENDBRANCH  16  17
ENDBRANCH  15  16
ENDBRANCH  14  15
ENDBRANCH  13  14
ENDBRANCH   1  13
TORSDOF 17
ENDMDL
MODEL 6
REMARK VINA RESULT:      -6.3      1.267      2.042
REMARK  17 active torsions:
REMARK  status: ('A' for Active; 'I' for Inactive)
REMARK    1  A    between atoms: C_2  and  C_3 
REMARK    2  A    between atoms: C_3  and  C_4 
REMARK    3  A    between atoms: C_4  and  C_5 
REMARK    4  A    between atoms: C_5  and  C_6 
REMARK    5  A    between atoms: C_6  and  C_7 
REMARK    6  A    between atoms: C_7  and  C_8 
REMARK    7  A    between atoms: C_8  and  C_9 
REMARK    8  A    between atoms: C_9  and  C_10 
REMARK    9  A    between atoms: C_10  and  C_11 
REMARK   10  A    between atoms: C_11  and  C_12 
REMARK   11  A    between atoms: C_12  and  C_13 
REMARK   12  A    between atoms: C_13  and  C_14 
REMARK   13  A    between atoms: C_14  and  C_15 
REMARK   14  A    between atoms: C_15  and  C_16 
REMARK   15  A    between atoms: C_16  and  N_17 
REMARK   16  A    between atoms: N_17  and  C_20 
REMARK   17  A    between atoms: C_20  and  C_21 
ROOT
HETATM    1  C   UNL     1     -20.383  -5.320  -6.670  1.00  0.00     0.000 C 
ENDROOT
BRANCH   1   2
HETATM    2  C   UNL     1     -21.130  -6.307  -5.790  1.00  0.00     0.000 C 
BRANCH   2   3
HETATM    3  C   UNL     1     -21.089  -5.827  -4.347  1.00  0.00     0.000 C 
BRANCH   3   4
HETATM    4  C   UNL     1     -21.893  -6.758  -3.458  1.00  0.00     0.000 C 
BRANCH   4   5
HETATM    5  C   UNL     1     -21.403  -6.663  -2.023  1.00  0.00     0.000 C 
BRANCH   5   6
HETATM    6  C   UNL     1     -22.241  -7.563  -1.130  1.00  0.00     0.000 C 
BRANCH   6   7
HETATM    7  C   UNL     1     -21.397  -8.130  -0.002  1.00  0.00     0.000 C 
BRANCH   7   8
HETATM    8  C   UNL     1     -21.944  -9.483   0.431  1.00  0.00     0.000 C 
BRANCH   8   9
HETATM    9  C   UNL     1     -23.069  -9.925  -0.494  1.00  0.00     0.000 C 
BRANCH   9  10
HETATM   10  C   UNL     1     -23.732 -11.188   0.040  1.00  0.00    -0.000 C 
BRANCH  10  11
HETATM   11  C   UNL     1     -22.689 -12.199   0.500  1.00  0.00    -0.005 C 
HETATM   12  C   UNL     1     -23.327 -13.291   1.339  1.00  0.00     0.005 C 
ENDBRANCH  10  11
ENDBRANCH   9  10
ENDBRANCH   8   9
ENDBRANCH   7   8
ENDBRANCH   6   7
ENDBRANCH   5   6
ENDBRANCH   4   5
ENDBRANCH   3   4
ENDBRANCH   2   3
ENDBRANCH   1   2
BRANCH   1  13
HETATM   13  C   UNL     1     -21.311  -4.233  -7.199  1.00  0.00     0.000 C 
BRANCH  13  14
HETATM   14  C   UNL     1     -22.715  -4.770  -7.479  1.00  0.00     0.002 C 
BRANCH  14  15
HETATM   15  C   UNL     1     -23.473  -4.035  -8.590  1.00  0.00     0.028 C 
BRANCH  15  16
HETATM   16  C   UNL     1     -22.549  -3.276  -9.552  1.00  0.00     0.237 C 
BRANCH  16  17
HETATM   17  N   UNL     1     -22.428  -3.977 -10.914  1.00  0.00    -0.065 N 
HETATM   18  C   UNL     1     -21.030  -4.431 -11.221  1.00  0.00     0.272 C 
HETATM   19  C   UNL     1     -23.431  -5.122 -11.023  1.00  0.00     0.272 C 
BRANCH  17  20
HETATM   20  C   UNL     1     -22.851  -2.903 -12.020  1.00  0.00     0.349 C 
BRANCH  20  21
HETATM   21  C   UNL     1     -24.235  -3.108 -12.699  1.00  0.00     0.199 C 
HETATM   22  O   UNL     1     -25.220  -2.906 -11.936  1.00  0.00    -0.647 OA
HETATM   23  O   UNL     1     -24.166  -3.571 -13.872  1.00  0.00    -0.647 OA
ENDBRANCH  20  21
ENDBRANCH  17  20
ENDBRANCH  16  17
ENDBRANCH  15  16
ENDBRANCH  14  15
ENDBRANCH  13  14
ENDBRANCH   1  13
TORSDOF 17
ENDMDL
MODEL 7
REMARK VINA RESULT:      -6.3      1.059      1.891
REMARK  17 active torsions:
REMARK  status: ('A' for Active; 'I' for Inactive)
REMARK    1  A    between atoms: C_2  and  C_3 
REMARK    2  A    between atoms: C_3  and  C_4 
REMARK    3  A    between atoms: C_4  and  C_5 
REMARK    4  A    between atoms: C_5  and  C_6 
REMARK    5  A    between atoms: C_6  and  C_7 
REMARK    6  A    between atoms: C_7  and  C_8 
REMARK    7  A    between atoms: C_8  and  C_9 
REMARK    8  A    between atoms: C_9  and  C_10 
REMARK    9  A    between atoms: C_10  and  C_11 
REMARK   10  A    between atoms: C_11  and  C_12 
REMARK   11  A    between atoms: C_12  and  C_13 
REMARK   12  A    between atoms: C_13  and  C_14 
REMARK   13  A    between atoms: C_14  and  C_15 
REMARK   14  A    between atoms: C_15  and  C_16 
REMARK   15  A    between atoms: C_16  and  N_17 
REMARK   16  A    between atoms: N_17  and  C_20 
REMARK   17  A    between atoms: C_20  and  C_21 
ROOT
HETATM    1  C   UNL     1     -19.949  -4.527  -6.548  1.00  0.00     0.000 C 
ENDROOT
BRANCH   1   2
HETATM    2  C   UNL     1     -19.632  -5.973  -6.889  1.00  0.00     0.000 C 
BRANCH   2   3
HETATM    3  C   UNL     1     -20.365  -6.890  -5.922  1.00  0.00     0.000 C 
BRANCH   3   4
HETATM    4  C   UNL     1     -20.913  -6.094  -4.752  1.00  0.00     0.000 C 
BRANCH   4   5
HETATM    5  C   UNL     1     -21.706  -7.001  -3.827  1.00  0.00     0.000 C 
BRANCH   5   6
HETATM    6  C   UNL     1     -21.769  -8.404  -4.406  1.00  0.00     0.000 C 
BRANCH   6   7
HETATM    7  C   UNL     1     -21.048  -9.388  -3.500  1.00  0.00     0.000 C 
BRANCH   7   8
HETATM    8  C   UNL     1     -20.699  -8.721  -2.177  1.00  0.00     0.000 C 
BRANCH   8   9
HETATM    9  C   UNL     1     -21.185  -9.567  -1.008  1.00  0.00     0.000 C 
BRANCH   9  10
HETATM   10  C   UNL     1     -22.486  -9.006  -0.450  1.00  0.00    -0.000 C 
BRANCH  10  11
HETATM   11  C   UNL     1     -22.214  -8.015   0.675  1.00  0.00    -0.005 C 
HETATM   12  C   UNL     1     -21.101  -8.514   1.579  1.00  0.00     0.005 C 
ENDBRANCH  10  11
ENDBRANCH   9  10
ENDBRANCH   8   9
ENDBRANCH   7   8
ENDBRANCH   6   7
ENDBRANCH   5   6
ENDBRANCH   4   5
ENDBRANCH   3   4
ENDBRANCH   2   3
ENDBRANCH   1   2
BRANCH   1  13
HETATM   13  C   UNL     1     -20.591  -3.805  -7.727  1.00  0.00     0.000 C 
BRANCH  13  14
HETATM   14  C   UNL     1     -20.094  -4.348  -9.067  1.00  0.00     0.002 C 
BRANCH  14  15
HETATM   15  C   UNL     1     -20.629  -3.606 -10.298  1.00  0.00     0.028 C 
BRANCH  15  16
HETATM   16  C   UNL     1     -21.418  -4.511 -11.252  1.00  0.00     0.237 C 
BRANCH  16  17
HETATM   17  N   UNL     1     -22.830  -3.972 -11.528  1.00  0.00    -0.065 N 
HETATM   18  C   UNL     1     -23.749  -5.001 -12.121  1.00  0.00     0.272 C 
HETATM   19  C   UNL     1     -23.423  -3.342 -10.271  1.00  0.00     0.272 C 
BRANCH  17  20
HETATM   20  C   UNL     1     -22.668  -2.787 -12.589  1.00  0.00     0.349 C 
BRANCH  20  21
HETATM   21  C   UNL     1     -23.749  -2.695 -13.704  1.00  0.00     0.199 C 
HETATM   22  O   UNL     1     -24.909  -2.436 -13.279  1.00  0.00    -0.647 OA
HETATM   23  O   UNL     1     -23.331  -3.020 -14.851  1.00  0.00    -0.647 OA
ENDBRANCH  20  21
ENDBRANCH  17  20
ENDBRANCH  16  17
ENDBRANCH  15  16
ENDBRANCH  14  15
ENDBRANCH  13  14
ENDBRANCH   1  13
TORSDOF 17
ENDMDL
MODEL 8
REMARK VINA RESULT:      -6.2      5.869     11.140
REMARK  17 active torsions:
REMARK  status: ('A' for Active; 'I' for Inactive)
REMARK    1  A    between atoms: C_2  and  C_3 
REMARK    2  A    between atoms: C_3  and  C_4 
REMARK    3  A    between atoms: C_4  and  C_5 
REMARK    4  A    between atoms: C_5  and  C_6 
REMARK    5  A    between atoms: C_6  and  C_7 
REMARK    6  A    between atoms: C_7  and  C_8 
REMARK    7  A    between atoms: C_8  and  C_9 
REMARK    8  A    between atoms: C_9  and  C_10 
REMARK    9  A    between atoms: C_10  and  C_11 
REMARK   10  A    between atoms: C_11  and  C_12 
REMARK   11  A    between atoms: C_12  and  C_13 
REMARK   12  A    between atoms: C_13  and  C_14 
REMARK   13  A    between atoms: C_14  and  C_15 
REMARK   14  A    between atoms: C_15  and  C_16 
REMARK   15  A    between atoms: C_16  and  N_17 
REMARK   16  A    between atoms: N_17  and  C_20 
REMARK   17  A    between atoms: C_20  and  C_21 
ROOT
HETATM    1  C   UNL     1     -21.969  -6.633  -3.913  1.00  0.00     0.000 C 
ENDROOT
BRANCH   1   2
HETATM    2  C   UNL     1     -20.872  -6.596  -4.963  1.00  0.00     0.000 C 
BRANCH   2   3
HETATM    3  C   UNL     1     -20.395  -5.163  -5.143  1.00  0.00     0.000 C 
BRANCH   3   4
HETATM    4  C   UNL     1     -20.435  -4.773  -6.609  1.00  0.00     0.000 C 
BRANCH   4   5
HETATM    5  C   UNL     1     -21.872  -4.561  -7.056  1.00  0.00     0.000 C 
BRANCH   5   6
HETATM    6  C   UNL     1     -21.897  -3.979  -8.459  1.00  0.00     0.000 C 
BRANCH   6   7
HETATM    7  C   UNL     1     -20.588  -4.257  -9.176  1.00  0.00     0.000 C 
BRANCH   7   8
HETATM    8  C   UNL     1     -20.590  -3.593 -10.545  1.00  0.00     0.000 C 
BRANCH   8   9
HETATM    9  C   UNL     1     -21.352  -4.445 -11.551  1.00  0.00     0.000 C 
BRANCH   9  10
HETATM   10  C   UNL     1     -22.171  -3.562 -12.483  1.00  0.00    -0.000 C 
BRANCH  10  11
HETATM   11  C   UNL     1     -23.078  -2.628 -11.692  1.00  0.00    -0.005 C 
HETATM   12  C   UNL     1     -24.337  -3.347 -11.243  1.00  0.00     0.005 C 
ENDBRANCH  10  11
ENDBRANCH   9  10
ENDBRANCH   8   9
ENDBRANCH   7   8
ENDBRANCH   6   7
ENDBRANCH   5   6
ENDBRANCH   4   5
ENDBRANCH   3   4
ENDBRANCH   2   3
ENDBRANCH   1   2
BRANCH   1  13
HETATM   13  C   UNL     1     -21.509  -5.996  -2.607  1.00  0.00     0.000 C 
BRANCH  13  14
HETATM   14  C   UNL     1     -22.190  -6.631  -1.393  1.00  0.00     0.002 C 
BRANCH  14  15
HETATM   15  C   UNL     1     -21.517  -7.908  -0.876  1.00  0.00     0.028 C 
BRANCH  15  16
HETATM   16  C   UNL     1     -22.475  -9.102  -0.789  1.00  0.00     0.237 C 
BRANCH  16  17
HETATM   17  N   UNL     1     -21.894 -10.362  -1.449  1.00  0.00    -0.065 N 
HETATM   18  C   UNL     1     -22.586 -11.624  -1.022  1.00  0.00     0.272 C 
HETATM   19  C   UNL     1     -21.874 -10.214  -2.968  1.00  0.00     0.272 C 
BRANCH  17  20
HETATM   20  C   UNL     1     -20.367 -10.458  -0.988  1.00  0.00     0.349 C 
BRANCH  20  21
HETATM   21  C   UNL     1     -20.086 -11.210   0.344  1.00  0.00     0.199 C 
HETATM   22  O   UNL     1     -20.367 -10.547   1.381  1.00  0.00    -0.647 OA
HETATM   23  O   UNL     1     -19.499 -12.318   0.193  1.00  0.00    -0.647 OA
ENDBRANCH  20  21
ENDBRANCH  17  20
ENDBRANCH  16  17
ENDBRANCH  15  16
ENDBRANCH  14  15
ENDBRANCH  13  14
ENDBRANCH   1  13
TORSDOF 17
ENDMDL
MODEL 9
REMARK VINA RESULT:      -6.2      5.175     10.578
REMARK  17 active torsions:
REMARK  status: ('A' for Active; 'I' for Inactive)
REMARK    1  A    between atoms: C_2  and  C_3 
REMARK    2  A    between atoms: C_3  and  C_4 
REMARK    3  A    between atoms: C_4  and  C_5 
REMARK    4  A    between atoms: C_5  and  C_6 
REMARK    5  A    between atoms: C_6  and  C_7 
REMARK    6  A    between atoms: C_7  and  C_8 
REMARK    7  A    between atoms: C_8  and  C_9 
REMARK    8  A    between atoms: C_9  and  C_10 
REMARK    9  A    between atoms: C_10  and  C_11 
REMARK   10  A    between atoms: C_11  and  C_12 
REMARK   11  A    between atoms: C_12  and  C_13 
REMARK   12  A    between atoms: C_13  and  C_14 
REMARK   13  A    between atoms: C_14  and  C_15 
REMARK   14  A    between atoms: C_15  and  C_16 
REMARK   15  A    between atoms: C_16  and  N_17 
REMARK   16  A    between atoms: N_17  and  C_20 
REMARK   17  A    between atoms: C_20  and  C_21 
ROOT
HETATM    1  C   UNL     1     -21.772  -6.475  -4.642  1.00  0.00     0.000 C 
ENDROOT
BRANCH   1   2
HETATM    2  C   UNL     1     -21.212  -6.933  -5.978  1.00  0.00     0.000 C 
BRANCH   2   3
HETATM    3  C   UNL     1     -20.085  -6.001  -6.397  1.00  0.00     0.000 C 
BRANCH   3   4
HETATM    4  C   UNL     1     -20.577  -4.567  -6.445  1.00  0.00     0.000 C 
BRANCH   4   5
HETATM    5  C   UNL     1     -21.495  -4.367  -7.639  1.00  0.00     0.000 C 
BRANCH   5   6
HETATM    6  C   UNL     1     -20.754  -3.634  -8.745  1.00  0.00     0.000 C 
BRANCH   6   7
HETATM    7  C   UNL     1     -20.171  -4.620  -9.742  1.00  0.00     0.000 C 
BRANCH   7   8
HETATM    8  C   UNL     1     -20.499  -4.184 -11.163  1.00  0.00     0.000 C 
BRANCH   8   9
HETATM    9  C   UNL     1     -21.705  -3.255 -11.171  1.00  0.00     0.000 C 
BRANCH   9  10
HETATM   10  C   UNL     1     -22.910  -3.953 -11.787  1.00  0.00    -0.000 C 
BRANCH  10  11
HETATM   11  C   UNL     1     -23.793  -4.569 -10.710  1.00  0.00    -0.005 C 
HETATM   12  C   UNL     1     -24.467  -3.491  -9.881  1.00  0.00     0.005 C 
ENDBRANCH  10  11
ENDBRANCH   9  10
ENDBRANCH   8   9
ENDBRANCH   7   8
ENDBRANCH   6   7
ENDBRANCH   5   6
ENDBRANCH   4   5
ENDBRANCH   3   4
ENDBRANCH   2   3
ENDBRANCH   1   2
BRANCH   1  13
HETATM   13  C   UNL     1     -21.181  -7.274  -3.487  1.00  0.00     0.000 C 
BRANCH  13  14
HETATM   14  C   UNL     1     -20.729  -8.666  -3.930  1.00  0.00     0.002 C 
BRANCH  14  15
HETATM   15  C   UNL     1     -21.393  -9.825  -3.177  1.00  0.00     0.028 C 
BRANCH  15  16
HETATM   16  C   UNL     1     -20.622 -10.250  -1.921  1.00  0.00     0.237 C 
BRANCH  16  17
HETATM   17  N   UNL     1     -21.448 -10.058  -0.639  1.00  0.00    -0.065 N 
HETATM   18  C   UNL     1     -22.924 -10.230  -0.859  1.00  0.00     0.272 C 
HETATM   19  C   UNL     1     -20.932 -10.963   0.476  1.00  0.00     0.272 C 
BRANCH  17  20
HETATM   20  C   UNL     1     -21.196  -8.557  -0.152  1.00  0.00     0.349 C 
BRANCH  20  21
HETATM   21  C   UNL     1     -22.452  -7.731   0.246  1.00  0.00     0.199 C 
HETATM   22  O   UNL     1     -22.826  -6.904  -0.631  1.00  0.00    -0.647 OA
HETATM   23  O   UNL     1     -22.832  -7.918   1.436  1.00  0.00    -0.647 OA
ENDBRANCH  20  21
ENDBRANCH  17  20
ENDBRANCH  16  17
ENDBRANCH  15  16
ENDBRANCH  14  15
ENDBRANCH  13  14
ENDBRANCH   1  13
TORSDOF 17
ENDMDL
