MODEL 1
REMARK VINA RESULT:      -3.3      0.000      0.000
REMARK  1 active torsions:
REMARK  status: ('A' for Active; 'I' for Inactive)
REMARK    1  A    between atoms: C_2  and  O_4 
ROOT
HETATM    1  C   UNL     1     -22.776  -3.010 -13.165  1.00  0.00     0.125 C 
HETATM    2  C   UNL     1     -23.025  -2.644 -14.597  1.00  0.00     0.135 C 
HETATM    3  O   UNL     1     -23.943  -1.935 -14.975  1.00  0.00    -0.650 OA
ENDROOT
BRANCH   2   4
HETATM    4  O   UNL     1     -22.122  -3.186 -15.443  1.00  0.00    -0.777 OA
HETATM    5  H   UNL     1     -21.334  -3.549 -14.996  1.00  0.00     0.167 HD
ENDBRANCH   2   4
TORSDOF 1
ENDMDL
MODEL 2
REMARK VINA RESULT:      -3.2     13.921     14.031
REMARK  1 active torsions:
REMARK  status: ('A' for Active; 'I' for Inactive)
REMARK    1  A    between atoms: C_2  and  O_4 
ROOT
HETATM    1  C   UNL     1     -28.709 -15.078 -17.843  1.00  0.00     0.125 C 
HETATM    2  C   UNL     1     -29.667 -14.191 -18.580  1.00  0.00     0.135 C 
HETATM    3  O   UNL     1     -29.356 -13.142 -19.119  1.00  0.00    -0.650 OA
ENDROOT
BRANCH   2   4
HETATM    4  O   UNL     1     -30.929 -14.672 -18.588  1.00  0.00    -0.777 OA
HETATM    5  H   UNL     1     -30.979 -15.644 -18.650  1.00  0.00     0.167 HD
ENDBRANCH   2   4
TORSDOF 1
ENDMDL
MODEL 3
REMARK VINA RESULT:      -3.1      5.039      5.501
REMARK  1 active torsions:
REMARK  status: ('A' for Active; 'I' for Inactive)
REMARK    1  A    between atoms: C_2  and  O_4 
ROOT
HETATM    1  C   UNL     1     -23.431  -3.782 -10.582  1.00  0.00     0.125 C 
HETATM    2  C   UNL     1     -24.531  -3.526  -9.597  1.00  0.00     0.135 C 
HETATM    3  O   UNL     1     -25.643  -3.125  -9.898  1.00  0.00    -0.650 OA
ENDROOT
BRANCH   2   4
HETATM    4  O   UNL     1     -24.165  -3.783  -8.322  1.00  0.00    -0.777 OA
HETATM    5  H   UNL     1     -23.495  -3.165  -7.973  1.00  0.00     0.167 HD
ENDBRANCH   2   4
TORSDOF 1
ENDMDL
MODEL 4
REMARK VINA RESULT:      -3.1     15.122     15.262
REMARK  1 active torsions:
REMARK  status: ('A' for Active; 'I' for Inactive)
REMARK    1  A    between atoms: C_2  and  O_4 
ROOT
HETATM    1  C   UNL     1     -29.775 -15.779 -20.125  1.00  0.00     0.125 C 
HETATM    2  C   UNL     1     -30.576 -14.525 -20.304  1.00  0.00     0.135 C 
HETATM    3  O   UNL     1     -31.192 -14.242 -21.318  1.00  0.00    -0.650 OA
ENDROOT
BRANCH   2   4
HETATM    4  O   UNL     1     -30.548 -13.723 -19.217  1.00  0.00    -0.777 OA
HETATM    5  H   UNL     1     -30.552 -12.771 -19.430  1.00  0.00     0.167 HD
ENDBRANCH   2   4
TORSDOF 1
ENDMDL
MODEL 5
REMARK VINA RESULT:      -3.1      2.288      2.861
REMARK  1 active torsions:
REMARK  status: ('A' for Active; 'I' for Inactive)
REMARK    1  A    between atoms: C_2  and  O_4 
ROOT
HETATM    1  C   UNL     1     -22.682  -3.240 -12.345  1.00  0.00     0.125 C 
HETATM    2  C   UNL     1     -24.135  -2.872 -12.338  1.00  0.00     0.135 C 
HETATM    3  O   UNL     1     -24.911  -3.156 -11.440  1.00  0.00    -0.650 OA
ENDROOT
BRANCH   2   4
HETATM    4  O   UNL     1     -24.510  -2.187 -13.440  1.00  0.00    -0.777 OA
HETATM    5  H   UNL     1     -24.112  -2.523 -14.265  1.00  0.00     0.167 HD
ENDBRANCH   2   4
TORSDOF 1
ENDMDL
MODEL 6
REMARK VINA RESULT:      -2.9     11.127     11.376
REMARK  1 active torsions:
REMARK  status: ('A' for Active; 'I' for Inactive)
REMARK    1  A    between atoms: C_2  and  O_4 
ROOT
HETATM    1  C   UNL     1     -33.122  -3.810 -11.853  1.00  0.00     0.125 C 
HETATM    2  C   UNL     1     -34.168  -3.724 -12.924  1.00  0.00     0.135 C 
HETATM    3  O   UNL     1     -34.564  -2.680 -13.414  1.00  0.00    -0.650 OA
ENDROOT
BRANCH   2   4
HETATM    4  O   UNL     1     -34.639  -4.934 -13.297  1.00  0.00    -0.777 OA
HETATM    5  H   UNL     1     -35.232  -4.902 -14.071  1.00  0.00     0.167 HD
ENDBRANCH   2   4
TORSDOF 1
ENDMDL
MODEL 7
REMARK VINA RESULT:      -2.8      2.322      2.589
REMARK  1 active torsions:
REMARK  status: ('A' for Active; 'I' for Inactive)
REMARK    1  A    between atoms: C_2  and  O_4 
ROOT
HETATM    1  C   UNL     1     -21.195  -3.403 -11.295  1.00  0.00     0.125 C 
HETATM    2  C   UNL     1     -22.336  -3.088 -12.214  1.00  0.00     0.135 C 
HETATM    3  O   UNL     1     -23.398  -2.609 -11.852  1.00  0.00    -0.650 OA
ENDROOT
BRANCH   2   4
HETATM    4  O   UNL     1     -22.073  -3.394 -13.503  1.00  0.00    -0.777 OA
HETATM    5  H   UNL     1     -22.678  -4.060 -13.880  1.00  0.00     0.167 HD
ENDBRANCH   2   4
TORSDOF 1
ENDMDL
MODEL 8
REMARK VINA RESULT:      -2.8     13.571     14.132
REMARK  1 active torsions:
REMARK  status: ('A' for Active; 'I' for Inactive)
REMARK    1  A    between atoms: C_2  and  O_4 
ROOT
HETATM    1  C   UNL     1     -25.709   9.354 -20.996  1.00  0.00     0.125 C 
HETATM    2  C   UNL     1     -26.899   8.827 -21.739  1.00  0.00     0.135 C 
HETATM    3  O   UNL     1     -27.407   9.379 -22.701  1.00  0.00    -0.650 OA
ENDROOT
BRANCH   2   4
HETATM    4  O   UNL     1     -27.364   7.665 -21.231  1.00  0.00    -0.777 OA
HETATM    5  H   UNL     1     -26.707   6.944 -21.234  1.00  0.00     0.167 HD
ENDBRANCH   2   4
TORSDOF 1
ENDMDL
MODEL 9
REMARK VINA RESULT:      -2.8     15.396     15.573
REMARK  1 active torsions:
REMARK  status: ('A' for Active; 'I' for Inactive)
REMARK    1  A    between atoms: C_2  and  O_4 
ROOT
HETATM    1  C   UNL     1     -30.335 -14.330 -19.167  1.00  0.00     0.125 C 
HETATM    2  C   UNL     1     -30.544 -14.938 -20.521  1.00  0.00     0.135 C 
HETATM    3  O   UNL     1     -30.620 -16.138 -20.730  1.00  0.00    -0.650 OA
ENDROOT
BRANCH   2   4
HETATM    4  O   UNL     1     -30.638 -14.016 -21.503  1.00  0.00    -0.777 OA
HETATM    5  H   UNL     1     -31.458 -14.082 -22.027  1.00  0.00     0.167 HD
ENDBRANCH   2   4
TORSDOF 1
ENDMDL
