MODEL 1
REMARK VINA RESULT:      -6.2      0.000      0.000
REMARK  10 active torsions:
REMARK  status: ('A' for Active; 'I' for Inactive)
REMARK    1  A    between atoms: C_1  and  C_2 
REMARK    2  A    between atoms: C_1  and  C_8 
REMARK    3  A    between atoms: C_2  and  C_3 
REMARK    4  A    between atoms: C_3  and  C_4 
REMARK    5  A    between atoms: C_4  and  C_5 
REMARK    6  A    between atoms: C_5  and  O_7 
REMARK    7  A    between atoms: C_8  and  C_9 
REMARK    8  A    between atoms: C_9  and  C_10 
REMARK    9  A    between atoms: C_10  and  C_11 
REMARK   10  A    between atoms: C_11  and  O_13 
ROOT
HETATM    1  C   UNL     1     -20.735  -3.977 -11.055  1.00  0.00     0.000 C 
ENDROOT
BRANCH   1   2
HETATM    2  C   UNL     1     -20.796  -4.050  -9.526  1.00  0.00     0.001 C 
BRANCH   2   3
HETATM    3  C   UNL     1     -21.991  -4.854  -9.023  1.00  0.00     0.010 C 
BRANCH   3   4
HETATM    4  C   UNL     1     -23.113  -3.960  -8.487  1.00  0.00     0.110 C 
BRANCH   4   5
HETATM    5  C   UNL     1     -24.293  -3.920  -9.418  1.00  0.00     0.139 C 
HETATM    6  O   UNL     1     -24.567  -4.767 -10.255  1.00  0.00    -0.650 OA
BRANCH   5   7
HETATM    7  O   UNL     1     -25.062  -2.822  -9.223  1.00  0.00    -0.776 OA
HETATM    8  H   UNL     1     -25.902  -2.840  -9.722  1.00  0.00     0.167 HD
ENDBRANCH   5   7
ENDBRANCH   4   5
ENDBRANCH   3   4
ENDBRANCH   2   3
ENDBRANCH   1   2
BRANCH   1   9
HETATM    9  C   UNL     1     -21.590  -2.851 -11.635  1.00  0.00     0.001 C 
BRANCH   9  10
HETATM   10  C   UNL     1     -22.507  -3.359 -12.746  1.00  0.00     0.010 C 
BRANCH  10  11
HETATM   11  C   UNL     1     -23.739  -2.486 -12.929  1.00  0.00     0.110 C 
BRANCH  11  12
HETATM   12  C   UNL     1     -23.754  -1.863 -14.308  1.00  0.00     0.139 C 
HETATM   13  O   UNL     1     -23.011  -2.159 -15.229  1.00  0.00    -0.650 OA
BRANCH  12  14
HETATM   14  O   UNL     1     -24.711  -0.913 -14.427  1.00  0.00    -0.776 OA
HETATM   15  H   UNL     1     -24.677  -0.236 -13.727  1.00  0.00     0.167 HD
ENDBRANCH  12  14
ENDBRANCH  11  12
ENDBRANCH  10  11
ENDBRANCH   9  10
ENDBRANCH   1   9
TORSDOF 10
ENDMDL
MODEL 2
REMARK VINA RESULT:      -6.0      1.176      4.216
REMARK  10 active torsions:
REMARK  status: ('A' for Active; 'I' for Inactive)
REMARK    1  A    between atoms: C_1  and  C_2 
REMARK    2  A    between atoms: C_1  and  C_8 
REMARK    3  A    between atoms: C_2  and  C_3 
REMARK    4  A    between atoms: C_3  and  C_4 
REMARK    5  A    between atoms: C_4  and  C_5 
REMARK    6  A    between atoms: C_5  and  O_7 
REMARK    7  A    between atoms: C_8  and  C_9 
REMARK    8  A    between atoms: C_9  and  C_10 
REMARK    9  A    between atoms: C_10  and  C_11 
REMARK   10  A    between atoms: C_11  and  O_13 
ROOT
HETATM    1  C   UNL     1     -20.455  -4.392 -10.209  1.00  0.00     0.000 C 
ENDROOT
BRANCH   1   2
HETATM    2  C   UNL     1     -20.705  -3.268 -11.220  1.00  0.00     0.001 C 
BRANCH   2   3
HETATM    3  C   UNL     1     -21.744  -3.645 -12.272  1.00  0.00     0.010 C 
BRANCH   3   4
HETATM    4  C   UNL     1     -22.808  -2.560 -12.457  1.00  0.00     0.110 C 
BRANCH   4   5
HETATM    5  C   UNL     1     -23.996  -3.065 -13.229  1.00  0.00     0.139 C 
HETATM    6  O   UNL     1     -25.141  -3.128 -12.810  1.00  0.00    -0.650 OA
BRANCH   5   7
HETATM    7  O   UNL     1     -23.665  -3.444 -14.487  1.00  0.00    -0.776 OA
HETATM    8  H   UNL     1     -24.322  -4.037 -14.902  1.00  0.00     0.167 HD
ENDBRANCH   5   7
ENDBRANCH   4   5
ENDBRANCH   3   4
ENDBRANCH   2   3
ENDBRANCH   1   2
BRANCH   1   9
HETATM    9  C   UNL     1     -20.902  -4.034  -8.793  1.00  0.00     0.001 C 
BRANCH   9  10
HETATM   10  C   UNL     1     -22.237  -4.692  -8.444  1.00  0.00     0.010 C 
BRANCH  10  11
HETATM   11  C   UNL     1     -23.410  -3.731  -8.569  1.00  0.00     0.110 C 
BRANCH  11  12
HETATM   12  C   UNL     1     -24.373  -4.198  -9.639  1.00  0.00     0.139 C 
HETATM   13  O   UNL     1     -24.245  -5.201 -10.321  1.00  0.00    -0.650 OA
BRANCH  12  14
HETATM   14  O   UNL     1     -25.432  -3.365  -9.768  1.00  0.00    -0.776 OA
HETATM   15  H   UNL     1     -25.884  -3.439 -10.628  1.00  0.00     0.167 HD
ENDBRANCH  12  14
ENDBRANCH  11  12
ENDBRANCH  10  11
ENDBRANCH   9  10
ENDBRANCH   1   9
TORSDOF 10
ENDMDL
MODEL 3
REMARK VINA RESULT:      -5.8      1.820      4.971
REMARK  10 active torsions:
REMARK  status: ('A' for Active; 'I' for Inactive)
REMARK    1  A    between atoms: C_1  and  C_2 
REMARK    2  A    between atoms: C_1  and  C_8 
REMARK    3  A    between atoms: C_2  and  C_3 
REMARK    4  A    between atoms: C_3  and  C_4 
REMARK    5  A    between atoms: C_4  and  C_5 
REMARK    6  A    between atoms: C_5  and  O_7 
REMARK    7  A    between atoms: C_8  and  C_9 
REMARK    8  A    between atoms: C_9  and  C_10 
REMARK    9  A    between atoms: C_10  and  C_11 
REMARK   10  A    between atoms: C_11  and  O_13 
ROOT
HETATM    1  C   UNL     1     -20.874  -4.553 -10.218  1.00  0.00     0.000 C 
ENDROOT
BRANCH   1   2
HETATM    2  C   UNL     1     -20.611  -3.387 -11.176  1.00  0.00     0.001 C 
BRANCH   2   3
HETATM    3  C   UNL     1     -21.896  -2.783 -11.735  1.00  0.00     0.010 C 
BRANCH   3   4
HETATM    4  C   UNL     1     -23.023  -3.813 -11.853  1.00  0.00     0.110 C 
BRANCH   4   5
HETATM    5  C   UNL     1     -24.380  -3.178 -11.727  1.00  0.00     0.139 C 
HETATM    6  O   UNL     1     -25.102  -3.235 -10.744  1.00  0.00    -0.650 OA
BRANCH   5   7
HETATM    7  O   UNL     1     -24.733  -2.499 -12.845  1.00  0.00    -0.776 OA
HETATM    8  H   UNL     1     -25.701  -2.426 -12.968  1.00  0.00     0.167 HD
ENDBRANCH   5   7
ENDBRANCH   4   5
ENDBRANCH   3   4
ENDBRANCH   2   3
ENDBRANCH   1   2
BRANCH   1   9
HETATM    9  C   UNL     1     -19.874  -4.618  -9.066  1.00  0.00     0.001 C 
BRANCH   9  10
HETATM   10  C   UNL     1     -20.582  -4.698  -7.714  1.00  0.00     0.010 C 
BRANCH  10  11
HETATM   11  C   UNL     1     -21.698  -3.672  -7.579  1.00  0.00     0.110 C 
BRANCH  11  12
HETATM   12  C   UNL     1     -23.013  -4.349  -7.259  1.00  0.00     0.139 C 
HETATM   13  O   UNL     1     -23.212  -5.107  -6.324  1.00  0.00    -0.650 OA
BRANCH  12  14
HETATM   14  O   UNL     1     -23.983  -4.018  -8.142  1.00  0.00    -0.776 OA
HETATM   15  H   UNL     1     -24.580  -4.757  -8.362  1.00  0.00     0.167 HD
ENDBRANCH  12  14
ENDBRANCH  11  12
ENDBRANCH  10  11
ENDBRANCH   9  10
ENDBRANCH   1   9
TORSDOF 10
ENDMDL
MODEL 4
REMARK VINA RESULT:      -5.7      1.665      5.576
REMARK  10 active torsions:
REMARK  status: ('A' for Active; 'I' for Inactive)
REMARK    1  A    between atoms: C_1  and  C_2 
REMARK    2  A    between atoms: C_1  and  C_8 
REMARK    3  A    between atoms: C_2  and  C_3 
REMARK    4  A    between atoms: C_3  and  C_4 
REMARK    5  A    between atoms: C_4  and  C_5 
REMARK    6  A    between atoms: C_5  and  O_7 
REMARK    7  A    between atoms: C_8  and  C_9 
REMARK    8  A    between atoms: C_9  and  C_10 
REMARK    9  A    between atoms: C_10  and  C_11 
REMARK   10  A    between atoms: C_11  and  O_13 
ROOT
HETATM    1  C   UNL     1     -20.989  -3.409 -10.527  1.00  0.00     0.000 C 
ENDROOT
BRANCH   1   2
HETATM    2  C   UNL     1     -21.728  -3.620 -11.853  1.00  0.00     0.001 C 
BRANCH   2   3
HETATM    3  C   UNL     1     -22.911  -2.672 -12.024  1.00  0.00     0.010 C 
BRANCH   3   4
HETATM    4  C   UNL     1     -23.789  -3.042 -13.223  1.00  0.00     0.110 C 
BRANCH   4   5
HETATM    5  C   UNL     1     -23.469  -2.208 -14.432  1.00  0.00     0.139 C 
HETATM    6  O   UNL     1     -22.699  -2.520 -15.328  1.00  0.00    -0.650 OA
BRANCH   5   7
HETATM    7  O   UNL     1     -24.153  -1.039 -14.443  1.00  0.00    -0.776 OA
HETATM    8  H   UNL     1     -24.032  -0.523 -15.265  1.00  0.00     0.167 HD
ENDBRANCH   5   7
ENDBRANCH   4   5
ENDBRANCH   3   4
ENDBRANCH   2   3
ENDBRANCH   1   2
BRANCH   1   9
HETATM    9  C   UNL     1     -20.333  -4.682  -9.998  1.00  0.00     0.001 C 
BRANCH   9  10
HETATM   10  C   UNL     1     -20.429  -4.771  -8.476  1.00  0.00     0.010 C 
BRANCH  10  11
HETATM   11  C   UNL     1     -21.375  -3.734  -7.890  1.00  0.00     0.110 C 
BRANCH  11  12
HETATM   12  C   UNL     1     -22.583  -4.401  -7.268  1.00  0.00     0.139 C 
HETATM   13  O   UNL     1     -22.566  -5.133  -6.293  1.00  0.00    -0.650 OA
BRANCH  12  14
HETATM   14  O   UNL     1     -23.727  -4.093  -7.922  1.00  0.00    -0.776 OA
HETATM   15  H   UNL     1     -23.824  -3.142  -8.113  1.00  0.00     0.167 HD
ENDBRANCH  12  14
ENDBRANCH  11  12
ENDBRANCH  10  11
ENDBRANCH   9  10
ENDBRANCH   1   9
TORSDOF 10
ENDMDL
MODEL 5
REMARK VINA RESULT:      -5.6      1.871      2.586
REMARK  10 active torsions:
REMARK  status: ('A' for Active; 'I' for Inactive)
REMARK    1  A    between atoms: C_1  and  C_2 
REMARK    2  A    between atoms: C_1  and  C_8 
REMARK    3  A    between atoms: C_2  and  C_3 
REMARK    4  A    between atoms: C_3  and  C_4 
REMARK    5  A    between atoms: C_4  and  C_5 
REMARK    6  A    between atoms: C_5  and  O_7 
REMARK    7  A    between atoms: C_8  and  C_9 
REMARK    8  A    between atoms: C_9  and  C_10 
REMARK    9  A    between atoms: C_10  and  C_11 
REMARK   10  A    between atoms: C_11  and  O_13 
ROOT
HETATM    1  C   UNL     1     -20.445  -4.510 -10.537  1.00  0.00     0.000 C 
ENDROOT
BRANCH   1   2
HETATM    2  C   UNL     1     -19.850  -4.205  -9.158  1.00  0.00     0.001 C 
BRANCH   2   3
HETATM    3  C   UNL     1     -20.497  -5.023  -8.044  1.00  0.00     0.010 C 
BRANCH   3   4
HETATM    4  C   UNL     1     -21.280  -4.153  -7.058  1.00  0.00     0.110 C 
BRANCH   4   5
HETATM    5  C   UNL     1     -22.765  -4.339  -7.202  1.00  0.00     0.139 C 
HETATM    6  O   UNL     1     -23.487  -4.930  -6.415  1.00  0.00    -0.650 OA
BRANCH   5   7
HETATM    7  O   UNL     1     -23.248  -3.752  -8.324  1.00  0.00    -0.776 OA
HETATM    8  H   UNL     1     -23.320  -2.779  -8.255  1.00  0.00     0.167 HD
ENDBRANCH   5   7
ENDBRANCH   4   5
ENDBRANCH   3   4
ENDBRANCH   2   3
ENDBRANCH   1   2
BRANCH   1   9
HETATM    9  C   UNL     1     -21.066  -3.285 -11.205  1.00  0.00     0.001 C 
BRANCH   9  10
HETATM   10  C   UNL     1     -22.020  -3.684 -12.330  1.00  0.00     0.010 C 
BRANCH  10  11
HETATM   11  C   UNL     1     -23.298  -4.326 -11.811  1.00  0.00     0.110 C 
BRANCH  11  12
HETATM   12  C   UNL     1     -24.367  -3.281 -11.580  1.00  0.00     0.139 C 
HETATM   13  O   UNL     1     -25.078  -3.199 -10.593  1.00  0.00    -0.650 OA
BRANCH  12  14
HETATM   14  O   UNL     1     -24.460  -2.412 -12.613  1.00  0.00    -0.776 OA
HETATM   15  H   UNL     1     -25.335  -2.407 -13.042  1.00  0.00     0.167 HD
ENDBRANCH  12  14
ENDBRANCH  11  12
ENDBRANCH  10  11
ENDBRANCH   9  10
ENDBRANCH   1   9
TORSDOF 10
ENDMDL
MODEL 6
REMARK VINA RESULT:      -5.6      2.669      4.108
REMARK  10 active torsions:
REMARK  status: ('A' for Active; 'I' for Inactive)
REMARK    1  A    between atoms: C_1  and  C_2 
REMARK    2  A    between atoms: C_1  and  C_8 
REMARK    3  A    between atoms: C_2  and  C_3 
REMARK    4  A    between atoms: C_3  and  C_4 
REMARK    5  A    between atoms: C_4  and  C_5 
REMARK    6  A    between atoms: C_5  and  O_7 
REMARK    7  A    between atoms: C_8  and  C_9 
REMARK    8  A    between atoms: C_9  and  C_10 
REMARK    9  A    between atoms: C_10  and  C_11 
REMARK   10  A    between atoms: C_11  and  O_13 
ROOT
HETATM    1  C   UNL     1     -20.418  -4.497 -10.459  1.00  0.00     0.000 C 
ENDROOT
BRANCH   1   2
HETATM    2  C   UNL     1     -19.874  -4.403  -9.029  1.00  0.00     0.001 C 
BRANCH   2   3
HETATM    3  C   UNL     1     -20.943  -3.995  -8.019  1.00  0.00     0.010 C 
BRANCH   3   4
HETATM    4  C   UNL     1     -20.639  -4.505  -6.609  1.00  0.00     0.110 C 
BRANCH   4   5
HETATM    5  C   UNL     1     -21.476  -5.704  -6.252  1.00  0.00     0.139 C 
HETATM    6  O   UNL     1     -22.515  -5.679  -5.612  1.00  0.00    -0.650 OA
BRANCH   5   7
HETATM    7  O   UNL     1     -20.954  -6.855  -6.740  1.00  0.00    -0.776 OA
HETATM    8  H   UNL     1     -19.993  -6.946  -6.582  1.00  0.00     0.167 HD
ENDBRANCH   5   7
ENDBRANCH   4   5
ENDBRANCH   3   4
ENDBRANCH   2   3
ENDBRANCH   1   2
BRANCH   1   9
HETATM    9  C   UNL     1     -21.587  -3.549 -10.718  1.00  0.00     0.001 C 
BRANCH   9  10
HETATM   10  C   UNL     1     -22.744  -4.264 -11.414  1.00  0.00     0.010 C 
BRANCH  10  11
HETATM   11  C   UNL     1     -23.704  -4.916 -10.429  1.00  0.00     0.110 C 
BRANCH  11  12
HETATM   12  C   UNL     1     -24.551  -3.872  -9.735  1.00  0.00     0.139 C 
HETATM   13  O   UNL     1     -25.376  -3.154 -10.275  1.00  0.00    -0.650 OA
BRANCH  12  14
HETATM   14  O   UNL     1     -24.298  -3.812  -8.407  1.00  0.00    -0.776 OA
HETATM   15  H   UNL     1     -23.622  -4.448  -8.110  1.00  0.00     0.167 HD
ENDBRANCH  12  14
ENDBRANCH  11  12
ENDBRANCH  10  11
ENDBRANCH   9  10
ENDBRANCH   1   9
TORSDOF 10
ENDMDL
MODEL 7
REMARK VINA RESULT:      -5.6      2.848      5.371
REMARK  10 active torsions:
REMARK  status: ('A' for Active; 'I' for Inactive)
REMARK    1  A    between atoms: C_1  and  C_2 
REMARK    2  A    between atoms: C_1  and  C_8 
REMARK    3  A    between atoms: C_2  and  C_3 
REMARK    4  A    between atoms: C_3  and  C_4 
REMARK    5  A    between atoms: C_4  and  C_5 
REMARK    6  A    between atoms: C_5  and  O_7 
REMARK    7  A    between atoms: C_8  and  C_9 
REMARK    8  A    between atoms: C_9  and  C_10 
REMARK    9  A    between atoms: C_10  and  C_11 
REMARK   10  A    between atoms: C_11  and  O_13 
ROOT
HETATM    1  C   UNL     1     -20.300  -3.691 -10.869  1.00  0.00     0.000 C 
ENDROOT
BRANCH   1   2
HETATM    2  C   UNL     1     -21.576  -3.911 -11.689  1.00  0.00     0.001 C 
BRANCH   2   3
HETATM    3  C   UNL     1     -22.757  -4.354 -10.829  1.00  0.00     0.010 C 
BRANCH   3   4
HETATM    4  C   UNL     1     -23.992  -3.473 -11.035  1.00  0.00     0.110 C 
BRANCH   4   5
HETATM    5  C   UNL     1     -24.843  -3.402  -9.797  1.00  0.00     0.139 C 
HETATM    6  O   UNL     1     -26.035  -3.139  -9.769  1.00  0.00    -0.650 OA
BRANCH   5   7
HETATM    7  O   UNL     1     -24.138  -3.682  -8.674  1.00  0.00    -0.776 OA
HETATM    8  H   UNL     1     -23.772  -4.589  -8.659  1.00  0.00     0.167 HD
ENDBRANCH   5   7
ENDBRANCH   4   5
ENDBRANCH   3   4
ENDBRANCH   2   3
ENDBRANCH   1   2
BRANCH   1   9
HETATM    9  C   UNL     1     -20.189  -4.630  -9.670  1.00  0.00     0.001 C 
BRANCH   9  10
HETATM   10  C   UNL     1     -19.872  -3.864  -8.386  1.00  0.00     0.010 C 
BRANCH  10  11
HETATM   11  C   UNL     1     -19.773  -4.776  -7.172  1.00  0.00     0.110 C 
BRANCH  11  12
HETATM   12  C   UNL     1     -21.090  -5.477  -6.920  1.00  0.00     0.139 C 
HETATM   13  O   UNL     1     -22.175  -4.932  -6.812  1.00  0.00    -0.650 OA
BRANCH  12  14
HETATM   14  O   UNL     1     -20.941  -6.819  -6.823  1.00  0.00    -0.776 OA
HETATM   15  H   UNL     1     -21.782  -7.298  -6.708  1.00  0.00     0.167 HD
ENDBRANCH  12  14
ENDBRANCH  11  12
ENDBRANCH  10  11
ENDBRANCH   9  10
ENDBRANCH   1   9
TORSDOF 10
ENDMDL
MODEL 8
REMARK VINA RESULT:      -5.5      2.783      5.792
REMARK  10 active torsions:
REMARK  status: ('A' for Active; 'I' for Inactive)
REMARK    1  A    between atoms: C_1  and  C_2 
REMARK    2  A    between atoms: C_1  and  C_8 
REMARK    3  A    between atoms: C_2  and  C_3 
REMARK    4  A    between atoms: C_3  and  C_4 
REMARK    5  A    between atoms: C_4  and  C_5 
REMARK    6  A    between atoms: C_5  and  O_7 
REMARK    7  A    between atoms: C_8  and  C_9 
REMARK    8  A    between atoms: C_9  and  C_10 
REMARK    9  A    between atoms: C_10  and  C_11 
REMARK   10  A    between atoms: C_11  and  O_13 
ROOT
HETATM    1  C   UNL     1     -20.750  -4.584  -9.526  1.00  0.00     0.000 C 
ENDROOT
BRANCH   1   2
HETATM    2  C   UNL     1     -20.710  -3.739 -10.805  1.00  0.00     0.001 C 
BRANCH   2   3
HETATM    3  C   UNL     1     -22.094  -3.265 -11.239  1.00  0.00     0.010 C 
BRANCH   3   4
HETATM    4  C   UNL     1     -23.213  -3.862 -10.381  1.00  0.00     0.110 C 
BRANCH   4   5
HETATM    5  C   UNL     1     -24.566  -3.343 -10.782  1.00  0.00     0.139 C 
HETATM    6  O   UNL     1     -24.904  -3.042 -11.917  1.00  0.00    -0.650 OA
BRANCH   5   7
HETATM    7  O   UNL     1     -25.412  -3.251  -9.728  1.00  0.00    -0.776 OA
HETATM    8  H   UNL     1     -26.224  -2.743  -9.922  1.00  0.00     0.167 HD
ENDBRANCH   5   7
ENDBRANCH   4   5
ENDBRANCH   3   4
ENDBRANCH   2   3
ENDBRANCH   1   2
BRANCH   1   9
HETATM    9  C   UNL     1     -20.004  -3.939  -8.360  1.00  0.00     0.001 C 
BRANCH   9  10
HETATM   10  C   UNL     1     -20.916  -3.748  -7.149  1.00  0.00     0.010 C 
BRANCH  10  11
HETATM   11  C   UNL     1     -22.015  -4.798  -7.075  1.00  0.00     0.110 C 
BRANCH  11  12
HETATM   12  C   UNL     1     -21.668  -5.866  -6.060  1.00  0.00     0.139 C 
HETATM   13  O   UNL     1     -21.932  -5.827  -4.870  1.00  0.00    -0.650 OA
BRANCH  12  14
HETATM   14  O   UNL     1     -21.013  -6.908  -6.622  1.00  0.00    -0.776 OA
HETATM   15  H   UNL     1     -21.246  -7.058  -7.556  1.00  0.00     0.167 HD
ENDBRANCH  12  14
ENDBRANCH  11  12
ENDBRANCH  10  11
ENDBRANCH   9  10
ENDBRANCH   1   9
TORSDOF 10
ENDMDL
MODEL 9
REMARK VINA RESULT:      -5.2      3.020      3.472
REMARK  10 active torsions:
REMARK  status: ('A' for Active; 'I' for Inactive)
REMARK    1  A    between atoms: C_1  and  C_2 
REMARK    2  A    between atoms: C_1  and  C_8 
REMARK    3  A    between atoms: C_2  and  C_3 
REMARK    4  A    between atoms: C_3  and  C_4 
REMARK    5  A    between atoms: C_4  and  C_5 
REMARK    6  A    between atoms: C_5  and  O_7 
REMARK    7  A    between atoms: C_8  and  C_9 
REMARK    8  A    between atoms: C_9  and  C_10 
REMARK    9  A    between atoms: C_10  and  C_11 
REMARK   10  A    between atoms: C_11  and  O_13 
ROOT
HETATM    1  C   UNL     1     -20.399  -4.701  -9.417  1.00  0.00     0.000 C 
ENDROOT
BRANCH   1   2
HETATM    2  C   UNL     1     -19.745  -3.931  -8.266  1.00  0.00     0.001 C 
BRANCH   2   3
HETATM    3  C   UNL     1     -19.951  -4.607  -6.914  1.00  0.00     0.010 C 
BRANCH   3   4
HETATM    4  C   UNL     1     -21.396  -5.066  -6.704  1.00  0.00     0.110 C 
BRANCH   4   5
HETATM    5  C   UNL     1     -21.517  -6.031  -5.557  1.00  0.00     0.139 C 
HETATM    6  O   UNL     1     -20.609  -6.703  -5.094  1.00  0.00    -0.650 OA
BRANCH   5   7
HETATM    7  O   UNL     1     -22.776  -6.075  -5.057  1.00  0.00    -0.776 OA
HETATM    8  H   UNL     1     -23.003  -5.303  -4.502  1.00  0.00     0.167 HD
ENDBRANCH   5   7
ENDBRANCH   4   5
ENDBRANCH   3   4
ENDBRANCH   2   3
ENDBRANCH   1   2
BRANCH   1   9
HETATM    9  C   UNL     1     -20.504  -3.883 -10.703  1.00  0.00     0.001 C 
BRANCH   9  10
HETATM   10  C   UNL     1     -21.870  -4.053 -11.365  1.00  0.00     0.010 C 
BRANCH  10  11
HETATM   11  C   UNL     1     -22.495  -2.724 -11.761  1.00  0.00     0.110 C 
BRANCH  11  12
HETATM   12  C   UNL     1     -23.181  -2.833 -13.106  1.00  0.00     0.139 C 
HETATM   13  O   UNL     1     -24.362  -2.617 -13.320  1.00  0.00    -0.650 OA
BRANCH  12  14
HETATM   14  O   UNL     1     -22.324  -3.205 -14.085  1.00  0.00    -0.776 OA
HETATM   15  H   UNL     1     -22.597  -4.013 -14.556  1.00  0.00     0.167 HD
ENDBRANCH  12  14
ENDBRANCH  11  12
ENDBRANCH  10  11
ENDBRANCH   9  10
ENDBRANCH   1   9
TORSDOF 10
ENDMDL
