MODEL 1
REMARK VINA RESULT:      -8.6      0.000      0.000
REMARK WARNING: 32 MAX_TORS EXCEEDED!!!
REMARK  36 active torsions:
REMARK  status: ('A' for Active; 'I' for Inactive)
REMARK    1  A    between atoms: C_2  and  C_5 
REMARK    2  A    between atoms: C_7  and  C_16 
REMARK    3  A    between atoms: C_9  and  C_12 
REMARK    4  A    between atoms: C_10  and  O_11 
REMARK    5  A    between atoms: C_16  and  C_17 
REMARK    6  A    between atoms: C_17  and  C_18 
REMARK    7  A    between atoms: C_18  and  O_20 
REMARK    8  A    between atoms: O_20  and  C_21 
REMARK    9  A    between atoms: C_21  and  C_22 
REMARK   10  A    between atoms: C_22  and  C_23 
REMARK   11  A    between atoms: C_22  and  C_44 
REMARK   12  A    between atoms: C_22  and  C_65 
REMARK   13  A    between atoms: C_23  and  O_24 
REMARK   14  A    between atoms: O_24  and  C_25 
REMARK   15  A    between atoms: C_25  and  C_27 
REMARK   16  A    between atoms: C_27  and  C_28 
REMARK   17  A    between atoms: C_28  and  C_29 
REMARK   18  A    between atoms: C_31  and  C_40 
REMARK   19  A    between atoms: C_32  and  O_39 
REMARK   20  A    between atoms: C_33  and  C_35 
REMARK   21  A    between atoms: C_44  and  O_45 
REMARK   22  A    between atoms: O_45  and  C_46 
REMARK   23  A    between atoms: C_46  and  C_48 
REMARK   24  A    between atoms: C_48  and  C_49 
REMARK   25  A    between atoms: C_49  and  C_50 
REMARK   26  A    between atoms: C_52  and  C_61 
REMARK   27  A    between atoms: C_53  and  O_60 
REMARK   28  A    between atoms: C_54  and  C_56 
REMARK   29  A    between atoms: C_65  and  O_66 
REMARK   30  A    between atoms: O_66  and  C_67 
REMARK   31  A    between atoms: C_67  and  C_69 
REMARK   32  A    between atoms: C_69  and  C_70 
REMARK   33  A    between atoms: C_70  and  C_71 
REMARK   34  A    between atoms: C_73  and  C_82 
REMARK   35  A    between atoms: C_74  and  O_81 
REMARK   36  A    between atoms: C_75  and  C_77 
ROOT
HETATM    1  C   UNL     1     -20.009  -9.793  -2.474  1.00  0.00     0.048 C 
ENDROOT
BRANCH   1   2
HETATM    2  C   UNL     1     -18.796  -9.371  -3.389  1.00  0.00     0.195 C 
BRANCH   2   3
HETATM    3  O   UNL     1     -17.534  -9.072  -2.758  1.00  0.00    -0.320 OA
BRANCH   3   4
HETATM    4  C   UNL     1     -16.421  -9.776  -3.135  1.00  0.00     0.259 C 
HETATM    5  O   UNL     1     -15.561 -10.201  -2.371  1.00  0.00    -0.265 OA
BRANCH   4   6
HETATM    6  C   UNL     1     -16.288  -9.936  -4.636  1.00  0.00     0.116 C 
BRANCH   6   7
HETATM    7  C   UNL     1     -15.203 -10.906  -5.024  1.00  0.00     0.048 C 
BRANCH   7   8
HETATM    8  C   UNL     1     -15.755 -12.213  -5.550  1.00  0.00    -0.056 C 
HETATM    9  C   UNL     1     -17.076 -12.322  -6.808  1.00  0.00     0.018 C 
HETATM   10  C   UNL     1     -17.360 -13.971  -7.654  1.00  0.00    -0.016 C 
HETATM   11  C   UNL     1     -16.280 -15.356  -7.201  1.00  0.00     0.079 C 
HETATM   12  C   UNL     1     -14.915 -15.137  -6.029  1.00  0.00    -0.016 C 
HETATM   13  C   UNL     1     -14.738 -13.603  -5.154  1.00  0.00     0.018 C 
BRANCH  10  14
HETATM   14  C   UNL     1     -18.658 -14.243  -8.349  1.00  0.00    -0.021 C 
HETATM   15  C   UNL     1     -19.687 -14.738  -7.317  1.00  0.00     0.019 C 
HETATM   16  C   UNL     1     -18.441 -15.199  -9.552  1.00  0.00     0.019 C 
HETATM   17  C   UNL     1     -19.098 -12.890  -8.886  1.00  0.00     0.019 C 
ENDBRANCH  10  14
BRANCH  11  18
HETATM   18  O   UNL     1     -16.648 -16.627  -7.528  1.00  0.00    -0.360 OA
HETATM   19  H   UNL     1     -16.572 -17.120  -6.687  1.00  0.00     0.217 HD
ENDBRANCH  11  18
BRANCH  12  20
HETATM   20  C   UNL     1     -13.942 -16.251  -5.644  1.00  0.00    -0.021 C 
HETATM   21  C   UNL     1     -14.754 -17.180  -4.725  1.00  0.00     0.019 C 
HETATM   22  C   UNL     1     -13.376 -16.797  -6.961  1.00  0.00     0.019 C 
HETATM   23  C   UNL     1     -12.700 -15.859  -4.803  1.00  0.00     0.019 C 
ENDBRANCH  12  20
ENDBRANCH   7   8
ENDBRANCH   6   7
ENDBRANCH   4   6
ENDBRANCH   3   4
ENDBRANCH   2   3
ENDBRANCH   1   2
BRANCH   1  24
HETATM   24  C   UNL     1     -19.872 -11.149  -1.825  1.00  0.00     0.195 C 
BRANCH  24  25
HETATM   25  O   UNL     1     -18.804 -11.233  -0.979  1.00  0.00    -0.320 OA
BRANCH  25  26
HETATM   26  C   UNL     1     -18.116 -12.409  -1.074  1.00  0.00     0.259 C 
HETATM   27  O   UNL     1     -17.519 -12.891  -2.022  1.00  0.00    -0.265 OA
BRANCH  26  28
HETATM   28  C   UNL     1     -18.035 -12.869   0.315  1.00  0.00     0.116 C 
BRANCH  28  29
HETATM   29  C   UNL     1     -16.763 -12.219   0.848  1.00  0.00     0.048 C 
BRANCH  29  30
HETATM   30  C   UNL     1     -15.796 -13.270   1.154  1.00  0.00    -0.056 A 
HETATM   31  C   UNL     1     -15.799 -13.876   2.401  1.00  0.00     0.018 A 
HETATM   32  C   UNL     1     -14.895 -14.884   2.705  1.00  0.00    -0.016 A 
HETATM   33  C   UNL     1     -13.959 -15.199   1.677  1.00  0.00     0.079 A 
HETATM   34  C   UNL     1     -13.901 -14.521   0.426  1.00  0.00    -0.016 A 
HETATM   35  C   UNL     1     -14.874 -13.575   0.185  1.00  0.00     0.018 A 
BRANCH  32  36
HETATM   36  C   UNL     1     -15.015 -15.580   4.080  1.00  0.00    -0.021 C 
HETATM   37  C   UNL     1     -13.787 -16.475   4.442  1.00  0.00     0.019 C 
HETATM   38  C   UNL     1     -15.111 -14.523   5.198  1.00  0.00     0.019 C 
HETATM   39  C   UNL     1     -16.225 -16.536   4.126  1.00  0.00     0.019 C 
ENDBRANCH  32  36
BRANCH  33  40
HETATM   40  O   UNL     1     -13.081 -16.231   1.823  1.00  0.00    -0.360 OA
HETATM   41  H   UNL     1     -12.754 -16.259   2.726  1.00  0.00     0.217 HD
ENDBRANCH  33  40
BRANCH  34  42
HETATM   42  C   UNL     1     -12.911 -14.788  -0.718  1.00  0.00    -0.021 C 
HETATM   43  C   UNL     1     -13.127 -16.239  -1.183  1.00  0.00     0.019 C 
HETATM   44  C   UNL     1     -13.149 -13.836  -1.930  1.00  0.00     0.019 C 
HETATM   45  C   UNL     1     -11.440 -14.577  -0.331  1.00  0.00     0.019 C 
ENDBRANCH  34  42
ENDBRANCH  29  30
ENDBRANCH  28  29
ENDBRANCH  26  28
ENDBRANCH  25  26
ENDBRANCH  24  25
ENDBRANCH   1  24
BRANCH   1  46
HETATM   46  C   UNL     1     -20.427  -8.725  -1.449  1.00  0.00     0.195 C 
BRANCH  46  47
HETATM   47  O   UNL     1     -21.221  -9.330  -0.414  1.00  0.00    -0.320 OA
BRANCH  47  48
HETATM   48  C   UNL     1     -22.384  -8.685  -0.128  1.00  0.00     0.259 C 
HETATM   49  O   UNL     1     -22.681  -7.587  -0.581  1.00  0.00    -0.265 OA
BRANCH  48  50
HETATM   50  C   UNL     1     -23.373  -9.608   0.545  1.00  0.00     0.116 C 
BRANCH  50  51
HETATM   51  C   UNL     1     -24.110 -10.500  -0.440  1.00  0.00     0.048 C 
BRANCH  51  52
HETATM   52  C   UNL     1     -23.531 -11.891  -0.517  1.00  0.00    -0.056 A 
HETATM   53  C   UNL     1     -23.453 -12.724   0.606  1.00  0.00     0.018 A 
HETATM   54  C   UNL     1     -22.946 -14.043   0.543  1.00  0.00    -0.016 A 
HETATM   55  C   UNL     1     -22.531 -14.487  -0.743  1.00  0.00     0.079 A 
HETATM   56  C   UNL     1     -22.668 -13.696  -1.917  1.00  0.00    -0.016 A 
HETATM   57  C   UNL     1     -23.130 -12.383  -1.755  1.00  0.00     0.018 A 
BRANCH  54  58
HETATM   58  C   UNL     1     -22.959 -14.930   1.822  1.00  0.00    -0.021 C 
HETATM   59  C   UNL     1     -23.834 -14.339   2.966  1.00  0.00     0.019 C 
HETATM   60  C   UNL     1     -23.569 -16.314   1.493  1.00  0.00     0.019 C 
HETATM   61  C   UNL     1     -21.559 -15.115   2.455  1.00  0.00     0.019 C 
ENDBRANCH  54  58
BRANCH  55  62
HETATM   62  O   UNL     1     -21.967 -15.720  -0.938  1.00  0.00    -0.360 OA
HETATM   63  H   UNL     1     -21.021 -15.696  -0.771  1.00  0.00     0.217 HD
ENDBRANCH  55  62
BRANCH  56  64
HETATM   64  C   UNL     1     -22.385 -14.238  -3.340  1.00  0.00    -0.021 C 
HETATM   65  C   UNL     1     -23.408 -15.330  -3.734  1.00  0.00     0.019 C 
HETATM   66  C   UNL     1     -22.509 -13.155  -4.449  1.00  0.00     0.019 C 
HETATM   67  C   UNL     1     -20.948 -14.790  -3.432  1.00  0.00     0.019 C 
ENDBRANCH  56  64
ENDBRANCH  51  52
ENDBRANCH  50  51
ENDBRANCH  48  50
ENDBRANCH  47  48
ENDBRANCH  46  47
ENDBRANCH   1  46
BRANCH   1  68
HETATM   68  C   UNL     1     -21.186  -9.991  -3.350  1.00  0.00     0.195 C 
BRANCH  68  69
HETATM   69  O   UNL     1     -21.486  -8.719  -4.008  1.00  0.00    -0.320 OA
BRANCH  69  70
HETATM   70  C   UNL     1     -21.674  -7.726  -5.073  1.00  0.00     0.259 C 
HETATM   71  O   UNL     1     -20.991  -8.080  -6.045  1.00  0.00    -0.265 OA
BRANCH  70  72
HETATM   72  C   UNL     1     -23.293  -6.292  -4.862  1.00  0.00     0.116 C 
BRANCH  72  73
HETATM   73  C   UNL     1     -24.000  -5.224  -6.031  1.00  0.00     0.048 C 
BRANCH  73  74
HETATM   74  C   UNL     1     -23.100  -4.819  -7.089  1.00  0.00    -0.056 A 
HETATM   75  C   UNL     1     -23.589  -4.435  -8.297  1.00  0.00     0.018 A 
HETATM   76  C   UNL     1     -22.761  -4.195  -9.354  1.00  0.00    -0.016 A 
HETATM   77  C   UNL     1     -21.369  -4.266  -9.074  1.00  0.00     0.079 A 
HETATM   78  C   UNL     1     -20.846  -4.664  -7.810  1.00  0.00    -0.016 A 
HETATM   79  C   UNL     1     -21.763  -4.930  -6.825  1.00  0.00     0.018 A 
BRANCH  76  80
HETATM   80  C   UNL     1     -23.497  -3.783 -10.632  1.00  0.00    -0.021 C 
HETATM   81  C   UNL     1     -22.815  -2.630 -11.452  1.00  0.00     0.019 C 
HETATM   82  C   UNL     1     -23.463  -5.006 -11.550  1.00  0.00     0.019 C 
HETATM   83  C   UNL     1     -24.891  -3.233 -10.317  1.00  0.00     0.019 C 
ENDBRANCH  76  80
BRANCH  77  84
HETATM   84  O   UNL     1     -20.469  -3.865 -10.016  1.00  0.00    -0.360 OA
HETATM   85  H   UNL     1     -20.139  -2.992  -9.775  1.00  0.00     0.217 HD
ENDBRANCH  77  84
BRANCH  78  86
HETATM   86  C   UNL     1     -19.396  -4.713  -7.327  1.00  0.00    -0.021 C 
HETATM   87  C   UNL     1     -18.847  -6.080  -7.787  1.00  0.00     0.019 C 
HETATM   88  C   UNL     1     -18.501  -3.589  -7.954  1.00  0.00     0.019 C 
HETATM   89  C   UNL     1     -19.276  -4.543  -5.816  1.00  0.00     0.019 C 
ENDBRANCH  78  86
ENDBRANCH  73  74
ENDBRANCH  72  73
ENDBRANCH  70  72
ENDBRANCH  69  70
ENDBRANCH  68  69
ENDBRANCH   1  68
TORSDOF 36
ENDMDL
MODEL 2
REMARK VINA RESULT:      -8.5      0.278      2.035
REMARK WARNING: 32 MAX_TORS EXCEEDED!!!
REMARK  36 active torsions:
REMARK  status: ('A' for Active; 'I' for Inactive)
REMARK    1  A    between atoms: C_2  and  C_5 
REMARK    2  A    between atoms: C_7  and  C_16 
REMARK    3  A    between atoms: C_9  and  C_12 
REMARK    4  A    between atoms: C_10  and  O_11 
REMARK    5  A    between atoms: C_16  and  C_17 
REMARK    6  A    between atoms: C_17  and  C_18 
REMARK    7  A    between atoms: C_18  and  O_20 
REMARK    8  A    between atoms: O_20  and  C_21 
REMARK    9  A    between atoms: C_21  and  C_22 
REMARK   10  A    between atoms: C_22  and  C_23 
REMARK   11  A    between atoms: C_22  and  C_44 
REMARK   12  A    between atoms: C_22  and  C_65 
REMARK   13  A    between atoms: C_23  and  O_24 
REMARK   14  A    between atoms: O_24  and  C_25 
REMARK   15  A    between atoms: C_25  and  C_27 
REMARK   16  A    between atoms: C_27  and  C_28 
REMARK   17  A    between atoms: C_28  and  C_29 
REMARK   18  A    between atoms: C_31  and  C_40 
REMARK   19  A    between atoms: C_32  and  O_39 
REMARK   20  A    between atoms: C_33  and  C_35 
REMARK   21  A    between atoms: C_44  and  O_45 
REMARK   22  A    between atoms: O_45  and  C_46 
REMARK   23  A    between atoms: C_46  and  C_48 
REMARK   24  A    between atoms: C_48  and  C_49 
REMARK   25  A    between atoms: C_49  and  C_50 
REMARK   26  A    between atoms: C_52  and  C_61 
REMARK   27  A    between atoms: C_53  and  O_60 
REMARK   28  A    between atoms: C_54  and  C_56 
REMARK   29  A    between atoms: C_65  and  O_66 
REMARK   30  A    between atoms: O_66  and  C_67 
REMARK   31  A    between atoms: C_67  and  C_69 
REMARK   32  A    between atoms: C_69  and  C_70 
REMARK   33  A    between atoms: C_70  and  C_71 
REMARK   34  A    between atoms: C_73  and  C_82 
REMARK   35  A    between atoms: C_74  and  O_81 
REMARK   36  A    between atoms: C_75  and  C_77 
ROOT
HETATM    1  C   UNL     1     -20.024  -9.855  -2.437  1.00  0.00     0.048 C 
ENDROOT
BRANCH   1   2
HETATM    2  C   UNL     1     -18.810  -9.372  -3.318  1.00  0.00     0.195 C 
BRANCH   2   3
HETATM    3  O   UNL     1     -17.558  -9.086  -2.661  1.00  0.00    -0.320 OA
BRANCH   3   4
HETATM    4  C   UNL     1     -16.439  -9.783  -3.035  1.00  0.00     0.259 C 
HETATM    5  O   UNL     1     -15.576 -10.197  -2.268  1.00  0.00    -0.265 OA
BRANCH   4   6
HETATM    6  C   UNL     1     -16.304  -9.951  -4.535  1.00  0.00     0.116 C 
BRANCH   6   7
HETATM    7  C   UNL     1     -15.220 -10.923  -4.917  1.00  0.00     0.048 C 
BRANCH   7   8
HETATM    8  C   UNL     1     -15.772 -12.222  -5.461  1.00  0.00    -0.056 C 
HETATM    9  C   UNL     1     -17.093 -12.314  -6.719  1.00  0.00     0.018 C 
HETATM   10  C   UNL     1     -17.377 -13.951  -7.589  1.00  0.00    -0.016 C 
HETATM   11  C   UNL     1     -16.296 -15.341  -7.156  1.00  0.00     0.079 C 
HETATM   12  C   UNL     1     -14.930 -15.138  -5.983  1.00  0.00    -0.016 C 
HETATM   13  C   UNL     1     -14.754 -13.618  -5.086  1.00  0.00     0.018 C 
BRANCH  10  14
HETATM   14  C   UNL     1     -18.676 -14.213  -8.287  1.00  0.00    -0.021 C 
HETATM   15  C   UNL     1     -19.653 -14.876  -7.299  1.00  0.00     0.019 C 
HETATM   16  C   UNL     1     -18.439 -15.014  -9.594  1.00  0.00     0.019 C 
HETATM   17  C   UNL     1     -19.199 -12.834  -8.659  1.00  0.00     0.019 C 
ENDBRANCH  10  14
BRANCH  11  18
HETATM   18  O   UNL     1     -16.664 -16.608  -7.501  1.00  0.00    -0.360 OA
HETATM   19  H   UNL     1     -16.587 -17.113  -6.668  1.00  0.00     0.217 HD
ENDBRANCH  11  18
BRANCH  12  20
HETATM   20  C   UNL     1     -13.957 -16.258  -5.615  1.00  0.00    -0.021 C 
HETATM   21  C   UNL     1     -14.757 -17.182  -4.680  1.00  0.00     0.019 C 
HETATM   22  C   UNL     1     -13.418 -16.808  -6.941  1.00  0.00     0.019 C 
HETATM   23  C   UNL     1     -12.698 -15.872  -4.796  1.00  0.00     0.019 C 
ENDBRANCH  12  20
ENDBRANCH   7   8
ENDBRANCH   6   7
ENDBRANCH   4   6
ENDBRANCH   3   4
ENDBRANCH   2   3
ENDBRANCH   1   2
BRANCH   1  24
HETATM   24  C   UNL     1     -19.870 -11.236  -1.847  1.00  0.00     0.195 C 
BRANCH  24  25
HETATM   25  O   UNL     1     -18.854 -11.320  -0.939  1.00  0.00    -0.320 OA
BRANCH  25  26
HETATM   26  C   UNL     1     -18.126 -12.472  -1.031  1.00  0.00     0.259 C 
HETATM   27  O   UNL     1     -17.498 -12.928  -1.972  1.00  0.00    -0.265 OA
BRANCH  26  28
HETATM   28  C   UNL     1     -18.053 -12.940   0.357  1.00  0.00     0.116 C 
BRANCH  28  29
HETATM   29  C   UNL     1     -16.802 -12.267   0.910  1.00  0.00     0.048 C 
BRANCH  29  30
HETATM   30  C   UNL     1     -15.815 -13.299   1.215  1.00  0.00    -0.056 A 
HETATM   31  C   UNL     1     -15.784 -13.881   2.472  1.00  0.00     0.018 A 
HETATM   32  C   UNL     1     -14.859 -14.872   2.776  1.00  0.00    -0.016 A 
HETATM   33  C   UNL     1     -13.940 -15.193   1.734  1.00  0.00     0.079 A 
HETATM   34  C   UNL     1     -13.918 -14.537   0.470  1.00  0.00    -0.016 A 
HETATM   35  C   UNL     1     -14.909 -13.609   0.232  1.00  0.00     0.018 A 
BRANCH  32  36
HETATM   36  C   UNL     1     -14.941 -15.544   4.165  1.00  0.00    -0.021 C 
HETATM   37  C   UNL     1     -13.615 -16.243   4.606  1.00  0.00     0.019 C 
HETATM   38  C   UNL     1     -15.237 -14.484   5.245  1.00  0.00     0.019 C 
HETATM   39  C   UNL     1     -16.003 -16.662   4.190  1.00  0.00     0.019 C 
ENDBRANCH  32  36
BRANCH  33  40
HETATM   40  O   UNL     1     -13.045 -16.210   1.880  1.00  0.00    -0.360 OA
HETATM   41  H   UNL     1     -12.479 -16.043   2.638  1.00  0.00     0.217 HD
ENDBRANCH  33  40
BRANCH  34  42
HETATM   42  C   UNL     1     -12.948 -14.812  -0.689  1.00  0.00    -0.021 C 
HETATM   43  C   UNL     1     -13.198 -16.254  -1.165  1.00  0.00     0.019 C 
HETATM   44  C   UNL     1     -13.184 -13.844  -1.890  1.00  0.00     0.019 C 
HETATM   45  C   UNL     1     -11.468 -14.633  -0.320  1.00  0.00     0.019 C 
ENDBRANCH  34  42
ENDBRANCH  29  30
ENDBRANCH  28  29
ENDBRANCH  26  28
ENDBRANCH  25  26
ENDBRANCH  24  25
ENDBRANCH   1  24
BRANCH   1  46
HETATM   46  C   UNL     1     -20.472  -8.841  -1.371  1.00  0.00     0.195 C 
BRANCH  46  47
HETATM   47  O   UNL     1     -21.246  -9.510  -0.360  1.00  0.00    -0.320 OA
BRANCH  47  48
HETATM   48  C   UNL     1     -22.455  -8.947  -0.093  1.00  0.00     0.259 C 
HETATM   49  O   UNL     1     -22.756  -7.802  -0.406  1.00  0.00    -0.265 OA
BRANCH  48  50
HETATM   50  C   UNL     1     -23.460  -9.986   0.345  1.00  0.00     0.116 C 
BRANCH  50  51
HETATM   51  C   UNL     1     -24.063 -10.749  -0.822  1.00  0.00     0.048 C 
BRANCH  51  52
HETATM   52  C   UNL     1     -23.510 -12.146  -0.958  1.00  0.00    -0.056 A 
HETATM   53  C   UNL     1     -23.061 -12.649  -2.186  1.00  0.00     0.018 A 
HETATM   54  C   UNL     1     -22.507 -13.944  -2.323  1.00  0.00    -0.016 A 
HETATM   55  C   UNL     1     -22.415 -14.709  -1.128  1.00  0.00     0.079 A 
HETATM   56  C   UNL     1     -22.789 -14.201   0.147  1.00  0.00    -0.016 A 
HETATM   57  C   UNL     1     -23.378 -12.930   0.184  1.00  0.00     0.018 A 
BRANCH  54  58
HETATM   58  C   UNL     1     -21.966 -14.401  -3.708  1.00  0.00    -0.021 C 
HETATM   59  C   UNL     1     -22.103 -13.309  -4.809  1.00  0.00     0.019 C 
HETATM   60  C   UNL     1     -20.453 -14.711  -3.603  1.00  0.00     0.019 C 
HETATM   61  C   UNL     1     -22.710 -15.632  -4.282  1.00  0.00     0.019 C 
ENDBRANCH  54  58
BRANCH  55  62
HETATM   62  O   UNL     1     -21.954 -15.998  -1.125  1.00  0.00    -0.360 OA
HETATM   63  H   UNL     1     -22.661 -16.617  -1.327  1.00  0.00     0.217 HD
ENDBRANCH  55  62
BRANCH  56  64
HETATM   64  C   UNL     1     -22.527 -14.961   1.472  1.00  0.00    -0.021 C 
HETATM   65  C   UNL     1     -21.010 -15.172   1.701  1.00  0.00     0.019 C 
HETATM   66  C   UNL     1     -23.019 -14.195   2.732  1.00  0.00     0.019 C 
HETATM   67  C   UNL     1     -23.264 -16.316   1.472  1.00  0.00     0.019 C 
ENDBRANCH  56  64
ENDBRANCH  51  52
ENDBRANCH  50  51
ENDBRANCH  48  50
ENDBRANCH  47  48
ENDBRANCH  46  47
ENDBRANCH   1  46
BRANCH   1  68
HETATM   68  C   UNL     1     -21.189 -10.034  -3.334  1.00  0.00     0.195 C 
BRANCH  68  69
HETATM   69  O   UNL     1     -21.463  -8.756  -3.989  1.00  0.00    -0.320 OA
BRANCH  69  70
HETATM   70  C   UNL     1     -21.640  -7.758  -5.053  1.00  0.00     0.259 C 
HETATM   71  O   UNL     1     -20.962  -8.120  -6.027  1.00  0.00    -0.265 OA
BRANCH  70  72
HETATM   72  C   UNL     1     -23.239  -6.304  -4.837  1.00  0.00     0.116 C 
BRANCH  72  73
HETATM   73  C   UNL     1     -23.960  -5.252  -6.013  1.00  0.00     0.048 C 
BRANCH  73  74
HETATM   74  C   UNL     1     -23.065  -4.843  -7.074  1.00  0.00    -0.056 A 
HETATM   75  C   UNL     1     -23.559  -4.477  -8.285  1.00  0.00     0.018 A 
HETATM   76  C   UNL     1     -22.734  -4.235  -9.344  1.00  0.00    -0.016 A 
HETATM   77  C   UNL     1     -21.341  -4.282  -9.062  1.00  0.00     0.079 A 
HETATM   78  C   UNL     1     -20.814  -4.660  -7.794  1.00  0.00    -0.016 A 
HETATM   79  C   UNL     1     -21.727  -4.931  -6.808  1.00  0.00     0.018 A 
BRANCH  76  80
HETATM   80  C   UNL     1     -23.475  -3.846 -10.627  1.00  0.00    -0.021 C 
HETATM   81  C   UNL     1     -22.788  -2.719 -11.478  1.00  0.00     0.019 C 
HETATM   82  C   UNL     1     -23.458  -5.090 -11.516  1.00  0.00     0.019 C 
HETATM   83  C   UNL     1     -24.862  -3.275 -10.315  1.00  0.00     0.019 C 
ENDBRANCH  76  80
BRANCH  77  84
HETATM   84  O   UNL     1     -20.446  -3.876 -10.007  1.00  0.00    -0.360 OA
HETATM   85  H   UNL     1     -20.130  -2.995  -9.774  1.00  0.00     0.217 HD
ENDBRANCH  77  84
BRANCH  78  86
HETATM   86  C   UNL     1     -19.363  -4.682  -7.310  1.00  0.00    -0.021 C 
HETATM   87  C   UNL     1     -18.804  -6.060  -7.724  1.00  0.00     0.019 C 
HETATM   88  C   UNL     1     -18.476  -3.574  -7.974  1.00  0.00     0.019 C 
HETATM   89  C   UNL     1     -19.245  -4.462  -5.805  1.00  0.00     0.019 C 
ENDBRANCH  78  86
ENDBRANCH  73  74
ENDBRANCH  72  73
ENDBRANCH  70  72
ENDBRANCH  69  70
ENDBRANCH  68  69
ENDBRANCH   1  68
TORSDOF 36
ENDMDL
MODEL 3
REMARK VINA RESULT:      -8.5      0.284      2.919
REMARK WARNING: 32 MAX_TORS EXCEEDED!!!
REMARK  36 active torsions:
REMARK  status: ('A' for Active; 'I' for Inactive)
REMARK    1  A    between atoms: C_2  and  C_5 
REMARK    2  A    between atoms: C_7  and  C_16 
REMARK    3  A    between atoms: C_9  and  C_12 
REMARK    4  A    between atoms: C_10  and  O_11 
REMARK    5  A    between atoms: C_16  and  C_17 
REMARK    6  A    between atoms: C_17  and  C_18 
REMARK    7  A    between atoms: C_18  and  O_20 
REMARK    8  A    between atoms: O_20  and  C_21 
REMARK    9  A    between atoms: C_21  and  C_22 
REMARK   10  A    between atoms: C_22  and  C_23 
REMARK   11  A    between atoms: C_22  and  C_44 
REMARK   12  A    between atoms: C_22  and  C_65 
REMARK   13  A    between atoms: C_23  and  O_24 
REMARK   14  A    between atoms: O_24  and  C_25 
REMARK   15  A    between atoms: C_25  and  C_27 
REMARK   16  A    between atoms: C_27  and  C_28 
REMARK   17  A    between atoms: C_28  and  C_29 
REMARK   18  A    between atoms: C_31  and  C_40 
REMARK   19  A    between atoms: C_32  and  O_39 
REMARK   20  A    between atoms: C_33  and  C_35 
REMARK   21  A    between atoms: C_44  and  O_45 
REMARK   22  A    between atoms: O_45  and  C_46 
REMARK   23  A    between atoms: C_46  and  C_48 
REMARK   24  A    between atoms: C_48  and  C_49 
REMARK   25  A    between atoms: C_49  and  C_50 
REMARK   26  A    between atoms: C_52  and  C_61 
REMARK   27  A    between atoms: C_53  and  O_60 
REMARK   28  A    between atoms: C_54  and  C_56 
REMARK   29  A    between atoms: C_65  and  O_66 
REMARK   30  A    between atoms: O_66  and  C_67 
REMARK   31  A    between atoms: C_67  and  C_69 
REMARK   32  A    between atoms: C_69  and  C_70 
REMARK   33  A    between atoms: C_70  and  C_71 
REMARK   34  A    between atoms: C_73  and  C_82 
REMARK   35  A    between atoms: C_74  and  O_81 
REMARK   36  A    between atoms: C_75  and  C_77 
ROOT
HETATM    1  C   UNL     1     -19.972  -9.883  -2.461  1.00  0.00     0.048 C 
ENDROOT
BRANCH   1   2
HETATM    2  C   UNL     1     -18.772  -9.363  -3.341  1.00  0.00     0.195 C 
BRANCH   2   3
HETATM    3  O   UNL     1     -17.497  -9.146  -2.702  1.00  0.00    -0.320 OA
BRANCH   3   4
HETATM    4  C   UNL     1     -16.412  -9.869  -3.124  1.00  0.00     0.259 C 
HETATM    5  O   UNL     1     -15.560 -10.356  -2.389  1.00  0.00    -0.265 OA
BRANCH   4   6
HETATM    6  C   UNL     1     -16.299  -9.966  -4.632  1.00  0.00     0.116 C 
BRANCH   6   7
HETATM    7  C   UNL     1     -15.216 -10.914  -5.075  1.00  0.00     0.048 C 
BRANCH   7   8
HETATM    8  C   UNL     1     -15.769 -12.225  -5.589  1.00  0.00    -0.056 C 
HETATM    9  C   UNL     1     -17.078 -12.346  -6.858  1.00  0.00     0.018 C 
HETATM   10  C   UNL     1     -17.360 -14.004  -7.686  1.00  0.00    -0.016 C 
HETATM   11  C   UNL     1     -16.289 -15.387  -7.204  1.00  0.00     0.079 C 
HETATM   12  C   UNL     1     -14.935 -15.158  -6.023  1.00  0.00    -0.016 C 
HETATM   13  C   UNL     1     -14.761 -13.614  -5.166  1.00  0.00     0.018 C 
BRANCH  10  14
HETATM   14  C   UNL     1     -18.653 -14.281  -8.389  1.00  0.00    -0.021 C 
HETATM   15  C   UNL     1     -19.642 -14.912  -7.394  1.00  0.00     0.019 C 
HETATM   16  C   UNL     1     -18.406 -15.119  -9.672  1.00  0.00     0.019 C 
HETATM   17  C   UNL     1     -19.165 -12.910  -8.804  1.00  0.00     0.019 C 
ENDBRANCH  10  14
BRANCH  11  18
HETATM   18  O   UNL     1     -16.659 -16.661  -7.518  1.00  0.00    -0.360 OA
HETATM   19  H   UNL     1     -17.131 -16.569  -8.369  1.00  0.00     0.217 HD
ENDBRANCH  11  18
BRANCH  12  20
HETATM   20  C   UNL     1     -13.970 -16.271  -5.614  1.00  0.00    -0.021 C 
HETATM   21  C   UNL     1     -14.793 -17.183  -4.687  1.00  0.00     0.019 C 
HETATM   22  C   UNL     1     -13.397 -16.839  -6.918  1.00  0.00     0.019 C 
HETATM   23  C   UNL     1     -12.732 -15.872  -4.769  1.00  0.00     0.019 C 
ENDBRANCH  12  20
ENDBRANCH   7   8
ENDBRANCH   6   7
ENDBRANCH   4   6
ENDBRANCH   3   4
ENDBRANCH   2   3
ENDBRANCH   1   2
BRANCH   1  24
HETATM   24  C   UNL     1     -19.779 -11.261  -1.876  1.00  0.00     0.195 C 
BRANCH  24  25
HETATM   25  O   UNL     1     -18.725 -11.335  -1.014  1.00  0.00    -0.320 OA
BRANCH  25  26
HETATM   26  C   UNL     1     -18.064 -12.530  -1.050  1.00  0.00     0.259 C 
HETATM   27  O   UNL     1     -17.455 -13.059  -1.965  1.00  0.00    -0.265 OA
BRANCH  26  28
HETATM   28  C   UNL     1     -18.032 -12.944   0.355  1.00  0.00     0.116 C 
BRANCH  28  29
HETATM   29  C   UNL     1     -16.794 -12.254   0.917  1.00  0.00     0.048 C 
BRANCH  29  30
HETATM   30  C   UNL     1     -15.777 -13.268   1.182  1.00  0.00    -0.056 A 
HETATM   31  C   UNL     1     -14.861 -13.609   0.199  1.00  0.00     0.018 A 
HETATM   32  C   UNL     1     -13.880 -14.563   0.438  1.00  0.00    -0.016 A 
HETATM   33  C   UNL     1     -13.925 -15.180   1.722  1.00  0.00     0.079 A 
HETATM   34  C   UNL     1     -14.916 -14.891   2.704  1.00  0.00    -0.016 A 
HETATM   35  C   UNL     1     -15.814 -13.888   2.406  1.00  0.00     0.018 A 
BRANCH  32  36
HETATM   36  C   UNL     1     -12.835 -14.826  -0.669  1.00  0.00    -0.021 C 
HETATM   37  C   UNL     1     -13.010 -13.918  -1.929  1.00  0.00     0.019 C 
HETATM   38  C   UNL     1     -11.418 -14.534  -0.134  1.00  0.00     0.019 C 
HETATM   39  C   UNL     1     -12.930 -16.268  -1.207  1.00  0.00     0.019 C 
ENDBRANCH  32  36
BRANCH  33  40
HETATM   40  O   UNL     1     -12.963 -16.064   2.108  1.00  0.00    -0.360 OA
HETATM   41  H   UNL     1     -12.141 -15.599   2.283  1.00  0.00     0.217 HD
ENDBRANCH  33  40
BRANCH  34  42
HETATM   42  C   UNL     1     -15.043 -15.527   4.096  1.00  0.00    -0.021 C 
HETATM   43  C   UNL     1     -16.289 -16.429   4.077  1.00  0.00     0.019 C 
HETATM   44  C   UNL     1     -13.802 -16.401   4.454  1.00  0.00     0.019 C 
HETATM   45  C   UNL     1     -15.153 -14.508   5.240  1.00  0.00     0.019 C 
ENDBRANCH  34  42
ENDBRANCH  29  30
ENDBRANCH  28  29
ENDBRANCH  26  28
ENDBRANCH  25  26
ENDBRANCH  24  25
ENDBRANCH   1  24
BRANCH   1  46
HETATM   46  C   UNL     1     -20.446  -8.885  -1.390  1.00  0.00     0.195 C 
BRANCH  46  47
HETATM   47  O   UNL     1     -21.251  -9.567  -0.414  1.00  0.00    -0.320 OA
BRANCH  47  48
HETATM   48  C   UNL     1     -22.469  -9.009  -0.179  1.00  0.00     0.259 C 
HETATM   49  O   UNL     1     -22.788  -7.889  -0.559  1.00  0.00    -0.265 OA
BRANCH  48  50
HETATM   50  C   UNL     1     -23.458 -10.037   0.319  1.00  0.00     0.116 C 
BRANCH  50  51
HETATM   51  C   UNL     1     -24.080 -10.847  -0.806  1.00  0.00     0.048 C 
BRANCH  51  52
HETATM   52  C   UNL     1     -23.523 -12.246  -0.898  1.00  0.00    -0.056 A 
HETATM   53  C   UNL     1     -22.992 -12.754  -2.091  1.00  0.00     0.018 A 
HETATM   54  C   UNL     1     -22.434 -14.050  -2.186  1.00  0.00    -0.016 A 
HETATM   55  C   UNL     1     -22.427 -14.812  -0.985  1.00  0.00     0.079 A 
HETATM   56  C   UNL     1     -22.886 -14.299   0.260  1.00  0.00    -0.016 A 
HETATM   57  C   UNL     1     -23.472 -13.026   0.252  1.00  0.00     0.018 A 
BRANCH  54  58
HETATM   58  C   UNL     1     -21.799 -14.514  -3.529  1.00  0.00    -0.021 C 
HETATM   59  C   UNL     1     -21.958 -13.470  -4.672  1.00  0.00     0.019 C 
HETATM   60  C   UNL     1     -20.276 -14.715  -3.346  1.00  0.00     0.019 C 
HETATM   61  C   UNL     1     -22.432 -15.811  -4.092  1.00  0.00     0.019 C 
ENDBRANCH  54  58
BRANCH  55  62
HETATM   62  O   UNL     1     -21.971 -16.102  -0.946  1.00  0.00    -0.360 OA
HETATM   63  H   UNL     1     -21.035 -16.130  -0.731  1.00  0.00     0.217 HD
ENDBRANCH  55  62
BRANCH  56  64
HETATM   64  C   UNL     1     -22.718 -15.055   1.602  1.00  0.00    -0.021 C 
HETATM   65  C   UNL     1     -23.426 -14.306   2.756  1.00  0.00     0.019 C 
HETATM   66  C   UNL     1     -23.356 -16.474   1.596  1.00  0.00     0.019 C 
HETATM   67  C   UNL     1     -21.223 -15.253   1.926  1.00  0.00     0.019 C 
ENDBRANCH  56  64
ENDBRANCH  51  52
ENDBRANCH  50  51
ENDBRANCH  48  50
ENDBRANCH  47  48
ENDBRANCH  46  47
ENDBRANCH   1  46
BRANCH   1  68
HETATM   68  C   UNL     1     -21.132 -10.090  -3.358  1.00  0.00     0.195 C 
BRANCH  68  69
HETATM   69  O   UNL     1     -21.442  -8.816  -4.007  1.00  0.00    -0.320 OA
BRANCH  69  70
HETATM   70  C   UNL     1     -21.630  -7.815  -5.065  1.00  0.00     0.259 C 
HETATM   71  O   UNL     1     -20.939  -8.157  -6.036  1.00  0.00    -0.265 OA
BRANCH  70  72
HETATM   72  C   UNL     1     -23.259  -6.394  -4.852  1.00  0.00     0.116 C 
BRANCH  72  73
HETATM   73  C   UNL     1     -23.956  -5.308  -6.011  1.00  0.00     0.048 C 
BRANCH  73  74
HETATM   74  C   UNL     1     -23.042  -4.878  -7.048  1.00  0.00    -0.056 A 
HETATM   75  C   UNL     1     -23.516  -4.469  -8.253  1.00  0.00     0.018 A 
HETATM   76  C   UNL     1     -22.675  -4.205  -9.294  1.00  0.00    -0.016 A 
HETATM   77  C   UNL     1     -21.286  -4.280  -8.997  1.00  0.00     0.079 A 
HETATM   78  C   UNL     1     -20.780  -4.704  -7.735  1.00  0.00    -0.016 A 
HETATM   79  C   UNL     1     -21.709  -4.993  -6.769  1.00  0.00     0.018 A 
BRANCH  76  80
HETATM   80  C   UNL     1     -23.394  -3.767 -10.573  1.00  0.00    -0.021 C 
HETATM   81  C   UNL     1     -23.601  -4.898 -11.643  1.00  0.00     0.019 C 
HETATM   82  C   UNL     1     -24.803  -3.355 -10.144  1.00  0.00     0.019 C 
HETATM   83  C   UNL     1     -22.592  -2.697 -11.321  1.00  0.00     0.019 C 
ENDBRANCH  76  80
BRANCH  77  84
HETATM   84  O   UNL     1     -20.374  -3.856  -9.918  1.00  0.00    -0.360 OA
HETATM   85  H   UNL     1     -19.497  -3.880  -9.518  1.00  0.00     0.217 HD
ENDBRANCH  77  84
BRANCH  78  86
HETATM   86  C   UNL     1     -19.335  -4.760  -7.234  1.00  0.00    -0.021 C 
HETATM   87  C   UNL     1     -19.417  -4.597  -5.701  1.00  0.00     0.019 C 
HETATM   88  C   UNL     1     -18.629  -6.124  -7.545  1.00  0.00     0.019 C 
HETATM   89  C   UNL     1     -18.456  -3.685  -7.863  1.00  0.00     0.019 C 
ENDBRANCH  78  86
ENDBRANCH  73  74
ENDBRANCH  72  73
ENDBRANCH  70  72
ENDBRANCH  69  70
ENDBRANCH  68  69
ENDBRANCH   1  68
TORSDOF 36
ENDMDL
MODEL 4
REMARK VINA RESULT:      -8.4      0.275      2.190
REMARK WARNING: 32 MAX_TORS EXCEEDED!!!
REMARK  36 active torsions:
REMARK  status: ('A' for Active; 'I' for Inactive)
REMARK    1  A    between atoms: C_2  and  C_5 
REMARK    2  A    between atoms: C_7  and  C_16 
REMARK    3  A    between atoms: C_9  and  C_12 
REMARK    4  A    between atoms: C_10  and  O_11 
REMARK    5  A    between atoms: C_16  and  C_17 
REMARK    6  A    between atoms: C_17  and  C_18 
REMARK    7  A    between atoms: C_18  and  O_20 
REMARK    8  A    between atoms: O_20  and  C_21 
REMARK    9  A    between atoms: C_21  and  C_22 
REMARK   10  A    between atoms: C_22  and  C_23 
REMARK   11  A    between atoms: C_22  and  C_44 
REMARK   12  A    between atoms: C_22  and  C_65 
REMARK   13  A    between atoms: C_23  and  O_24 
REMARK   14  A    between atoms: O_24  and  C_25 
REMARK   15  A    between atoms: C_25  and  C_27 
REMARK   16  A    between atoms: C_27  and  C_28 
REMARK   17  A    between atoms: C_28  and  C_29 
REMARK   18  A    between atoms: C_31  and  C_40 
REMARK   19  A    between atoms: C_32  and  O_39 
REMARK   20  A    between atoms: C_33  and  C_35 
REMARK   21  A    between atoms: C_44  and  O_45 
REMARK   22  A    between atoms: O_45  and  C_46 
REMARK   23  A    between atoms: C_46  and  C_48 
REMARK   24  A    between atoms: C_48  and  C_49 
REMARK   25  A    between atoms: C_49  and  C_50 
REMARK   26  A    between atoms: C_52  and  C_61 
REMARK   27  A    between atoms: C_53  and  O_60 
REMARK   28  A    between atoms: C_54  and  C_56 
REMARK   29  A    between atoms: C_65  and  O_66 
REMARK   30  A    between atoms: O_66  and  C_67 
REMARK   31  A    between atoms: C_67  and  C_69 
REMARK   32  A    between atoms: C_69  and  C_70 
REMARK   33  A    between atoms: C_70  and  C_71 
REMARK   34  A    between atoms: C_73  and  C_82 
REMARK   35  A    between atoms: C_74  and  O_81 
REMARK   36  A    between atoms: C_75  and  C_77 
ROOT
HETATM    1  C   UNL     1     -19.978  -9.917  -2.498  1.00  0.00     0.048 C 
ENDROOT
BRANCH   1   2
HETATM    2  C   UNL     1     -18.796  -9.361  -3.380  1.00  0.00     0.195 C 
BRANCH   2   3
HETATM    3  O   UNL     1     -17.510  -9.164  -2.757  1.00  0.00    -0.320 OA
BRANCH   3   4
HETATM    4  C   UNL     1     -16.439  -9.894  -3.202  1.00  0.00     0.259 C 
HETATM    5  O   UNL     1     -15.582 -10.399  -2.485  1.00  0.00    -0.265 OA
BRANCH   4   6
HETATM    6  C   UNL     1     -16.348  -9.972  -4.713  1.00  0.00     0.116 C 
BRANCH   6   7
HETATM    7  C   UNL     1     -15.261 -10.902  -5.182  1.00  0.00     0.048 C 
BRANCH   7   8
HETATM    8  C   UNL     1     -15.802 -12.232  -5.659  1.00  0.00    -0.056 C 
HETATM    9  C   UNL     1     -17.101 -12.400  -6.934  1.00  0.00     0.018 C 
HETATM   10  C   UNL     1     -17.368 -14.085  -7.710  1.00  0.00    -0.016 C 
HETATM   11  C   UNL     1     -16.294 -15.446  -7.177  1.00  0.00     0.079 C 
HETATM   12  C   UNL     1     -14.949 -15.172  -5.993  1.00  0.00    -0.016 C 
HETATM   13  C   UNL     1     -14.790 -13.601  -5.185  1.00  0.00     0.018 C 
BRANCH  10  14
HETATM   14  C   UNL     1     -18.653 -14.391  -8.415  1.00  0.00    -0.021 C 
HETATM   15  C   UNL     1     -19.642 -15.010  -7.411  1.00  0.00     0.019 C 
HETATM   16  C   UNL     1     -18.391 -15.254  -9.677  1.00  0.00     0.019 C 
HETATM   17  C   UNL     1     -19.178 -13.035  -8.863  1.00  0.00     0.019 C 
ENDBRANCH  10  14
BRANCH  11  18
HETATM   18  O   UNL     1     -16.654 -16.732  -7.454  1.00  0.00    -0.360 OA
HETATM   19  H   UNL     1     -17.146 -17.017  -6.659  1.00  0.00     0.217 HD
ENDBRANCH  11  18
BRANCH  12  20
HETATM   20  C   UNL     1     -13.982 -16.267  -5.543  1.00  0.00    -0.021 C 
HETATM   21  C   UNL     1     -14.805 -17.149  -4.588  1.00  0.00     0.019 C 
HETATM   22  C   UNL     1     -13.401 -16.877  -6.824  1.00  0.00     0.019 C 
HETATM   23  C   UNL     1     -12.750 -15.834  -4.707  1.00  0.00     0.019 C 
ENDBRANCH  12  20
ENDBRANCH   7   8
ENDBRANCH   6   7
ENDBRANCH   4   6
ENDBRANCH   3   4
ENDBRANCH   2   3
ENDBRANCH   1   2
BRANCH   1  24
HETATM   24  C   UNL     1     -19.759 -11.305  -1.946  1.00  0.00     0.195 C 
BRANCH  24  25
HETATM   25  O   UNL     1     -18.747 -11.364  -1.033  1.00  0.00    -0.320 OA
BRANCH  25  26
HETATM   26  C   UNL     1     -18.057 -12.543  -1.049  1.00  0.00     0.259 C 
HETATM   27  O   UNL     1     -17.404 -13.055  -1.943  1.00  0.00    -0.265 OA
BRANCH  26  28
HETATM   28  C   UNL     1     -18.062 -12.960   0.356  1.00  0.00     0.116 C 
BRANCH  28  29
HETATM   29  C   UNL     1     -16.845 -12.263   0.954  1.00  0.00     0.048 C 
BRANCH  29  30
HETATM   30  C   UNL     1     -15.816 -13.266   1.215  1.00  0.00    -0.056 A 
HETATM   31  C   UNL     1     -14.904 -13.601   0.226  1.00  0.00     0.018 A 
HETATM   32  C   UNL     1     -13.913 -14.544   0.461  1.00  0.00    -0.016 A 
HETATM   33  C   UNL     1     -13.942 -15.158   1.747  1.00  0.00     0.079 A 
HETATM   34  C   UNL     1     -14.929 -14.876   2.734  1.00  0.00    -0.016 A 
HETATM   35  C   UNL     1     -15.839 -13.883   2.441  1.00  0.00     0.018 A 
BRANCH  32  36
HETATM   36  C   UNL     1     -12.872 -14.799  -0.653  1.00  0.00    -0.021 C 
HETATM   37  C   UNL     1     -12.863 -16.270  -1.181  1.00  0.00     0.019 C 
HETATM   38  C   UNL     1     -13.185 -13.915  -1.877  1.00  0.00     0.019 C 
HETATM   39  C   UNL     1     -11.435 -14.552  -0.152  1.00  0.00     0.019 C 
ENDBRANCH  32  36
BRANCH  33  40
HETATM   40  O   UNL     1     -12.969 -16.032   2.128  1.00  0.00    -0.360 OA
HETATM   41  H   UNL     1     -12.150 -15.558   2.296  1.00  0.00     0.217 HD
ENDBRANCH  33  40
BRANCH  34  42
HETATM   42  C   UNL     1     -15.039 -15.511   4.129  1.00  0.00    -0.021 C 
HETATM   43  C   UNL     1     -16.279 -16.422   4.122  1.00  0.00     0.019 C 
HETATM   44  C   UNL     1     -13.789 -16.375   4.479  1.00  0.00     0.019 C 
HETATM   45  C   UNL     1     -15.148 -14.489   5.272  1.00  0.00     0.019 C 
ENDBRANCH  34  42
ENDBRANCH  29  30
ENDBRANCH  28  29
ENDBRANCH  26  28
ENDBRANCH  25  26
ENDBRANCH  24  25
ENDBRANCH   1  24
BRANCH   1  46
HETATM   46  C   UNL     1     -20.454  -8.950  -1.400  1.00  0.00     0.195 C 
BRANCH  46  47
HETATM   47  O   UNL     1     -21.347  -9.634  -0.505  1.00  0.00    -0.320 OA
BRANCH  47  48
HETATM   48  C   UNL     1     -22.502  -8.972  -0.225  1.00  0.00     0.259 C 
HETATM   49  O   UNL     1     -22.734  -7.826  -0.588  1.00  0.00    -0.265 OA
BRANCH  48  50
HETATM   50  C   UNL     1     -23.560  -9.912   0.303  1.00  0.00     0.116 C 
BRANCH  50  51
HETATM   51  C   UNL     1     -24.081 -10.866  -0.758  1.00  0.00     0.048 C 
BRANCH  51  52
HETATM   52  C   UNL     1     -23.444 -12.232  -0.683  1.00  0.00    -0.056 A 
HETATM   53  C   UNL     1     -23.478 -13.001   0.488  1.00  0.00     0.018 A 
HETATM   54  C   UNL     1     -22.916 -14.297   0.565  1.00  0.00    -0.016 A 
HETATM   55  C   UNL     1     -22.323 -14.788  -0.631  1.00  0.00     0.079 A 
HETATM   56  C   UNL     1     -22.340 -14.066  -1.856  1.00  0.00    -0.016 A 
HETATM   57  C   UNL     1     -22.869 -12.769  -1.830  1.00  0.00     0.018 A 
BRANCH  54  58
HETATM   58  C   UNL     1     -23.059 -15.116   1.880  1.00  0.00    -0.021 C 
HETATM   59  C   UNL     1     -23.844 -14.357   2.990  1.00  0.00     0.019 C 
HETATM   60  C   UNL     1     -23.857 -16.413   1.606  1.00  0.00     0.019 C 
HETATM   61  C   UNL     1     -21.700 -15.469   2.534  1.00  0.00     0.019 C 
ENDBRANCH  54  58
BRANCH  55  62
HETATM   62  O   UNL     1     -21.692 -16.001  -0.682  1.00  0.00    -0.360 OA
HETATM   63  H   UNL     1     -21.098 -16.049  -1.436  1.00  0.00     0.217 HD
ENDBRANCH  55  62
BRANCH  56  64
HETATM   64  C   UNL     1     -21.855 -14.667  -3.200  1.00  0.00    -0.021 C 
HETATM   65  C   UNL     1     -20.328 -14.918  -3.178  1.00  0.00     0.019 C 
HETATM   66  C   UNL     1     -22.484 -16.053  -3.519  1.00  0.00     0.019 C 
HETATM   67  C   UNL     1     -22.231 -13.739  -4.373  1.00  0.00     0.019 C 
ENDBRANCH  56  64
ENDBRANCH  51  52
ENDBRANCH  50  51
ENDBRANCH  48  50
ENDBRANCH  47  48
ENDBRANCH  46  47
ENDBRANCH   1  46
BRANCH   1  68
HETATM   68  C   UNL     1     -21.145 -10.122  -3.386  1.00  0.00     0.195 C 
BRANCH  68  69
HETATM   69  O   UNL     1     -21.465  -8.845  -4.024  1.00  0.00    -0.320 OA
BRANCH  69  70
HETATM   70  C   UNL     1     -21.654  -7.833  -5.071  1.00  0.00     0.259 C 
HETATM   71  O   UNL     1     -20.977  -8.174  -6.053  1.00  0.00    -0.265 OA
BRANCH  70  72
HETATM   72  C   UNL     1     -23.265  -6.395  -4.828  1.00  0.00     0.116 C 
BRANCH  72  73
HETATM   73  C   UNL     1     -23.972  -5.303  -5.975  1.00  0.00     0.048 C 
BRANCH  73  74
HETATM   74  C   UNL     1     -23.069  -4.874  -7.023  1.00  0.00    -0.056 A 
HETATM   75  C   UNL     1     -23.558  -4.468  -8.223  1.00  0.00     0.018 A 
HETATM   76  C   UNL     1     -22.728  -4.206  -9.274  1.00  0.00    -0.016 A 
HETATM   77  C   UNL     1     -21.336  -4.279  -8.992  1.00  0.00     0.079 A 
HETATM   78  C   UNL     1     -20.815  -4.700  -7.735  1.00  0.00    -0.016 A 
HETATM   79  C   UNL     1     -21.733  -4.987  -6.758  1.00  0.00     0.018 A 
BRANCH  76  80
HETATM   80  C   UNL     1     -23.462  -3.771 -10.546  1.00  0.00    -0.021 C 
HETATM   81  C   UNL     1     -23.640  -4.893 -11.630  1.00  0.00     0.019 C 
HETATM   82  C   UNL     1     -24.880  -3.403 -10.108  1.00  0.00     0.019 C 
HETATM   83  C   UNL     1     -22.691  -2.670 -11.281  1.00  0.00     0.019 C 
ENDBRANCH  76  80
BRANCH  77  84
HETATM   84  O   UNL     1     -20.435  -3.856  -9.924  1.00  0.00    -0.360 OA
HETATM   85  H   UNL     1     -19.553  -3.878  -9.534  1.00  0.00     0.217 HD
ENDBRANCH  77  84
BRANCH  78  86
HETATM   86  C   UNL     1     -19.365  -4.753  -7.250  1.00  0.00    -0.021 C 
HETATM   87  C   UNL     1     -19.432  -4.609  -5.715  1.00  0.00     0.019 C 
HETATM   88  C   UNL     1     -18.655  -6.110  -7.584  1.00  0.00     0.019 C 
HETATM   89  C   UNL     1     -18.498  -3.666  -7.876  1.00  0.00     0.019 C 
ENDBRANCH  78  86
ENDBRANCH  73  74
ENDBRANCH  72  73
ENDBRANCH  70  72
ENDBRANCH  69  70
ENDBRANCH  68  69
ENDBRANCH   1  68
TORSDOF 36
ENDMDL
MODEL 5
REMARK VINA RESULT:      -7.9      0.759      2.440
REMARK WARNING: 32 MAX_TORS EXCEEDED!!!
REMARK  36 active torsions:
REMARK  status: ('A' for Active; 'I' for Inactive)
REMARK    1  A    between atoms: C_2  and  C_5 
REMARK    2  A    between atoms: C_7  and  C_16 
REMARK    3  A    between atoms: C_9  and  C_12 
REMARK    4  A    between atoms: C_10  and  O_11 
REMARK    5  A    between atoms: C_16  and  C_17 
REMARK    6  A    between atoms: C_17  and  C_18 
REMARK    7  A    between atoms: C_18  and  O_20 
REMARK    8  A    between atoms: O_20  and  C_21 
REMARK    9  A    between atoms: C_21  and  C_22 
REMARK   10  A    between atoms: C_22  and  C_23 
REMARK   11  A    between atoms: C_22  and  C_44 
REMARK   12  A    between atoms: C_22  and  C_65 
REMARK   13  A    between atoms: C_23  and  O_24 
REMARK   14  A    between atoms: O_24  and  C_25 
REMARK   15  A    between atoms: C_25  and  C_27 
REMARK   16  A    between atoms: C_27  and  C_28 
REMARK   17  A    between atoms: C_28  and  C_29 
REMARK   18  A    between atoms: C_31  and  C_40 
REMARK   19  A    between atoms: C_32  and  O_39 
REMARK   20  A    between atoms: C_33  and  C_35 
REMARK   21  A    between atoms: C_44  and  O_45 
REMARK   22  A    between atoms: O_45  and  C_46 
REMARK   23  A    between atoms: C_46  and  C_48 
REMARK   24  A    between atoms: C_48  and  C_49 
REMARK   25  A    between atoms: C_49  and  C_50 
REMARK   26  A    between atoms: C_52  and  C_61 
REMARK   27  A    between atoms: C_53  and  O_60 
REMARK   28  A    between atoms: C_54  and  C_56 
REMARK   29  A    between atoms: C_65  and  O_66 
REMARK   30  A    between atoms: O_66  and  C_67 
REMARK   31  A    between atoms: C_67  and  C_69 
REMARK   32  A    between atoms: C_69  and  C_70 
REMARK   33  A    between atoms: C_70  and  C_71 
REMARK   34  A    between atoms: C_73  and  C_82 
REMARK   35  A    between atoms: C_74  and  O_81 
REMARK   36  A    between atoms: C_75  and  C_77 
ROOT
HETATM    1  C   UNL     1     -20.194  -9.676  -2.459  1.00  0.00     0.048 C 
ENDROOT
BRANCH   1   2
HETATM    2  C   UNL     1     -18.968  -9.104  -3.268  1.00  0.00     0.195 C 
BRANCH   2   3
HETATM    3  O   UNL     1     -17.689  -9.022  -2.607  1.00  0.00    -0.320 OA
BRANCH   3   4
HETATM    4  C   UNL     1     -16.615  -9.672  -3.158  1.00  0.00     0.259 C 
HETATM    5  O   UNL     1     -15.604 -10.006  -2.549  1.00  0.00    -0.265 OA
BRANCH   4   6
HETATM    6  C   UNL     1     -16.743  -9.890  -4.652  1.00  0.00     0.116 C 
BRANCH   6   7
HETATM    7  C   UNL     1     -15.486 -10.443  -5.268  1.00  0.00     0.048 C 
BRANCH   7   8
HETATM    8  C   UNL     1     -15.682 -11.831  -5.839  1.00  0.00    -0.056 C 
HETATM    9  C   UNL     1     -14.654 -13.270  -5.381  1.00  0.00     0.018 C 
HETATM   10  C   UNL     1     -15.268 -14.981  -5.842  1.00  0.00    -0.016 C 
HETATM   11  C   UNL     1     -16.869 -15.110  -6.684  1.00  0.00     0.079 C 
HETATM   12  C   UNL     1     -17.885 -13.643  -6.998  1.00  0.00    -0.016 C 
HETATM   13  C   UNL     1     -17.234 -12.027  -6.661  1.00  0.00     0.018 C 
BRANCH  10  14
HETATM   14  C   UNL     1     -14.312 -16.133  -5.890  1.00  0.00    -0.021 C 
HETATM   15  C   UNL     1     -14.266 -16.688  -7.325  1.00  0.00     0.019 C 
HETATM   16  C   UNL     1     -14.669 -17.181  -4.804  1.00  0.00     0.019 C 
HETATM   17  C   UNL     1     -12.961 -15.526  -5.544  1.00  0.00     0.019 C 
ENDBRANCH  10  14
BRANCH  11  18
HETATM   18  O   UNL     1     -17.197 -16.268  -7.324  1.00  0.00    -0.360 OA
HETATM   19  H   UNL     1     -17.446 -16.877  -6.602  1.00  0.00     0.217 HD
ENDBRANCH  11  18
BRANCH  12  20
HETATM   20  C   UNL     1     -19.263 -13.693  -7.659  1.00  0.00    -0.021 C 
HETATM   21  C   UNL     1     -20.015 -12.477  -7.093  1.00  0.00     0.019 C 
HETATM   22  C   UNL     1     -19.008 -13.788  -9.169  1.00  0.00     0.019 C 
HETATM   23  C   UNL     1     -20.173 -14.903  -7.327  1.00  0.00     0.019 C 
ENDBRANCH  12  20
ENDBRANCH   7   8
ENDBRANCH   6   7
ENDBRANCH   4   6
ENDBRANCH   3   4
ENDBRANCH   2   3
ENDBRANCH   1   2
BRANCH   1  24
HETATM   24  C   UNL     1     -20.016 -11.087  -1.952  1.00  0.00     0.195 C 
BRANCH  24  25
HETATM   25  O   UNL     1     -18.941 -11.227  -1.123  1.00  0.00    -0.320 OA
BRANCH  25  26
HETATM   26  C   UNL     1     -19.221 -11.887   0.039  1.00  0.00     0.259 C 
HETATM   27  O   UNL     1     -20.229 -12.484   0.376  1.00  0.00    -0.265 OA
BRANCH  26  28
HETATM   28  C   UNL     1     -17.925 -11.937   0.723  1.00  0.00     0.116 C 
BRANCH  28  29
HETATM   29  C   UNL     1     -16.930 -12.238  -0.391  1.00  0.00     0.048 C 
BRANCH  29  30
HETATM   30  C   UNL     1     -16.039 -13.306   0.057  1.00  0.00    -0.056 A 
HETATM   31  C   UNL     1     -16.296 -13.973   1.245  1.00  0.00     0.018 A 
HETATM   32  C   UNL     1     -15.466 -14.998   1.680  1.00  0.00    -0.016 A 
HETATM   33  C   UNL     1     -14.335 -15.263   0.855  1.00  0.00     0.079 A 
HETATM   34  C   UNL     1     -14.024 -14.523  -0.321  1.00  0.00    -0.016 A 
HETATM   35  C   UNL     1     -14.933 -13.564  -0.713  1.00  0.00     0.018 A 
BRANCH  32  36
HETATM   36  C   UNL     1     -15.864 -15.761   2.963  1.00  0.00    -0.021 C 
HETATM   37  C   UNL     1     -15.224 -17.182   3.074  1.00  0.00     0.019 C 
HETATM   38  C   UNL     1     -15.385 -14.986   4.207  1.00  0.00     0.019 C 
HETATM   39  C   UNL     1     -17.385 -16.009   3.025  1.00  0.00     0.019 C 
ENDBRANCH  32  36
BRANCH  33  40
HETATM   40  O   UNL     1     -13.497 -16.303   1.129  1.00  0.00    -0.360 OA
HETATM   41  H   UNL     1     -13.957 -17.137   0.998  1.00  0.00     0.217 HD
ENDBRANCH  33  40
BRANCH  34  42
HETATM   42  C   UNL     1     -12.815 -14.734  -1.246  1.00  0.00    -0.021 C 
HETATM   43  C   UNL     1     -12.930 -16.152  -1.835  1.00  0.00     0.019 C 
HETATM   44  C   UNL     1     -12.792 -13.709  -2.421  1.00  0.00     0.019 C 
HETATM   45  C   UNL     1     -11.458 -14.567  -0.547  1.00  0.00     0.019 C 
ENDBRANCH  34  42
ENDBRANCH  29  30
ENDBRANCH  28  29
ENDBRANCH  26  28
ENDBRANCH  25  26
ENDBRANCH  24  25
ENDBRANCH   1  24
BRANCH   1  46
HETATM   46  C   UNL     1     -20.705  -8.745  -1.347  1.00  0.00     0.195 C 
BRANCH  46  47
HETATM   47  O   UNL     1     -22.124  -8.915  -1.187  1.00  0.00    -0.320 OA
BRANCH  47  48
HETATM   48  C   UNL     1     -22.560  -8.939   0.102  1.00  0.00     0.259 C 
HETATM   49  O   UNL     1     -22.349  -8.042   0.908  1.00  0.00    -0.265 OA
BRANCH  48  50
HETATM   50  C   UNL     1     -23.577 -10.035   0.317  1.00  0.00     0.116 C 
BRANCH  50  51
HETATM   51  C   UNL     1     -23.908 -10.788  -0.961  1.00  0.00     0.048 C 
BRANCH  51  52
HETATM   52  C   UNL     1     -23.452 -12.226  -0.929  1.00  0.00    -0.056 A 
HETATM   53  C   UNL     1     -23.531 -13.003   0.235  1.00  0.00     0.018 A 
HETATM   54  C   UNL     1     -23.141 -14.362   0.272  1.00  0.00    -0.016 A 
HETATM   55  C   UNL     1     -22.675 -14.907  -0.955  1.00  0.00     0.079 A 
HETATM   56  C   UNL     1     -22.655 -14.171  -2.172  1.00  0.00    -0.016 A 
HETATM   57  C   UNL     1     -23.007 -12.816  -2.107  1.00  0.00     0.018 A 
BRANCH  54  58
HETATM   58  C   UNL     1     -23.327 -15.175   1.586  1.00  0.00    -0.021 C 
HETATM   59  C   UNL     1     -24.314 -16.370   1.430  1.00  0.00     0.019 C 
HETATM   60  C   UNL     1     -21.976 -15.794   2.014  1.00  0.00     0.019 C 
HETATM   61  C   UNL     1     -23.909 -14.337   2.750  1.00  0.00     0.019 C 
ENDBRANCH  54  58
BRANCH  55  62
HETATM   62  O   UNL     1     -22.211 -16.192  -1.049  1.00  0.00    -0.360 OA
HETATM   63  H   UNL     1     -22.429 -16.576  -1.903  1.00  0.00     0.217 HD
ENDBRANCH  55  62
BRANCH  56  64
HETATM   64  C   UNL     1     -22.317 -14.809  -3.543  1.00  0.00    -0.021 C 
HETATM   65  C   UNL     1     -20.813 -15.162  -3.637  1.00  0.00     0.019 C 
HETATM   66  C   UNL     1     -23.060 -16.151  -3.799  1.00  0.00     0.019 C 
HETATM   67  C   UNL     1     -22.720 -13.863  -4.692  1.00  0.00     0.019 C 
ENDBRANCH  56  64
ENDBRANCH  51  52
ENDBRANCH  50  51
ENDBRANCH  48  50
ENDBRANCH  47  48
ENDBRANCH  46  47
ENDBRANCH   1  46
BRANCH   1  68
HETATM   68  C   UNL     1     -21.324  -9.831  -3.404  1.00  0.00     0.195 C 
BRANCH  68  69
HETATM   69  O   UNL     1     -21.543  -8.548  -4.070  1.00  0.00    -0.320 OA
BRANCH  69  70
HETATM   70  C   UNL     1     -21.711  -7.559  -5.143  1.00  0.00     0.259 C 
HETATM   71  O   UNL     1     -20.970  -7.891  -6.082  1.00  0.00    -0.265 OA
BRANCH  70  72
HETATM   72  C   UNL     1     -23.381  -6.177  -5.011  1.00  0.00     0.116 C 
BRANCH  72  73
HETATM   73  C   UNL     1     -24.046  -5.108  -6.204  1.00  0.00     0.048 C 
BRANCH  73  74
HETATM   74  C   UNL     1     -23.118  -4.732  -7.250  1.00  0.00    -0.056 A 
HETATM   75  C   UNL     1     -23.576  -4.380  -8.479  1.00  0.00     0.018 A 
HETATM   76  C   UNL     1     -22.722  -4.170  -9.521  1.00  0.00    -0.016 A 
HETATM   77  C   UNL     1     -21.337  -4.235  -9.204  1.00  0.00     0.079 A 
HETATM   78  C   UNL     1     -20.847  -4.599  -7.917  1.00  0.00    -0.016 A 
HETATM   79  C   UNL     1     -21.788  -4.837  -6.949  1.00  0.00     0.018 A 
BRANCH  76  80
HETATM   80  C   UNL     1     -23.424  -3.792 -10.828  1.00  0.00    -0.021 C 
HETATM   81  C   UNL     1     -22.697  -2.693 -11.682  1.00  0.00     0.019 C 
HETATM   82  C   UNL     1     -23.408  -5.052 -11.695  1.00  0.00     0.019 C 
HETATM   83  C   UNL     1     -24.808  -3.192 -10.561  1.00  0.00     0.019 C 
ENDBRANCH  76  80
BRANCH  77  84
HETATM   84  O   UNL     1     -20.413  -3.860 -10.133  1.00  0.00    -0.360 OA
HETATM   85  H   UNL     1     -19.552  -4.208  -9.872  1.00  0.00     0.217 HD
ENDBRANCH  77  84
BRANCH  78  86
HETATM   86  C   UNL     1     -19.409  -4.636  -7.396  1.00  0.00    -0.021 C 
HETATM   87  C   UNL     1     -19.517  -4.545  -5.859  1.00  0.00     0.019 C 
HETATM   88  C   UNL     1     -18.658  -5.963  -7.757  1.00  0.00     0.019 C 
HETATM   89  C   UNL     1     -18.553  -3.507  -7.962  1.00  0.00     0.019 C 
ENDBRANCH  78  86
ENDBRANCH  73  74
ENDBRANCH  72  73
ENDBRANCH  70  72
ENDBRANCH  69  70
ENDBRANCH  68  69
ENDBRANCH   1  68
TORSDOF 36
ENDMDL
MODEL 6
REMARK VINA RESULT:      -7.8      0.833      3.165
REMARK WARNING: 32 MAX_TORS EXCEEDED!!!
REMARK  36 active torsions:
REMARK  status: ('A' for Active; 'I' for Inactive)
REMARK    1  A    between atoms: C_2  and  C_5 
REMARK    2  A    between atoms: C_7  and  C_16 
REMARK    3  A    between atoms: C_9  and  C_12 
REMARK    4  A    between atoms: C_10  and  O_11 
REMARK    5  A    between atoms: C_16  and  C_17 
REMARK    6  A    between atoms: C_17  and  C_18 
REMARK    7  A    between atoms: C_18  and  O_20 
REMARK    8  A    between atoms: O_20  and  C_21 
REMARK    9  A    between atoms: C_21  and  C_22 
REMARK   10  A    between atoms: C_22  and  C_23 
REMARK   11  A    between atoms: C_22  and  C_44 
REMARK   12  A    between atoms: C_22  and  C_65 
REMARK   13  A    between atoms: C_23  and  O_24 
REMARK   14  A    between atoms: O_24  and  C_25 
REMARK   15  A    between atoms: C_25  and  C_27 
REMARK   16  A    between atoms: C_27  and  C_28 
REMARK   17  A    between atoms: C_28  and  C_29 
REMARK   18  A    between atoms: C_31  and  C_40 
REMARK   19  A    between atoms: C_32  and  O_39 
REMARK   20  A    between atoms: C_33  and  C_35 
REMARK   21  A    between atoms: C_44  and  O_45 
REMARK   22  A    between atoms: O_45  and  C_46 
REMARK   23  A    between atoms: C_46  and  C_48 
REMARK   24  A    between atoms: C_48  and  C_49 
REMARK   25  A    between atoms: C_49  and  C_50 
REMARK   26  A    between atoms: C_52  and  C_61 
REMARK   27  A    between atoms: C_53  and  O_60 
REMARK   28  A    between atoms: C_54  and  C_56 
REMARK   29  A    between atoms: C_65  and  O_66 
REMARK   30  A    between atoms: O_66  and  C_67 
REMARK   31  A    between atoms: C_67  and  C_69 
REMARK   32  A    between atoms: C_69  and  C_70 
REMARK   33  A    between atoms: C_70  and  C_71 
REMARK   34  A    between atoms: C_73  and  C_82 
REMARK   35  A    between atoms: C_74  and  O_81 
REMARK   36  A    between atoms: C_75  and  C_77 
ROOT
HETATM    1  C   UNL     1     -20.085  -9.863  -2.633  1.00  0.00     0.048 C 
ENDROOT
BRANCH   1   2
HETATM    2  C   UNL     1     -18.874  -9.331  -3.490  1.00  0.00     0.195 C 
BRANCH   2   3
HETATM    3  O   UNL     1     -17.586  -9.207  -2.852  1.00  0.00    -0.320 OA
BRANCH   3   4
HETATM    4  C   UNL     1     -16.490  -9.765  -3.458  1.00  0.00     0.259 C 
HETATM    5  O   UNL     1     -15.524 -10.239  -2.870  1.00  0.00    -0.265 OA
BRANCH   4   6
HETATM    6  C   UNL     1     -16.529  -9.683  -4.971  1.00  0.00     0.116 C 
BRANCH   6   7
HETATM    7  C   UNL     1     -15.346 -10.352  -5.620  1.00  0.00     0.048 C 
BRANCH   7   8
HETATM    8  C   UNL     1     -15.655 -11.763  -6.071  1.00  0.00    -0.056 C 
HETATM    9  C   UNL     1     -14.670 -13.222  -5.581  1.00  0.00     0.018 C 
HETATM   10  C   UNL     1     -15.402 -14.923  -5.868  1.00  0.00    -0.016 C 
HETATM   11  C   UNL     1     -17.067 -15.022  -6.583  1.00  0.00     0.079 C 
HETATM   12  C   UNL     1     -18.028 -13.526  -6.932  1.00  0.00    -0.016 C 
HETATM   13  C   UNL     1     -17.272 -11.930  -6.764  1.00  0.00     0.018 C 
BRANCH  10  14
HETATM   14  C   UNL     1     -14.513 -16.127  -5.898  1.00  0.00    -0.021 C 
HETATM   15  C   UNL     1     -15.051 -17.176  -4.908  1.00  0.00     0.019 C 
HETATM   16  C   UNL     1     -13.035 -15.718  -5.662  1.00  0.00     0.019 C 
HETATM   17  C   UNL     1     -14.640 -16.665  -7.315  1.00  0.00     0.019 C 
ENDBRANCH  10  14
BRANCH  11  18
HETATM   18  O   UNL     1     -17.500 -16.202  -7.110  1.00  0.00    -0.360 OA
HETATM   19  H   UNL     1     -17.628 -16.778  -6.331  1.00  0.00     0.217 HD
ENDBRANCH  11  18
BRANCH  12  20
HETATM   20  C   UNL     1     -19.451 -13.546  -7.489  1.00  0.00    -0.021 C 
HETATM   21  C   UNL     1     -20.188 -12.435  -6.721  1.00  0.00     0.019 C 
HETATM   22  C   UNL     1     -19.315 -13.448  -9.013  1.00  0.00     0.019 C 
HETATM   23  C   UNL     1     -20.300 -14.819  -7.240  1.00  0.00     0.019 C 
ENDBRANCH  12  20
ENDBRANCH   7   8
ENDBRANCH   6   7
ENDBRANCH   4   6
ENDBRANCH   3   4
ENDBRANCH   2   3
ENDBRANCH   1   2
BRANCH   1  24
HETATM   24  C   UNL     1     -19.923 -11.270  -2.110  1.00  0.00     0.195 C 
BRANCH  24  25
HETATM   25  O   UNL     1     -18.885 -11.400  -1.234  1.00  0.00    -0.320 OA
BRANCH  25  26
HETATM   26  C   UNL     1     -19.233 -11.979  -0.047  1.00  0.00     0.259 C 
HETATM   27  O   UNL     1     -20.238 -12.599   0.256  1.00  0.00    -0.265 OA
BRANCH  26  28
HETATM   28  C   UNL     1     -17.999 -11.906   0.741  1.00  0.00     0.116 C 
BRANCH  28  29
HETATM   29  C   UNL     1     -16.889 -11.959  -0.302  1.00  0.00     0.048 C 
BRANCH  29  30
HETATM   30  C   UNL     1     -16.011 -13.084   0.010  1.00  0.00    -0.056 A 
HETATM   31  C   UNL     1     -14.960 -13.402  -0.837  1.00  0.00     0.018 A 
HETATM   32  C   UNL     1     -14.110 -14.461  -0.550  1.00  0.00    -0.016 A 
HETATM   33  C   UNL     1     -14.428 -15.203   0.624  1.00  0.00     0.079 A 
HETATM   34  C   UNL     1     -15.556 -14.929   1.450  1.00  0.00    -0.016 A 
HETATM   35  C   UNL     1     -16.312 -13.823   1.126  1.00  0.00     0.018 A 
BRANCH  32  36
HETATM   36  C   UNL     1     -12.904 -14.700  -1.487  1.00  0.00    -0.021 C 
HETATM   37  C   UNL     1     -11.519 -14.578  -0.773  1.00  0.00     0.019 C 
HETATM   38  C   UNL     1     -12.958 -16.131  -2.058  1.00  0.00     0.019 C 
HETATM   39  C   UNL     1     -12.854 -13.659  -2.623  1.00  0.00     0.019 C 
ENDBRANCH  32  36
BRANCH  33  40
HETATM   40  O   UNL     1     -13.617 -16.207   1.059  1.00  0.00    -0.360 OA
HETATM   41  H   UNL     1     -12.948 -16.398   0.396  1.00  0.00     0.217 HD
ENDBRANCH  33  40
BRANCH  34  42
HETATM   42  C   UNL     1     -15.975 -15.695   2.714  1.00  0.00    -0.021 C 
HETATM   43  C   UNL     1     -17.512 -15.662   2.782  1.00  0.00     0.019 C 
HETATM   44  C   UNL     1     -15.510 -17.183   2.678  1.00  0.00     0.019 C 
HETATM   45  C   UNL     1     -15.384 -15.125   4.013  1.00  0.00     0.019 C 
ENDBRANCH  34  42
ENDBRANCH  29  30
ENDBRANCH  28  29
ENDBRANCH  26  28
ENDBRANCH  25  26
ENDBRANCH  24  25
ENDBRANCH   1  24
BRANCH   1  46
HETATM   46  C   UNL     1     -20.539  -8.904  -1.519  1.00  0.00     0.195 C 
BRANCH  46  47
HETATM   47  O   UNL     1     -21.925  -9.134  -1.216  1.00  0.00    -0.320 OA
BRANCH  47  48
HETATM   48  C   UNL     1     -22.196  -9.373   0.096  1.00  0.00     0.259 C 
HETATM   49  O   UNL     1     -21.553  -8.895   1.021  1.00  0.00    -0.265 OA
BRANCH  48  50
HETATM   50  C   UNL     1     -23.546 -10.030   0.266  1.00  0.00     0.116 C 
BRANCH  50  51
HETATM   51  C   UNL     1     -23.977 -10.814  -0.962  1.00  0.00     0.048 C 
BRANCH  51  52
HETATM   52  C   UNL     1     -23.547 -12.259  -0.917  1.00  0.00    -0.056 A 
HETATM   53  C   UNL     1     -23.572 -13.003   0.270  1.00  0.00     0.018 A 
HETATM   54  C   UNL     1     -23.206 -14.368   0.323  1.00  0.00    -0.016 A 
HETATM   55  C   UNL     1     -22.820 -14.955  -0.914  1.00  0.00     0.079 A 
HETATM   56  C   UNL     1     -22.857 -14.251  -2.149  1.00  0.00    -0.016 A 
HETATM   57  C   UNL     1     -23.181 -12.888  -2.102  1.00  0.00     0.018 A 
BRANCH  54  58
HETATM   58  C   UNL     1     -23.330 -15.143   1.667  1.00  0.00    -0.021 C 
HETATM   59  C   UNL     1     -21.981 -15.753   2.148  1.00  0.00     0.019 C 
HETATM   60  C   UNL     1     -23.784 -14.177   2.787  1.00  0.00     0.019 C 
HETATM   61  C   UNL     1     -24.300 -16.348   1.593  1.00  0.00     0.019 C 
ENDBRANCH  54  58
BRANCH  55  62
HETATM   62  O   UNL     1     -22.386 -16.250  -0.999  1.00  0.00    -0.360 OA
HETATM   63  H   UNL     1     -21.598 -16.385  -0.465  1.00  0.00     0.217 HD
ENDBRANCH  55  62
BRANCH  56  64
HETATM   64  C   UNL     1     -22.610 -14.932  -3.519  1.00  0.00    -0.021 C 
HETATM   65  C   UNL     1     -23.525 -16.167  -3.699  1.00  0.00     0.019 C 
HETATM   66  C   UNL     1     -22.935 -14.015  -4.732  1.00  0.00     0.019 C 
HETATM   67  C   UNL     1     -21.129 -15.334  -3.663  1.00  0.00     0.019 C 
ENDBRANCH  56  64
ENDBRANCH  51  52
ENDBRANCH  50  51
ENDBRANCH  48  50
ENDBRANCH  47  48
ENDBRANCH  46  47
ENDBRANCH   1  46
BRANCH   1  68
HETATM   68  C   UNL     1     -21.249 -10.006  -3.538  1.00  0.00     0.195 C 
BRANCH  68  69
HETATM   69  O   UNL     1     -21.513  -8.705  -4.153  1.00  0.00    -0.320 OA
BRANCH  69  70
HETATM   70  C   UNL     1     -21.677  -7.672  -5.185  1.00  0.00     0.259 C 
HETATM   71  O   UNL     1     -20.929  -7.962  -6.131  1.00  0.00    -0.265 OA
BRANCH  70  72
HETATM   72  C   UNL     1     -23.352  -6.302  -5.005  1.00  0.00     0.116 C 
BRANCH  72  73
HETATM   73  C   UNL     1     -24.007  -5.179  -6.152  1.00  0.00     0.048 C 
BRANCH  73  74
HETATM   74  C   UNL     1     -23.081  -4.782  -7.192  1.00  0.00    -0.056 A 
HETATM   75  C   UNL     1     -23.541  -4.408  -8.414  1.00  0.00     0.018 A 
HETATM   76  C   UNL     1     -22.688  -4.177  -9.453  1.00  0.00    -0.016 A 
HETATM   77  C   UNL     1     -21.303  -4.246  -9.138  1.00  0.00     0.079 A 
HETATM   78  C   UNL     1     -20.811  -4.632  -7.858  1.00  0.00    -0.016 A 
HETATM   79  C   UNL     1     -21.751  -4.890  -6.894  1.00  0.00     0.018 A 
BRANCH  76  80
HETATM   80  C   UNL     1     -23.392  -3.777 -10.752  1.00  0.00    -0.021 C 
HETATM   81  C   UNL     1     -23.606  -4.943 -11.782  1.00  0.00     0.019 C 
HETATM   82  C   UNL     1     -24.799  -3.332 -10.349  1.00  0.00     0.019 C 
HETATM   83  C   UNL     1     -22.571  -2.745 -11.532  1.00  0.00     0.019 C 
ENDBRANCH  76  80
BRANCH  77  84
HETATM   84  O   UNL     1     -20.380  -3.851 -10.061  1.00  0.00    -0.360 OA
HETATM   85  H   UNL     1     -20.772  -3.921 -10.939  1.00  0.00     0.217 HD
ENDBRANCH  77  84
BRANCH  78  86
HETATM   86  C   UNL     1     -19.372  -4.676  -7.340  1.00  0.00    -0.021 C 
HETATM   87  C   UNL     1     -18.665  -3.454  -7.964  1.00  0.00     0.019 C 
HETATM   88  C   UNL     1     -19.277  -4.554  -5.781  1.00  0.00     0.019 C 
HETATM   89  C   UNL     1     -18.660  -5.976  -7.699  1.00  0.00     0.019 C 
ENDBRANCH  78  86
ENDBRANCH  73  74
ENDBRANCH  72  73
ENDBRANCH  70  72
ENDBRANCH  69  70
ENDBRANCH  68  69
ENDBRANCH   1  68
TORSDOF 36
ENDMDL
MODEL 7
REMARK VINA RESULT:      -7.8      0.745      3.102
REMARK WARNING: 32 MAX_TORS EXCEEDED!!!
REMARK  36 active torsions:
REMARK  status: ('A' for Active; 'I' for Inactive)
REMARK    1  A    between atoms: C_2  and  C_5 
REMARK    2  A    between atoms: C_7  and  C_16 
REMARK    3  A    between atoms: C_9  and  C_12 
REMARK    4  A    between atoms: C_10  and  O_11 
REMARK    5  A    between atoms: C_16  and  C_17 
REMARK    6  A    between atoms: C_17  and  C_18 
REMARK    7  A    between atoms: C_18  and  O_20 
REMARK    8  A    between atoms: O_20  and  C_21 
REMARK    9  A    between atoms: C_21  and  C_22 
REMARK   10  A    between atoms: C_22  and  C_23 
REMARK   11  A    between atoms: C_22  and  C_44 
REMARK   12  A    between atoms: C_22  and  C_65 
REMARK   13  A    between atoms: C_23  and  O_24 
REMARK   14  A    between atoms: O_24  and  C_25 
REMARK   15  A    between atoms: C_25  and  C_27 
REMARK   16  A    between atoms: C_27  and  C_28 
REMARK   17  A    between atoms: C_28  and  C_29 
REMARK   18  A    between atoms: C_31  and  C_40 
REMARK   19  A    between atoms: C_32  and  O_39 
REMARK   20  A    between atoms: C_33  and  C_35 
REMARK   21  A    between atoms: C_44  and  O_45 
REMARK   22  A    between atoms: O_45  and  C_46 
REMARK   23  A    between atoms: C_46  and  C_48 
REMARK   24  A    between atoms: C_48  and  C_49 
REMARK   25  A    between atoms: C_49  and  C_50 
REMARK   26  A    between atoms: C_52  and  C_61 
REMARK   27  A    between atoms: C_53  and  O_60 
REMARK   28  A    between atoms: C_54  and  C_56 
REMARK   29  A    between atoms: C_65  and  O_66 
REMARK   30  A    between atoms: O_66  and  C_67 
REMARK   31  A    between atoms: C_67  and  C_69 
REMARK   32  A    between atoms: C_69  and  C_70 
REMARK   33  A    between atoms: C_70  and  C_71 
REMARK   34  A    between atoms: C_73  and  C_82 
REMARK   35  A    between atoms: C_74  and  O_81 
REMARK   36  A    between atoms: C_75  and  C_77 
ROOT
HETATM    1  C   UNL     1     -19.957  -9.768  -2.603  1.00  0.00     0.048 C 
ENDROOT
BRANCH   1   2
HETATM    2  C   UNL     1     -18.717  -9.266  -3.437  1.00  0.00     0.195 C 
BRANCH   2   3
HETATM    3  O   UNL     1     -17.417  -9.292  -2.815  1.00  0.00    -0.320 OA
BRANCH   3   4
HETATM    4  C   UNL     1     -16.377  -9.892  -3.476  1.00  0.00     0.259 C 
HETATM    5  O   UNL     1     -15.412 -10.425  -2.938  1.00  0.00    -0.265 OA
BRANCH   4   6
HETATM    6  C   UNL     1     -16.475  -9.779  -4.984  1.00  0.00     0.116 C 
BRANCH   6   7
HETATM    7  C   UNL     1     -15.289 -10.381  -5.690  1.00  0.00     0.048 C 
BRANCH   7   8
HETATM    8  C   UNL     1     -15.536 -11.810  -6.123  1.00  0.00    -0.056 C 
HETATM    9  C   UNL     1     -14.548 -13.231  -5.538  1.00  0.00     0.018 C 
HETATM   10  C   UNL     1     -15.221 -14.957  -5.825  1.00  0.00    -0.016 C 
HETATM   11  C   UNL     1     -16.837 -15.115  -6.634  1.00  0.00     0.079 C 
HETATM   12  C   UNL     1     -17.811 -13.653  -7.078  1.00  0.00    -0.016 C 
HETATM   13  C   UNL     1     -17.105 -12.035  -6.906  1.00  0.00     0.018 C 
BRANCH  10  14
HETATM   14  C   UNL     1     -14.303 -16.139  -5.771  1.00  0.00    -0.021 C 
HETATM   15  C   UNL     1     -14.880 -17.181  -4.797  1.00  0.00     0.019 C 
HETATM   16  C   UNL     1     -12.854 -15.687  -5.448  1.00  0.00     0.019 C 
HETATM   17  C   UNL     1     -14.324 -16.707  -7.182  1.00  0.00     0.019 C 
ENDBRANCH  10  14
BRANCH  11  18
HETATM   18  O   UNL     1     -17.210 -16.318  -7.156  1.00  0.00    -0.360 OA
HETATM   19  H   UNL     1     -17.468 -16.847  -6.375  1.00  0.00     0.217 HD
ENDBRANCH  11  18
BRANCH  12  20
HETATM   20  C   UNL     1     -19.198 -13.722  -7.717  1.00  0.00    -0.021 C 
HETATM   21  C   UNL     1     -19.934 -12.477  -7.193  1.00  0.00     0.019 C 
HETATM   22  C   UNL     1     -18.965 -13.883  -9.225  1.00  0.00     0.019 C 
HETATM   23  C   UNL     1     -20.111 -14.911  -7.320  1.00  0.00     0.019 C 
ENDBRANCH  12  20
ENDBRANCH   7   8
ENDBRANCH   6   7
ENDBRANCH   4   6
ENDBRANCH   3   4
ENDBRANCH   2   3
ENDBRANCH   1   2
BRANCH   1  24
HETATM   24  C   UNL     1     -19.813 -11.156  -2.026  1.00  0.00     0.195 C 
BRANCH  24  25
HETATM   25  O   UNL     1     -18.827 -11.247  -1.088  1.00  0.00    -0.320 OA
BRANCH  25  26
HETATM   26  C   UNL     1     -19.188 -11.947   0.028  1.00  0.00     0.259 C 
HETATM   27  O   UNL     1     -20.212 -12.565   0.266  1.00  0.00    -0.265 OA
BRANCH  26  28
HETATM   28  C   UNL     1     -17.949 -12.006   0.809  1.00  0.00     0.116 C 
BRANCH  28  29
HETATM   29  C   UNL     1     -16.856 -12.159  -0.242  1.00  0.00     0.048 C 
BRANCH  29  30
HETATM   30  C   UNL     1     -15.979 -13.258   0.155  1.00  0.00    -0.056 A 
HETATM   31  C   UNL     1     -16.217 -13.945   1.335  1.00  0.00     0.018 A 
HETATM   32  C   UNL     1     -15.400 -15.000   1.722  1.00  0.00    -0.016 A 
HETATM   33  C   UNL     1     -14.301 -15.273   0.857  1.00  0.00     0.079 A 
HETATM   34  C   UNL     1     -14.007 -14.515  -0.312  1.00  0.00    -0.016 A 
HETATM   35  C   UNL     1     -14.904 -13.525  -0.655  1.00  0.00     0.018 A 
BRANCH  32  36
HETATM   36  C   UNL     1     -15.778 -15.782   3.000  1.00  0.00    -0.021 C 
HETATM   37  C   UNL     1     -17.314 -16.023   3.159  1.00  0.00     0.019 C 
HETATM   38  C   UNL     1     -15.134 -17.183   2.968  1.00  0.00     0.019 C 
HETATM   39  C   UNL     1     -15.365 -15.018   4.274  1.00  0.00     0.019 C 
ENDBRANCH  32  36
BRANCH  33  40
HETATM   40  O   UNL     1     -13.482 -16.339   1.081  1.00  0.00    -0.360 OA
HETATM   41  H   UNL     1     -13.732 -16.778   1.899  1.00  0.00     0.217 HD
ENDBRANCH  33  40
BRANCH  34  42
HETATM   42  C   UNL     1     -12.833 -14.734  -1.279  1.00  0.00    -0.021 C 
HETATM   43  C   UNL     1     -12.994 -16.140  -1.884  1.00  0.00     0.019 C 
HETATM   44  C   UNL     1     -12.828 -13.691  -2.438  1.00  0.00     0.019 C 
HETATM   45  C   UNL     1     -11.452 -14.604  -0.620  1.00  0.00     0.019 C 
ENDBRANCH  34  42
ENDBRANCH  29  30
ENDBRANCH  28  29
ENDBRANCH  26  28
ENDBRANCH  25  26
ENDBRANCH  24  25
ENDBRANCH   1  24
BRANCH   1  46
HETATM   46  C   UNL     1     -20.446  -8.771  -1.539  1.00  0.00     0.195 C 
BRANCH  46  47
HETATM   47  O   UNL     1     -21.795  -9.090  -1.158  1.00  0.00    -0.320 OA
BRANCH  47  48
HETATM   48  C   UNL     1     -22.020  -9.137   0.183  1.00  0.00     0.259 C 
HETATM   49  O   UNL     1     -21.492  -8.379   0.987  1.00  0.00    -0.265 OA
BRANCH  48  50
HETATM   50  C   UNL     1     -23.209 -10.008   0.511  1.00  0.00     0.116 C 
BRANCH  50  51
HETATM   51  C   UNL     1     -23.868 -10.593  -0.728  1.00  0.00     0.048 C 
BRANCH  51  52
HETATM   52  C   UNL     1     -23.573 -12.061  -0.911  1.00  0.00    -0.056 A 
HETATM   53  C   UNL     1     -23.166 -12.586  -2.145  1.00  0.00     0.018 A 
HETATM   54  C   UNL     1     -22.852 -13.953  -2.325  1.00  0.00    -0.016 A 
HETATM   55  C   UNL     1     -22.957 -14.772  -1.167  1.00  0.00     0.079 A 
HETATM   56  C   UNL     1     -23.291 -14.258   0.116  1.00  0.00    -0.016 A 
HETATM   57  C   UNL     1     -23.639 -12.902   0.194  1.00  0.00     0.018 A 
BRANCH  54  58
HETATM   58  C   UNL     1     -22.338 -14.444  -3.710  1.00  0.00    -0.021 C 
HETATM   59  C   UNL     1     -23.154 -15.645  -4.273  1.00  0.00     0.019 C 
HETATM   60  C   UNL     1     -22.478 -13.310  -4.752  1.00  0.00     0.019 C 
HETATM   61  C   UNL     1     -20.874 -14.946  -3.679  1.00  0.00     0.019 C 
ENDBRANCH  54  58
BRANCH  55  62
HETATM   62  O   UNL     1     -22.739 -16.123  -1.211  1.00  0.00    -0.360 OA
HETATM   63  H   UNL     1     -22.040 -16.379  -0.603  1.00  0.00     0.217 HD
ENDBRANCH  55  62
BRANCH  56  64
HETATM   64  C   UNL     1     -23.234 -15.108   1.411  1.00  0.00    -0.021 C 
HETATM   65  C   UNL     1     -24.262 -16.264   1.363  1.00  0.00     0.019 C 
HETATM   66  C   UNL     1     -21.861 -15.804   1.633  1.00  0.00     0.019 C 
HETATM   67  C   UNL     1     -23.478 -14.223   2.650  1.00  0.00     0.019 C 
ENDBRANCH  56  64
ENDBRANCH  51  52
ENDBRANCH  50  51
ENDBRANCH  48  50
ENDBRANCH  47  48
ENDBRANCH  46  47
ENDBRANCH   1  46
BRANCH   1  68
HETATM   68  C   UNL     1     -21.090  -9.942  -3.540  1.00  0.00     0.195 C 
BRANCH  68  69
HETATM   69  O   UNL     1     -21.368  -8.650  -4.167  1.00  0.00    -0.320 OA
BRANCH  69  70
HETATM   70  C   UNL     1     -21.596  -7.641  -5.210  1.00  0.00     0.259 C 
HETATM   71  O   UNL     1     -20.907  -7.952  -6.194  1.00  0.00    -0.265 OA
BRANCH  70  72
HETATM   72  C   UNL     1     -23.259  -6.266  -4.959  1.00  0.00     0.116 C 
BRANCH  72  73
HETATM   73  C   UNL     1     -23.968  -5.151  -6.083  1.00  0.00     0.048 C 
BRANCH  73  74
HETATM   74  C   UNL     1     -23.087  -4.751  -7.160  1.00  0.00    -0.056 A 
HETATM   75  C   UNL     1     -23.599  -4.397  -8.368  1.00  0.00     0.018 A 
HETATM   76  C   UNL     1     -22.788  -4.164  -9.440  1.00  0.00    -0.016 A 
HETATM   77  C   UNL     1     -21.391  -4.209  -9.177  1.00  0.00     0.079 A 
HETATM   78  C   UNL     1     -20.846  -4.575  -7.913  1.00  0.00    -0.016 A 
HETATM   79  C   UNL     1     -21.745  -4.837  -6.912  1.00  0.00     0.018 A 
BRANCH  76  80
HETATM   80  C   UNL     1     -23.547  -3.787 -10.716  1.00  0.00    -0.021 C 
HETATM   81  C   UNL     1     -22.883  -2.653 -11.576  1.00  0.00     0.019 C 
HETATM   82  C   UNL     1     -23.523  -5.033 -11.604  1.00  0.00     0.019 C 
HETATM   83  C   UNL     1     -24.938  -3.234 -10.391  1.00  0.00     0.019 C 
ENDBRANCH  76  80
BRANCH  77  84
HETATM   84  O   UNL     1     -20.510  -3.810 -10.138  1.00  0.00    -0.360 OA
HETATM   85  H   UNL     1     -20.805  -4.154 -10.990  1.00  0.00     0.217 HD
ENDBRANCH  77  84
BRANCH  78  86
HETATM   86  C   UNL     1     -19.389  -4.592  -7.449  1.00  0.00    -0.021 C 
HETATM   87  C   UNL     1     -19.439  -4.520  -5.908  1.00  0.00     0.019 C 
HETATM   88  C   UNL     1     -18.630  -5.902  -7.854  1.00  0.00     0.019 C 
HETATM   89  C   UNL     1     -18.575  -3.443  -8.035  1.00  0.00     0.019 C 
ENDBRANCH  78  86
ENDBRANCH  73  74
ENDBRANCH  72  73
ENDBRANCH  70  72
ENDBRANCH  69  70
ENDBRANCH  68  69
ENDBRANCH   1  68
TORSDOF 36
ENDMDL
MODEL 8
REMARK VINA RESULT:      -7.6      0.869      3.724
REMARK WARNING: 32 MAX_TORS EXCEEDED!!!
REMARK  36 active torsions:
REMARK  status: ('A' for Active; 'I' for Inactive)
REMARK    1  A    between atoms: C_2  and  C_5 
REMARK    2  A    between atoms: C_7  and  C_16 
REMARK    3  A    between atoms: C_9  and  C_12 
REMARK    4  A    between atoms: C_10  and  O_11 
REMARK    5  A    between atoms: C_16  and  C_17 
REMARK    6  A    between atoms: C_17  and  C_18 
REMARK    7  A    between atoms: C_18  and  O_20 
REMARK    8  A    between atoms: O_20  and  C_21 
REMARK    9  A    between atoms: C_21  and  C_22 
REMARK   10  A    between atoms: C_22  and  C_23 
REMARK   11  A    between atoms: C_22  and  C_44 
REMARK   12  A    between atoms: C_22  and  C_65 
REMARK   13  A    between atoms: C_23  and  O_24 
REMARK   14  A    between atoms: O_24  and  C_25 
REMARK   15  A    between atoms: C_25  and  C_27 
REMARK   16  A    between atoms: C_27  and  C_28 
REMARK   17  A    between atoms: C_28  and  C_29 
REMARK   18  A    between atoms: C_31  and  C_40 
REMARK   19  A    between atoms: C_32  and  O_39 
REMARK   20  A    between atoms: C_33  and  C_35 
REMARK   21  A    between atoms: C_44  and  O_45 
REMARK   22  A    between atoms: O_45  and  C_46 
REMARK   23  A    between atoms: C_46  and  C_48 
REMARK   24  A    between atoms: C_48  and  C_49 
REMARK   25  A    between atoms: C_49  and  C_50 
REMARK   26  A    between atoms: C_52  and  C_61 
REMARK   27  A    between atoms: C_53  and  O_60 
REMARK   28  A    between atoms: C_54  and  C_56 
REMARK   29  A    between atoms: C_65  and  O_66 
REMARK   30  A    between atoms: O_66  and  C_67 
REMARK   31  A    between atoms: C_67  and  C_69 
REMARK   32  A    between atoms: C_69  and  C_70 
REMARK   33  A    between atoms: C_70  and  C_71 
REMARK   34  A    between atoms: C_73  and  C_82 
REMARK   35  A    between atoms: C_74  and  O_81 
REMARK   36  A    between atoms: C_75  and  C_77 
ROOT
HETATM    1  C   UNL     1     -20.088  -9.671  -2.703  1.00  0.00     0.048 C 
ENDROOT
BRANCH   1   2
HETATM    2  C   UNL     1     -18.848  -9.133  -3.514  1.00  0.00     0.195 C 
BRANCH   2   3
HETATM    3  O   UNL     1     -17.577  -9.039  -2.838  1.00  0.00    -0.320 OA
BRANCH   3   4
HETATM    4  C   UNL     1     -16.499  -9.707  -3.358  1.00  0.00     0.259 C 
HETATM    5  O   UNL     1     -15.582 -10.187  -2.700  1.00  0.00    -0.265 OA
BRANCH   4   6
HETATM    6  C   UNL     1     -16.485  -9.746  -4.873  1.00  0.00     0.116 C 
BRANCH   6   7
HETATM    7  C   UNL     1     -15.263 -10.430  -5.426  1.00  0.00     0.048 C 
BRANCH   7   8
HETATM    8  C   UNL     1     -15.569 -11.803  -5.981  1.00  0.00    -0.056 C 
HETATM    9  C   UNL     1     -14.592 -13.297  -5.588  1.00  0.00     0.018 C 
HETATM   10  C   UNL     1     -15.325 -14.971  -6.006  1.00  0.00    -0.016 C 
HETATM   11  C   UNL     1     -16.981 -15.013  -6.744  1.00  0.00     0.079 C 
HETATM   12  C   UNL     1     -17.936 -13.493  -6.995  1.00  0.00    -0.016 C 
HETATM   13  C   UNL     1     -17.179 -11.915  -6.702  1.00  0.00     0.018 C 
BRANCH  10  14
HETATM   14  C   UNL     1     -14.437 -16.172  -6.114  1.00  0.00    -0.021 C 
HETATM   15  C   UNL     1     -13.001 -15.771  -5.734  1.00  0.00     0.019 C 
HETATM   16  C   UNL     1     -14.575 -16.827  -7.514  1.00  0.00     0.019 C 
HETATM   17  C   UNL     1     -14.976 -17.144  -5.075  1.00  0.00     0.019 C 
ENDBRANCH  10  14
BRANCH  11  18
HETATM   18  O   UNL     1     -17.411 -16.151  -7.360  1.00  0.00    -0.360 OA
HETATM   19  H   UNL     1     -16.784 -16.272  -8.100  1.00  0.00     0.217 HD
ENDBRANCH  11  18
BRANCH  12  20
HETATM   20  C   UNL     1     -19.353 -13.469  -7.566  1.00  0.00    -0.021 C 
HETATM   21  C   UNL     1     -19.955 -14.831  -7.182  1.00  0.00     0.019 C 
HETATM   22  C   UNL     1     -20.002 -12.181  -7.044  1.00  0.00     0.019 C 
HETATM   23  C   UNL     1     -19.502 -13.398  -9.108  1.00  0.00     0.019 C 
ENDBRANCH  12  20
ENDBRANCH   7   8
ENDBRANCH   6   7
ENDBRANCH   4   6
ENDBRANCH   3   4
ENDBRANCH   2   3
ENDBRANCH   1   2
BRANCH   1  24
HETATM   24  C   UNL     1     -19.948 -11.085  -2.193  1.00  0.00     0.195 C 
BRANCH  24  25
HETATM   25  O   UNL     1     -18.940 -11.230  -1.286  1.00  0.00    -0.320 OA
BRANCH  25  26
HETATM   26  C   UNL     1     -19.304 -11.911  -0.159  1.00  0.00     0.259 C 
HETATM   27  O   UNL     1     -20.319 -12.544   0.078  1.00  0.00    -0.265 OA
BRANCH  26  28
HETATM   28  C   UNL     1     -18.075 -11.927   0.640  1.00  0.00     0.116 C 
BRANCH  28  29
HETATM   29  C   UNL     1     -16.959 -11.986  -0.396  1.00  0.00     0.048 C 
BRANCH  29  30
HETATM   30  C   UNL     1     -16.077 -13.102  -0.065  1.00  0.00    -0.056 A 
HETATM   31  C   UNL     1     -15.010 -13.415  -0.894  1.00  0.00     0.018 A 
HETATM   32  C   UNL     1     -14.155 -14.466  -0.589  1.00  0.00    -0.016 A 
HETATM   33  C   UNL     1     -14.485 -15.204   0.585  1.00  0.00     0.079 A 
HETATM   34  C   UNL     1     -15.628 -14.936   1.392  1.00  0.00    -0.016 A 
HETATM   35  C   UNL     1     -16.388 -13.838   1.051  1.00  0.00     0.018 A 
BRANCH  32  36
HETATM   36  C   UNL     1     -12.933 -14.699  -1.505  1.00  0.00    -0.021 C 
HETATM   37  C   UNL     1     -11.561 -14.590  -0.765  1.00  0.00     0.019 C 
HETATM   38  C   UNL     1     -12.981 -16.123  -2.094  1.00  0.00     0.019 C 
HETATM   39  C   UNL     1     -12.858 -13.645  -2.629  1.00  0.00     0.019 C 
ENDBRANCH  32  36
BRANCH  33  40
HETATM   40  O   UNL     1     -13.672 -16.200   1.037  1.00  0.00    -0.360 OA
HETATM   41  H   UNL     1     -14.190 -16.987   1.224  1.00  0.00     0.217 HD
ENDBRANCH  33  40
BRANCH  34  42
HETATM   42  C   UNL     1     -16.060 -15.699   2.653  1.00  0.00    -0.021 C 
HETATM   43  C   UNL     1     -17.598 -15.682   2.696  1.00  0.00     0.019 C 
HETATM   44  C   UNL     1     -15.580 -17.183   2.632  1.00  0.00     0.019 C 
HETATM   45  C   UNL     1     -15.494 -15.118   3.958  1.00  0.00     0.019 C 
ENDBRANCH  34  42
ENDBRANCH  29  30
ENDBRANCH  28  29
ENDBRANCH  26  28
ENDBRANCH  25  26
ENDBRANCH  24  25
ENDBRANCH   1  24
BRANCH   1  46
HETATM   46  C   UNL     1     -20.573  -8.724  -1.592  1.00  0.00     0.195 C 
BRANCH  46  47
HETATM   47  O   UNL     1     -21.921  -9.061  -1.222  1.00  0.00    -0.320 OA
BRANCH  47  48
HETATM   48  C   UNL     1     -22.123  -9.252   0.110  1.00  0.00     0.259 C 
HETATM   49  O   UNL     1     -21.586  -8.581   0.982  1.00  0.00    -0.265 OA
BRANCH  48  50
HETATM   50  C   UNL     1     -23.303 -10.161   0.361  1.00  0.00     0.116 C 
BRANCH  50  51
HETATM   51  C   UNL     1     -23.874 -10.751  -0.918  1.00  0.00     0.048 C 
BRANCH  51  52
HETATM   52  C   UNL     1     -23.642 -12.237  -1.033  1.00  0.00    -0.056 A 
HETATM   53  C   UNL     1     -23.357 -12.849  -2.260  1.00  0.00     0.018 A 
HETATM   54  C   UNL     1     -23.103 -14.236  -2.380  1.00  0.00    -0.016 A 
HETATM   55  C   UNL     1     -23.137 -14.979  -1.168  1.00  0.00     0.079 A 
HETATM   56  C   UNL     1     -23.346 -14.377   0.104  1.00  0.00    -0.016 A 
HETATM   57  C   UNL     1     -23.643 -13.008   0.125  1.00  0.00     0.018 A 
BRANCH  54  58
HETATM   58  C   UNL     1     -22.723 -14.827  -3.768  1.00  0.00    -0.021 C 
HETATM   59  C   UNL     1     -23.821 -15.761  -4.355  1.00  0.00     0.019 C 
HETATM   60  C   UNL     1     -22.545 -13.683  -4.794  1.00  0.00     0.019 C 
HETATM   61  C   UNL     1     -21.444 -15.699  -3.735  1.00  0.00     0.019 C 
ENDBRANCH  54  58
BRANCH  55  62
HETATM   62  O   UNL     1     -22.966 -16.337  -1.145  1.00  0.00    -0.360 OA
HETATM   63  H   UNL     1     -23.760 -16.779  -0.830  1.00  0.00     0.217 HD
ENDBRANCH  55  62
BRANCH  56  64
HETATM   64  C   UNL     1     -23.208 -15.151   1.440  1.00  0.00    -0.021 C 
HETATM   65  C   UNL     1     -21.780 -15.725   1.604  1.00  0.00     0.019 C 
HETATM   66  C   UNL     1     -23.427 -14.260   2.695  1.00  0.00     0.019 C 
HETATM   67  C   UNL     1     -24.255 -16.280   1.520  1.00  0.00     0.019 C 
ENDBRANCH  56  64
ENDBRANCH  51  52
ENDBRANCH  50  51
ENDBRANCH  48  50
ENDBRANCH  47  48
ENDBRANCH  46  47
ENDBRANCH   1  46
BRANCH   1  68
HETATM   68  C   UNL     1     -21.223  -9.796  -3.646  1.00  0.00     0.195 C 
BRANCH  68  69
HETATM   69  O   UNL     1     -21.444  -8.493  -4.272  1.00  0.00    -0.320 OA
BRANCH  69  70
HETATM   70  C   UNL     1     -21.635  -7.475  -5.313  1.00  0.00     0.259 C 
HETATM   71  O   UNL     1     -20.760  -7.647  -6.175  1.00  0.00    -0.265 OA
BRANCH  70  72
HETATM   72  C   UNL     1     -23.489  -6.343  -5.312  1.00  0.00     0.116 C 
BRANCH  72  73
HETATM   73  C   UNL     1     -23.914  -4.890  -6.159  1.00  0.00     0.048 C 
BRANCH  73  74
HETATM   74  C   UNL     1     -23.025  -4.557  -7.251  1.00  0.00    -0.056 A 
HETATM   75  C   UNL     1     -23.527  -4.244  -8.473  1.00  0.00     0.018 A 
HETATM   76  C   UNL     1     -22.711  -4.075  -9.553  1.00  0.00    -0.016 A 
HETATM   77  C   UNL     1     -21.316  -4.138  -9.286  1.00  0.00     0.079 A 
HETATM   78  C   UNL     1     -20.780  -4.461  -8.007  1.00  0.00    -0.016 A 
HETATM   79  C   UNL     1     -21.685  -4.660  -6.997  1.00  0.00     0.018 A 
BRANCH  76  80
HETATM   80  C   UNL     1     -23.461  -3.738 -10.846  1.00  0.00    -0.021 C 
HETATM   81  C   UNL     1     -23.597  -4.923 -11.867  1.00  0.00     0.019 C 
HETATM   82  C   UNL     1     -24.892  -3.400 -10.426  1.00  0.00     0.019 C 
HETATM   83  C   UNL     1     -22.732  -2.651 -11.641  1.00  0.00     0.019 C 
ENDBRANCH  76  80
BRANCH  77  84
HETATM   84  O   UNL     1     -20.426  -3.800 -10.262  1.00  0.00    -0.360 OA
HETATM   85  H   UNL     1     -19.602  -3.523  -9.846  1.00  0.00     0.217 HD
ENDBRANCH  77  84
BRANCH  78  86
HETATM   86  C   UNL     1     -19.323  -4.489  -7.540  1.00  0.00    -0.021 C 
HETATM   87  C   UNL     1     -19.377  -4.448  -5.998  1.00  0.00     0.019 C 
HETATM   88  C   UNL     1     -18.565  -5.791  -7.970  1.00  0.00     0.019 C 
HETATM   89  C   UNL     1     -18.507  -3.329  -8.100  1.00  0.00     0.019 C 
ENDBRANCH  78  86
ENDBRANCH  73  74
ENDBRANCH  72  73
ENDBRANCH  70  72
ENDBRANCH  69  70
ENDBRANCH  68  69
ENDBRANCH   1  68
TORSDOF 36
ENDMDL
MODEL 9
REMARK VINA RESULT:      -7.5      1.547      5.847
REMARK WARNING: 32 MAX_TORS EXCEEDED!!!
REMARK  36 active torsions:
REMARK  status: ('A' for Active; 'I' for Inactive)
REMARK    1  A    between atoms: C_2  and  C_5 
REMARK    2  A    between atoms: C_7  and  C_16 
REMARK    3  A    between atoms: C_9  and  C_12 
REMARK    4  A    between atoms: C_10  and  O_11 
REMARK    5  A    between atoms: C_16  and  C_17 
REMARK    6  A    between atoms: C_17  and  C_18 
REMARK    7  A    between atoms: C_18  and  O_20 
REMARK    8  A    between atoms: O_20  and  C_21 
REMARK    9  A    between atoms: C_21  and  C_22 
REMARK   10  A    between atoms: C_22  and  C_23 
REMARK   11  A    between atoms: C_22  and  C_44 
REMARK   12  A    between atoms: C_22  and  C_65 
REMARK   13  A    between atoms: C_23  and  O_24 
REMARK   14  A    between atoms: O_24  and  C_25 
REMARK   15  A    between atoms: C_25  and  C_27 
REMARK   16  A    between atoms: C_27  and  C_28 
REMARK   17  A    between atoms: C_28  and  C_29 
REMARK   18  A    between atoms: C_31  and  C_40 
REMARK   19  A    between atoms: C_32  and  O_39 
REMARK   20  A    between atoms: C_33  and  C_35 
REMARK   21  A    between atoms: C_44  and  O_45 
REMARK   22  A    between atoms: O_45  and  C_46 
REMARK   23  A    between atoms: C_46  and  C_48 
REMARK   24  A    between atoms: C_48  and  C_49 
REMARK   25  A    between atoms: C_49  and  C_50 
REMARK   26  A    between atoms: C_52  and  C_61 
REMARK   27  A    between atoms: C_53  and  O_60 
REMARK   28  A    between atoms: C_54  and  C_56 
REMARK   29  A    between atoms: C_65  and  O_66 
REMARK   30  A    between atoms: O_66  and  C_67 
REMARK   31  A    between atoms: C_67  and  C_69 
REMARK   32  A    between atoms: C_69  and  C_70 
REMARK   33  A    between atoms: C_70  and  C_71 
REMARK   34  A    between atoms: C_73  and  C_82 
REMARK   35  A    between atoms: C_74  and  O_81 
REMARK   36  A    between atoms: C_75  and  C_77 
ROOT
HETATM    1  C   UNL     1     -20.099  -9.761  -3.297  1.00  0.00     0.048 C 
ENDROOT
BRANCH   1   2
HETATM    2  C   UNL     1     -18.674 -10.435  -3.279  1.00  0.00     0.195 C 
BRANCH   2   3
HETATM    3  O   UNL     1     -18.165 -10.927  -2.022  1.00  0.00    -0.320 OA
BRANCH   3   4
HETATM    4  C   UNL     1     -16.817 -11.132  -1.887  1.00  0.00     0.259 C 
HETATM    5  O   UNL     1     -15.944 -10.439  -2.399  1.00  0.00    -0.265 OA
BRANCH   4   6
HETATM    6  C   UNL     1     -16.470 -12.371  -1.087  1.00  0.00     0.116 C 
BRANCH   6   7
HETATM    7  C   UNL     1     -16.739 -12.207   0.385  1.00  0.00     0.048 C 
BRANCH   7   8
HETATM    8  C   UNL     1     -15.797 -13.024   1.241  1.00  0.00    -0.056 C 
HETATM    9  C   UNL     1     -16.355 -14.195   2.529  1.00  0.00     0.018 C 
HETATM   10  C   UNL     1     -15.113 -15.425   3.207  1.00  0.00    -0.016 C 
HETATM   11  C   UNL     1     -13.436 -15.407   2.517  1.00  0.00     0.079 C 
HETATM   12  C   UNL     1     -12.992 -14.294   1.157  1.00  0.00    -0.016 C 
HETATM   13  C   UNL     1     -14.145 -13.060   0.613  1.00  0.00     0.018 C 
BRANCH  10  14
HETATM   14  C   UNL     1     -15.364 -16.096   4.522  1.00  0.00    -0.021 C 
HETATM   15  C   UNL     1     -16.756 -16.752   4.494  1.00  0.00     0.019 C 
HETATM   16  C   UNL     1     -15.144 -15.101   5.691  1.00  0.00     0.019 C 
HETATM   17  C   UNL     1     -14.301 -17.181   4.609  1.00  0.00     0.019 C 
ENDBRANCH  10  14
BRANCH  11  18
HETATM   18  O   UNL     1     -12.428 -16.034   3.188  1.00  0.00    -0.360 OA
HETATM   19  H   UNL     1     -12.666 -15.923   4.130  1.00  0.00     0.217 HD
ENDBRANCH  11  18
BRANCH  12  20
HETATM   20  C   UNL     1     -11.611 -14.266   0.502  1.00  0.00    -0.021 C 
HETATM   21  C   UNL     1     -11.893 -14.307  -1.009  1.00  0.00     0.019 C 
HETATM   22  C   UNL     1     -10.879 -13.059   1.102  1.00  0.00     0.019 C 
HETATM   23  C   UNL     1     -10.673 -15.474   0.757  1.00  0.00     0.019 C 
ENDBRANCH  12  20
ENDBRANCH   7   8
ENDBRANCH   6   7
ENDBRANCH   4   6
ENDBRANCH   3   4
ENDBRANCH   2   3
ENDBRANCH   1   2
BRANCH   1  24
HETATM   24  C   UNL     1     -21.177 -10.574  -3.971  1.00  0.00     0.195 C 
BRANCH  24  25
HETATM   25  O   UNL     1     -20.733 -11.782  -4.425  1.00  0.00    -0.320 OA
BRANCH  25  26
HETATM   26  C   UNL     1     -20.829 -11.932  -5.780  1.00  0.00     0.259 C 
HETATM   27  O   UNL     1     -21.129 -11.119  -6.637  1.00  0.00    -0.265 OA
BRANCH  26  28
HETATM   28  C   UNL     1     -20.242 -13.253  -6.018  1.00  0.00     0.116 C 
BRANCH  28  29
HETATM   29  C   UNL     1     -18.829 -12.949  -6.502  1.00  0.00     0.048 C 
BRANCH  29  30
HETATM   30  C   UNL     1     -17.878 -13.521  -5.552  1.00  0.00    -0.056 A 
HETATM   31  C   UNL     1     -18.336 -14.240  -4.458  1.00  0.00     0.018 A 
HETATM   32  C   UNL     1     -17.446 -14.800  -3.551  1.00  0.00    -0.016 A 
HETATM   33  C   UNL     1     -16.067 -14.539  -3.803  1.00  0.00     0.079 A 
HETATM   34  C   UNL     1     -15.600 -13.731  -4.879  1.00  0.00    -0.016 A 
HETATM   35  C   UNL     1     -16.547 -13.265  -5.766  1.00  0.00     0.018 A 
BRANCH  32  36
HETATM   36  C   UNL     1     -18.020 -15.668  -2.409  1.00  0.00    -0.021 C 
HETATM   37  C   UNL     1     -19.235 -15.016  -1.673  1.00  0.00     0.019 C 
HETATM   38  C   UNL     1     -18.539 -17.005  -2.974  1.00  0.00     0.019 C 
HETATM   39  C   UNL     1     -16.974 -15.911  -1.302  1.00  0.00     0.019 C 
ENDBRANCH  32  36
BRANCH  33  40
HETATM   40  O   UNL     1     -15.095 -15.108  -3.037  1.00  0.00    -0.360 OA
HETATM   41  H   UNL     1     -14.435 -15.522  -3.599  1.00  0.00     0.217 HD
ENDBRANCH  33  40
BRANCH  34  42
HETATM   42  C   UNL     1     -14.138 -13.387  -5.201  1.00  0.00    -0.021 C 
HETATM   43  C   UNL     1     -14.150 -12.349  -6.337  1.00  0.00     0.019 C 
HETATM   44  C   UNL     1     -13.398 -12.773  -3.973  1.00  0.00     0.019 C 
HETATM   45  C   UNL     1     -13.288 -14.599  -5.611  1.00  0.00     0.019 C 
ENDBRANCH  34  42
ENDBRANCH  29  30
ENDBRANCH  28  29
ENDBRANCH  26  28
ENDBRANCH  25  26
ENDBRANCH  24  25
ENDBRANCH   1  24
BRANCH   1  46
HETATM   46  C   UNL     1     -20.568  -9.242  -1.927  1.00  0.00     0.195 C 
BRANCH  46  47
HETATM   47  O   UNL     1     -21.763  -9.935  -1.529  1.00  0.00    -0.320 OA
BRANCH  47  48
HETATM   48  C   UNL     1     -21.809 -10.300  -0.219  1.00  0.00     0.259 C 
HETATM   49  O   UNL     1     -20.818 -10.409   0.491  1.00  0.00    -0.265 OA
BRANCH  48  50
HETATM   50  C   UNL     1     -23.221 -10.247   0.316  1.00  0.00     0.116 C 
BRANCH  50  51
HETATM   51  C   UNL     1     -24.164 -11.186  -0.418  1.00  0.00     0.048 C 
BRANCH  51  52
HETATM   52  C   UNL     1     -23.745 -12.632  -0.322  1.00  0.00    -0.056 A 
HETATM   53  C   UNL     1     -23.551 -13.266   0.912  1.00  0.00     0.018 A 
HETATM   54  C   UNL     1     -23.193 -14.630   1.020  1.00  0.00    -0.016 A 
HETATM   55  C   UNL     1     -23.054 -15.334  -0.208  1.00  0.00     0.079 A 
HETATM   56  C   UNL     1     -23.319 -14.742  -1.474  1.00  0.00    -0.016 A 
HETATM   57  C   UNL     1     -23.616 -13.373  -1.492  1.00  0.00     0.018 A 
BRANCH  54  58
HETATM   58  C   UNL     1     -23.067 -15.279   2.429  1.00  0.00    -0.021 C 
HETATM   59  C   UNL     1     -22.036 -14.557   3.344  1.00  0.00     0.019 C 
HETATM   60  C   UNL     1     -24.424 -15.193   3.168  1.00  0.00     0.019 C 
HETATM   61  C   UNL     1     -22.590 -16.751   2.387  1.00  0.00     0.019 C 
ENDBRANCH  54  58
BRANCH  55  62
HETATM   62  O   UNL     1     -22.655 -16.643  -0.253  1.00  0.00    -0.360 OA
HETATM   63  H   UNL     1     -23.112 -17.166   0.412  1.00  0.00     0.217 HD
ENDBRANCH  55  62
BRANCH  56  64
HETATM   64  C   UNL     1     -23.342 -15.548  -2.797  1.00  0.00    -0.021 C 
HETATM   65  C   UNL     1     -23.050 -14.633  -4.011  1.00  0.00     0.019 C 
HETATM   66  C   UNL     1     -22.257 -16.660  -2.863  1.00  0.00     0.019 C 
HETATM   67  C   UNL     1     -24.701 -16.257  -2.973  1.00  0.00     0.019 C 
ENDBRANCH  56  64
ENDBRANCH  51  52
ENDBRANCH  50  51
ENDBRANCH  48  50
ENDBRANCH  47  48
ENDBRANCH  46  47
ENDBRANCH   1  46
BRANCH   1  68
HETATM   68  C   UNL     1     -20.022  -8.569  -4.172  1.00  0.00     0.195 C 
BRANCH  68  69
HETATM   69  O   UNL     1     -21.038  -7.613  -3.734  1.00  0.00    -0.320 OA
BRANCH  69  70
HETATM   70  C   UNL     1     -21.870  -6.403  -3.692  1.00  0.00     0.259 C 
HETATM   71  O   UNL     1     -21.233  -5.527  -3.088  1.00  0.00    -0.265 OA
BRANCH  70  72
HETATM   72  C   UNL     1     -23.626  -6.322  -4.968  1.00  0.00     0.116 C 
BRANCH  72  73
HETATM   73  C   UNL     1     -24.078  -5.163  -6.177  1.00  0.00     0.048 C 
BRANCH  73  74
HETATM   74  C   UNL     1     -23.050  -4.898  -7.161  1.00  0.00    -0.056 A 
HETATM   75  C   UNL     1     -21.738  -5.004  -6.827  1.00  0.00     0.018 A 
HETATM   76  C   UNL     1     -20.754  -4.615  -7.688  1.00  0.00    -0.016 A 
HETATM   77  C   UNL     1     -21.190  -4.202  -8.976  1.00  0.00     0.079 A 
HETATM   78  C   UNL     1     -22.564  -4.091  -9.337  1.00  0.00    -0.016 A 
HETATM   79  C   UNL     1     -23.478  -4.462  -8.384  1.00  0.00     0.018 A 
BRANCH  76  80
HETATM   80  C   UNL     1     -19.339  -4.801  -7.131  1.00  0.00    -0.021 C 
HETATM   81  C   UNL     1     -19.156  -4.397  -5.624  1.00  0.00     0.019 C 
HETATM   82  C   UNL     1     -19.060  -6.303  -7.183  1.00  0.00     0.019 C 
HETATM   83  C   UNL     1     -18.332  -3.916  -7.872  1.00  0.00     0.019 C 
ENDBRANCH  76  80
BRANCH  77  84
HETATM   84  O   UNL     1     -20.274  -3.972  -9.959  1.00  0.00    -0.360 OA
HETATM   85  H   UNL     1     -19.591  -4.651  -9.911  1.00  0.00     0.217 HD
ENDBRANCH  77  84
BRANCH  78  86
HETATM   86  C   UNL     1     -23.192  -3.747 -10.688  1.00  0.00    -0.021 C 
HETATM   87  C   UNL     1     -23.209  -5.065 -11.491  1.00  0.00     0.019 C 
HETATM   88  C   UNL     1     -24.666  -3.228 -10.567  1.00  0.00     0.019 C 
HETATM   89  C   UNL     1     -22.427  -2.654 -11.427  1.00  0.00     0.019 C 
ENDBRANCH  78  86
ENDBRANCH  73  74
ENDBRANCH  72  73
ENDBRANCH  70  72
ENDBRANCH  69  70
ENDBRANCH  68  69
ENDBRANCH   1  68
TORSDOF 36
ENDMDL
