MODEL 1
REMARK VINA RESULT:      -6.6      0.000      0.000
REMARK  14 active torsions:
REMARK  status: ('A' for Active; 'I' for Inactive)
REMARK    1  A    between atoms: C_2  and  C_3 
REMARK    2  A    between atoms: C_3  and  C_4 
REMARK    3  A    between atoms: C_4  and  C_5 
REMARK    4  A    between atoms: C_5  and  C_6 
REMARK    5  A    between atoms: C_6  and  C_7 
REMARK    6  A    between atoms: C_7  and  C_8 
REMARK    7  A    between atoms: C_8  and  C_9 
REMARK    8  A    between atoms: C_9  and  C_10 
REMARK    9  A    between atoms: C_10  and  C_11 
REMARK   10  A    between atoms: C_11  and  C_12 
REMARK   11  A    between atoms: C_12  and  C_13 
REMARK   12  A    between atoms: C_13  and  O_14 
REMARK   13  A    between atoms: O_14  and  C_15 
REMARK   14  A    between atoms: C_15  and  C_17 
ROOT
HETATM    1  C   UNL     1     -20.119  -4.822  -5.773  1.00  0.00     0.000 C 
ENDROOT
BRANCH   1   2
HETATM    2  C   UNL     1     -20.110  -6.337  -5.918  1.00  0.00     0.000 C 
BRANCH   2   3
HETATM    3  C   UNL     1     -21.226  -6.952  -5.102  1.00  0.00     0.000 C 
BRANCH   3   4
HETATM    4  C   UNL     1     -20.677  -8.090  -4.260  1.00  0.00     0.000 C 
BRANCH   4   5
HETATM    5  C   UNL     1     -21.161  -7.949  -2.829  1.00  0.00     0.000 C 
BRANCH   5   6
HETATM    6  C   UNL     1     -21.876  -6.622  -2.653  1.00  0.00     0.000 C 
BRANCH   6   7
HETATM    7  C   UNL     1     -22.278  -6.441  -1.201  1.00  0.00     0.000 C 
BRANCH   7   8
HETATM    8  C   UNL     1     -21.868  -7.658  -0.392  1.00  0.00    -0.000 C 
BRANCH   8   9
HETATM    9  C   UNL     1     -23.073  -8.251   0.320  1.00  0.00    -0.005 C 
HETATM   10  C   UNL     1     -23.291  -9.683  -0.123  1.00  0.00     0.005 C 
ENDBRANCH   8   9
ENDBRANCH   7   8
ENDBRANCH   6   7
ENDBRANCH   5   6
ENDBRANCH   4   5
ENDBRANCH   3   4
ENDBRANCH   2   3
ENDBRANCH   1   2
BRANCH   1  11
HETATM   11  C   UNL     1     -20.599  -4.159  -7.056  1.00  0.00     0.002 C 
BRANCH  11  12
HETATM   12  C   UNL     1     -20.011  -4.853  -8.285  1.00  0.00     0.027 C 
BRANCH  12  13
HETATM   13  C   UNL     1     -20.375  -4.126  -9.566  1.00  0.00     0.178 C 
BRANCH  13  14
HETATM   14  O   UNL     1     -21.792  -3.856  -9.625  1.00  0.00    -0.321 OA
BRANCH  14  15
HETATM   15  C   UNL     1     -22.215  -3.345 -10.817  1.00  0.00     0.266 C 
HETATM   16  O   UNL     1     -21.503  -2.663 -11.564  1.00  0.00    -0.264 OA
BRANCH  15  17
HETATM   17  C   UNL     1     -23.664  -3.717 -11.138  1.00  0.00     0.037 C 
HETATM   18  C   UNL     1     -24.168  -2.915 -12.341  1.00  0.00     0.025 C 
HETATM   19  C   UNL     1     -23.767  -5.218 -11.466  1.00  0.00     0.025 C 
HETATM   20  C   UNL     1     -24.558  -3.426  -9.929  1.00  0.00     0.025 C 
ENDBRANCH  15  17
ENDBRANCH  14  15
ENDBRANCH  13  14
ENDBRANCH  12  13
ENDBRANCH  11  12
ENDBRANCH   1  11
TORSDOF 14
ENDMDL
MODEL 2
REMARK VINA RESULT:      -6.5      1.241      1.846
REMARK  14 active torsions:
REMARK  status: ('A' for Active; 'I' for Inactive)
REMARK    1  A    between atoms: C_2  and  C_3 
REMARK    2  A    between atoms: C_3  and  C_4 
REMARK    3  A    between atoms: C_4  and  C_5 
REMARK    4  A    between atoms: C_5  and  C_6 
REMARK    5  A    between atoms: C_6  and  C_7 
REMARK    6  A    between atoms: C_7  and  C_8 
REMARK    7  A    between atoms: C_8  and  C_9 
REMARK    8  A    between atoms: C_9  and  C_10 
REMARK    9  A    between atoms: C_10  and  C_11 
REMARK   10  A    between atoms: C_11  and  C_12 
REMARK   11  A    between atoms: C_12  and  C_13 
REMARK   12  A    between atoms: C_13  and  O_14 
REMARK   13  A    between atoms: O_14  and  C_15 
REMARK   14  A    between atoms: C_15  and  C_17 
ROOT
HETATM    1  C   UNL     1     -20.149  -5.386  -6.354  1.00  0.00     0.000 C 
ENDROOT
BRANCH   1   2
HETATM    2  C   UNL     1     -20.150  -6.740  -5.657  1.00  0.00     0.000 C 
BRANCH   2   3
HETATM    3  C   UNL     1     -21.555  -7.123  -5.249  1.00  0.00     0.000 C 
BRANCH   3   4
HETATM    4  C   UNL     1     -21.940  -6.383  -3.980  1.00  0.00     0.000 C 
BRANCH   4   5
HETATM    5  C   UNL     1     -21.315  -7.066  -2.779  1.00  0.00     0.000 C 
BRANCH   5   6
HETATM    6  C   UNL     1     -22.111  -6.743  -1.528  1.00  0.00     0.000 C 
BRANCH   6   7
HETATM    7  C   UNL     1     -21.782  -7.742  -0.434  1.00  0.00     0.000 C 
BRANCH   7   8
HETATM    8  C   UNL     1     -23.060  -8.247   0.211  1.00  0.00    -0.000 C 
BRANCH   8   9
HETATM    9  C   UNL     1     -23.142  -9.761   0.106  1.00  0.00    -0.005 C 
HETATM   10  C   UNL     1     -22.767 -10.210  -1.291  1.00  0.00     0.005 C 
ENDBRANCH   8   9
ENDBRANCH   7   8
ENDBRANCH   6   7
ENDBRANCH   5   6
ENDBRANCH   4   5
ENDBRANCH   3   4
ENDBRANCH   2   3
ENDBRANCH   1   2
BRANCH   1  11
HETATM   11  C   UNL     1     -20.852  -5.471  -7.701  1.00  0.00     0.002 C 
BRANCH  11  12
HETATM   12  C   UNL     1     -21.229  -4.079  -8.210  1.00  0.00     0.027 C 
BRANCH  12  13
HETATM   13  C   UNL     1     -22.723  -3.833  -8.110  1.00  0.00     0.178 C 
BRANCH  13  14
HETATM   14  O   UNL     1     -23.427  -4.462  -9.202  1.00  0.00    -0.321 OA
BRANCH  14  15
HETATM   15  C   UNL     1     -24.087  -3.589 -10.018  1.00  0.00     0.266 C 
HETATM   16  O   UNL     1     -24.984  -2.832  -9.632  1.00  0.00    -0.264 OA
BRANCH  15  17
HETATM   17  C   UNL     1     -23.586  -3.640 -11.464  1.00  0.00     0.037 C 
HETATM   18  C   UNL     1     -24.614  -3.010 -12.408  1.00  0.00     0.025 C 
HETATM   19  C   UNL     1     -22.258  -2.871 -11.594  1.00  0.00     0.025 C 
HETATM   20  C   UNL     1     -23.344  -5.094 -11.881  1.00  0.00     0.025 C 
ENDBRANCH  15  17
ENDBRANCH  14  15
ENDBRANCH  13  14
ENDBRANCH  12  13
ENDBRANCH  11  12
ENDBRANCH   1  11
TORSDOF 14
ENDMDL
MODEL 3
REMARK VINA RESULT:      -6.4      3.342      9.357
REMARK  14 active torsions:
REMARK  status: ('A' for Active; 'I' for Inactive)
REMARK    1  A    between atoms: C_2  and  C_3 
REMARK    2  A    between atoms: C_3  and  C_4 
REMARK    3  A    between atoms: C_4  and  C_5 
REMARK    4  A    between atoms: C_5  and  C_6 
REMARK    5  A    between atoms: C_6  and  C_7 
REMARK    6  A    between atoms: C_7  and  C_8 
REMARK    7  A    between atoms: C_8  and  C_9 
REMARK    8  A    between atoms: C_9  and  C_10 
REMARK    9  A    between atoms: C_10  and  C_11 
REMARK   10  A    between atoms: C_11  and  C_12 
REMARK   11  A    between atoms: C_12  and  C_13 
REMARK   12  A    between atoms: C_13  and  O_14 
REMARK   13  A    between atoms: O_14  and  C_15 
REMARK   14  A    between atoms: C_15  and  C_17 
ROOT
HETATM    1  C   UNL     1     -20.329  -6.435  -5.939  1.00  0.00     0.000 C 
ENDROOT
BRANCH   1   2
HETATM    2  C   UNL     1     -21.058  -5.911  -7.168  1.00  0.00     0.000 C 
BRANCH   2   3
HETATM    3  C   UNL     1     -20.870  -4.415  -7.295  1.00  0.00     0.000 C 
BRANCH   3   4
HETATM    4  C   UNL     1     -19.714  -4.122  -8.235  1.00  0.00     0.000 C 
BRANCH   4   5
HETATM    5  C   UNL     1     -20.046  -4.622  -9.628  1.00  0.00     0.000 C 
BRANCH   5   6
HETATM    6  C   UNL     1     -21.050  -3.693 -10.285  1.00  0.00     0.000 C 
BRANCH   6   7
HETATM    7  C   UNL     1     -21.791  -4.430 -11.386  1.00  0.00     0.000 C 
BRANCH   7   8
HETATM    8  C   UNL     1     -23.185  -4.802 -10.915  1.00  0.00    -0.000 C 
BRANCH   8   9
HETATM    9  C   UNL     1     -23.550  -4.013  -9.668  1.00  0.00    -0.005 C 
HETATM   10  C   UNL     1     -24.871  -3.299  -9.869  1.00  0.00     0.005 C 
ENDBRANCH   8   9
ENDBRANCH   7   8
ENDBRANCH   6   7
ENDBRANCH   5   6
ENDBRANCH   4   5
ENDBRANCH   3   4
ENDBRANCH   2   3
ENDBRANCH   1   2
BRANCH   1  11
HETATM   11  C   UNL     1     -20.766  -5.685  -4.689  1.00  0.00     0.002 C 
BRANCH  11  12
HETATM   12  C   UNL     1     -21.703  -6.541  -3.836  1.00  0.00     0.027 C 
BRANCH  12  13
HETATM   13  C   UNL     1     -21.738  -6.065  -2.395  1.00  0.00     0.178 C 
BRANCH  13  14
HETATM   14  O   UNL     1     -22.359  -7.048  -1.540  1.00  0.00    -0.321 OA
BRANCH  14  15
HETATM   15  C   UNL     1     -21.492  -7.963  -1.017  1.00  0.00     0.266 C 
HETATM   16  O   UNL     1     -20.360  -8.173  -1.468  1.00  0.00    -0.264 OA
BRANCH  15  17
HETATM   17  C   UNL     1     -22.067  -8.693   0.199  1.00  0.00     0.037 C 
HETATM   18  C   UNL     1     -23.344  -8.000   0.683  1.00  0.00     0.025 C 
HETATM   19  C   UNL     1     -22.402 -10.151  -0.165  1.00  0.00     0.025 C 
HETATM   20  C   UNL     1     -21.040  -8.703   1.335  1.00  0.00     0.025 C 
ENDBRANCH  15  17
ENDBRANCH  14  15
ENDBRANCH  13  14
ENDBRANCH  12  13
ENDBRANCH  11  12
ENDBRANCH   1  11
TORSDOF 14
ENDMDL
MODEL 4
REMARK VINA RESULT:      -6.4      3.137      9.684
REMARK  14 active torsions:
REMARK  status: ('A' for Active; 'I' for Inactive)
REMARK    1  A    between atoms: C_2  and  C_3 
REMARK    2  A    between atoms: C_3  and  C_4 
REMARK    3  A    between atoms: C_4  and  C_5 
REMARK    4  A    between atoms: C_5  and  C_6 
REMARK    5  A    between atoms: C_6  and  C_7 
REMARK    6  A    between atoms: C_7  and  C_8 
REMARK    7  A    between atoms: C_8  and  C_9 
REMARK    8  A    between atoms: C_9  and  C_10 
REMARK    9  A    between atoms: C_10  and  C_11 
REMARK   10  A    between atoms: C_11  and  C_12 
REMARK   11  A    between atoms: C_12  and  C_13 
REMARK   12  A    between atoms: C_13  and  O_14 
REMARK   13  A    between atoms: O_14  and  C_15 
REMARK   14  A    between atoms: C_15  and  C_17 
ROOT
HETATM    1  C   UNL     1     -20.471  -5.214  -5.420  1.00  0.00     0.000 C 
ENDROOT
BRANCH   1   2
HETATM    2  C   UNL     1     -19.888  -4.614  -6.691  1.00  0.00     0.000 C 
BRANCH   2   3
HETATM    3  C   UNL     1     -20.988  -4.302  -7.681  1.00  0.00     0.000 C 
BRANCH   3   4
HETATM    4  C   UNL     1     -20.496  -4.565  -9.093  1.00  0.00     0.000 C 
BRANCH   4   5
HETATM    5  C   UNL     1     -21.589  -4.226 -10.088  1.00  0.00     0.000 C 
BRANCH   5   6
HETATM    6  C   UNL     1     -22.922  -4.110  -9.374  1.00  0.00     0.000 C 
BRANCH   6   7
HETATM    7  C   UNL     1     -23.976  -3.578 -10.329  1.00  0.00     0.000 C 
BRANCH   7   8
HETATM    8  C   UNL     1     -23.310  -2.877 -11.499  1.00  0.00    -0.000 C 
BRANCH   8   9
HETATM    9  C   UNL     1     -24.150  -3.034 -12.756  1.00  0.00    -0.005 C 
HETATM   10  C   UNL     1     -23.279  -2.897 -13.989  1.00  0.00     0.005 C 
ENDBRANCH   8   9
ENDBRANCH   7   8
ENDBRANCH   6   7
ENDBRANCH   5   6
ENDBRANCH   4   5
ENDBRANCH   3   4
ENDBRANCH   2   3
ENDBRANCH   1   2
BRANCH   1  11
HETATM   11  C   UNL     1     -20.916  -6.650  -5.653  1.00  0.00     0.002 C 
BRANCH  11  12
HETATM   12  C   UNL     1     -21.890  -7.106  -4.566  1.00  0.00     0.027 C 
BRANCH  12  13
HETATM   13  C   UNL     1     -21.606  -6.426  -3.240  1.00  0.00     0.178 C 
BRANCH  13  14
HETATM   14  O   UNL     1     -21.124  -7.374  -2.263  1.00  0.00    -0.321 OA
BRANCH  14  15
HETATM   15  C   UNL     1     -21.934  -7.514  -1.173  1.00  0.00     0.266 C 
HETATM   16  O   UNL     1     -22.779  -6.678  -0.833  1.00  0.00    -0.264 OA
BRANCH  15  17
HETATM   17  C   UNL     1     -21.693  -8.826  -0.424  1.00  0.00     0.037 C 
HETATM   18  C   UNL     1     -20.613  -9.653  -1.129  1.00  0.00     0.025 C 
HETATM   19  C   UNL     1     -21.233  -8.539   1.017  1.00  0.00     0.025 C 
HETATM   20  C   UNL     1     -22.989  -9.639  -0.364  1.00  0.00     0.025 C 
ENDBRANCH  15  17
ENDBRANCH  14  15
ENDBRANCH  13  14
ENDBRANCH  12  13
ENDBRANCH  11  12
ENDBRANCH   1  11
TORSDOF 14
ENDMDL
MODEL 5
REMARK VINA RESULT:      -6.4      3.380      9.658
REMARK  14 active torsions:
REMARK  status: ('A' for Active; 'I' for Inactive)
REMARK    1  A    between atoms: C_2  and  C_3 
REMARK    2  A    between atoms: C_3  and  C_4 
REMARK    3  A    between atoms: C_4  and  C_5 
REMARK    4  A    between atoms: C_5  and  C_6 
REMARK    5  A    between atoms: C_6  and  C_7 
REMARK    6  A    between atoms: C_7  and  C_8 
REMARK    7  A    between atoms: C_8  and  C_9 
REMARK    8  A    between atoms: C_9  and  C_10 
REMARK    9  A    between atoms: C_10  and  C_11 
REMARK   10  A    between atoms: C_11  and  C_12 
REMARK   11  A    between atoms: C_12  and  C_13 
REMARK   12  A    between atoms: C_13  and  O_14 
REMARK   13  A    between atoms: O_14  and  C_15 
REMARK   14  A    between atoms: C_15  and  C_17 
ROOT
HETATM    1  C   UNL     1     -21.379  -6.148  -5.525  1.00  0.00     0.000 C 
ENDROOT
BRANCH   1   2
HETATM    2  C   UNL     1     -20.298  -5.076  -5.508  1.00  0.00     0.000 C 
BRANCH   2   3
HETATM    3  C   UNL     1     -20.192  -4.412  -6.863  1.00  0.00     0.000 C 
BRANCH   3   4
HETATM    4  C   UNL     1     -21.524  -3.784  -7.232  1.00  0.00     0.000 C 
BRANCH   4   5
HETATM    5  C   UNL     1     -21.791  -3.981  -8.712  1.00  0.00     0.000 C 
BRANCH   5   6
HETATM    6  C   UNL     1     -20.484  -4.203  -9.449  1.00  0.00     0.000 C 
BRANCH   6   7
HETATM    7  C   UNL     1     -20.583  -3.644 -10.857  1.00  0.00     0.000 C 
BRANCH   7   8
HETATM    8  C   UNL     1     -21.737  -4.296 -11.596  1.00  0.00    -0.000 C 
BRANCH   8   9
HETATM    9  C   UNL     1     -22.349  -3.321 -12.588  1.00  0.00    -0.005 C 
HETATM   10  C   UNL     1     -23.705  -2.856 -12.098  1.00  0.00     0.005 C 
ENDBRANCH   8   9
ENDBRANCH   7   8
ENDBRANCH   6   7
ENDBRANCH   5   6
ENDBRANCH   4   5
ENDBRANCH   3   4
ENDBRANCH   2   3
ENDBRANCH   1   2
BRANCH   1  11
HETATM   11  C   UNL     1     -21.446  -6.871  -4.188  1.00  0.00     0.002 C 
BRANCH  11  12
HETATM   12  C   UNL     1     -20.378  -7.962  -4.101  1.00  0.00     0.027 C 
BRANCH  12  13
HETATM   13  C   UNL     1     -20.973  -9.295  -3.684  1.00  0.00     0.178 C 
BRANCH  13  14
HETATM   14  O   UNL     1     -21.862  -9.136  -2.558  1.00  0.00    -0.321 OA
BRANCH  14  15
HETATM   15  C   UNL     1     -21.255  -9.273  -1.343  1.00  0.00     0.266 C 
HETATM   16  O   UNL     1     -20.174  -9.850  -1.176  1.00  0.00    -0.264 OA
BRANCH  15  17
HETATM   17  C   UNL     1     -22.052  -8.624  -0.209  1.00  0.00     0.037 C 
HETATM   18  C   UNL     1     -23.341  -9.408   0.055  1.00  0.00     0.025 C 
HETATM   19  C   UNL     1     -21.215  -8.599   1.083  1.00  0.00     0.025 C 
HETATM   20  C   UNL     1     -22.408  -7.182  -0.581  1.00  0.00     0.025 C 
ENDBRANCH  15  17
ENDBRANCH  14  15
ENDBRANCH  13  14
ENDBRANCH  12  13
ENDBRANCH  11  12
ENDBRANCH   1  11
TORSDOF 14
ENDMDL
MODEL 6
REMARK VINA RESULT:      -6.4      1.363      2.273
REMARK  14 active torsions:
REMARK  status: ('A' for Active; 'I' for Inactive)
REMARK    1  A    between atoms: C_2  and  C_3 
REMARK    2  A    between atoms: C_3  and  C_4 
REMARK    3  A    between atoms: C_4  and  C_5 
REMARK    4  A    between atoms: C_5  and  C_6 
REMARK    5  A    between atoms: C_6  and  C_7 
REMARK    6  A    between atoms: C_7  and  C_8 
REMARK    7  A    between atoms: C_8  and  C_9 
REMARK    8  A    between atoms: C_9  and  C_10 
REMARK    9  A    between atoms: C_10  and  C_11 
REMARK   10  A    between atoms: C_11  and  C_12 
REMARK   11  A    between atoms: C_12  and  C_13 
REMARK   12  A    between atoms: C_13  and  O_14 
REMARK   13  A    between atoms: O_14  and  C_15 
REMARK   14  A    between atoms: C_15  and  C_17 
ROOT
HETATM    1  C   UNL     1     -19.976  -4.840  -7.826  1.00  0.00     0.000 C 
ENDROOT
BRANCH   1   2
HETATM    2  C   UNL     1     -20.460  -4.350  -6.469  1.00  0.00     0.000 C 
BRANCH   2   3
HETATM    3  C   UNL     1     -19.959  -5.260  -5.370  1.00  0.00     0.000 C 
BRANCH   3   4
HETATM    4  C   UNL     1     -20.747  -6.557  -5.380  1.00  0.00     0.000 C 
BRANCH   4   5
HETATM    5  C   UNL     1     -21.846  -6.498  -4.337  1.00  0.00     0.000 C 
BRANCH   5   6
HETATM    6  C   UNL     1     -21.748  -7.695  -3.411  1.00  0.00     0.000 C 
BRANCH   6   7
HETATM    7  C   UNL     1     -20.596  -7.504  -2.440  1.00  0.00     0.000 C 
BRANCH   7   8
HETATM    8  C   UNL     1     -21.010  -7.947  -1.049  1.00  0.00    -0.000 C 
BRANCH   8   9
HETATM    9  C   UNL     1     -22.334  -7.307  -0.662  1.00  0.00    -0.005 C 
HETATM   10  C   UNL     1     -23.034  -8.146   0.387  1.00  0.00     0.005 C 
ENDBRANCH   8   9
ENDBRANCH   7   8
ENDBRANCH   6   7
ENDBRANCH   5   6
ENDBRANCH   4   5
ENDBRANCH   3   4
ENDBRANCH   2   3
ENDBRANCH   1   2
BRANCH   1  11
HETATM   11  C   UNL     1     -21.026  -4.590  -8.899  1.00  0.00     0.002 C 
BRANCH  11  12
HETATM   12  C   UNL     1     -22.377  -5.177  -8.490  1.00  0.00     0.027 C 
BRANCH  12  13
HETATM   13  C   UNL     1     -23.437  -4.099  -8.352  1.00  0.00     0.178 C 
BRANCH  13  14
HETATM   14  O   UNL     1     -23.318  -3.118  -9.404  1.00  0.00    -0.321 OA
BRANCH  14  15
HETATM   15  C   UNL     1     -24.250  -3.243 -10.393  1.00  0.00     0.266 C 
HETATM   16  O   UNL     1     -25.470  -3.178 -10.201  1.00  0.00    -0.264 OA
BRANCH  15  17
HETATM   17  C   UNL     1     -23.621  -3.461 -11.772  1.00  0.00     0.037 C 
HETATM   18  C   UNL     1     -23.427  -4.956 -12.040  1.00  0.00     0.025 C 
HETATM   19  C   UNL     1     -24.528  -2.876 -12.869  1.00  0.00     0.025 C 
HETATM   20  C   UNL     1     -22.263  -2.757 -11.842  1.00  0.00     0.025 C 
ENDBRANCH  15  17
ENDBRANCH  14  15
ENDBRANCH  13  14
ENDBRANCH  12  13
ENDBRANCH  11  12
ENDBRANCH   1  11
TORSDOF 14
ENDMDL
MODEL 7
REMARK VINA RESULT:      -6.4      1.214      2.556
REMARK  14 active torsions:
REMARK  status: ('A' for Active; 'I' for Inactive)
REMARK    1  A    between atoms: C_2  and  C_3 
REMARK    2  A    between atoms: C_3  and  C_4 
REMARK    3  A    between atoms: C_4  and  C_5 
REMARK    4  A    between atoms: C_5  and  C_6 
REMARK    5  A    between atoms: C_6  and  C_7 
REMARK    6  A    between atoms: C_7  and  C_8 
REMARK    7  A    between atoms: C_8  and  C_9 
REMARK    8  A    between atoms: C_9  and  C_10 
REMARK    9  A    between atoms: C_10  and  C_11 
REMARK   10  A    between atoms: C_11  and  C_12 
REMARK   11  A    between atoms: C_12  and  C_13 
REMARK   12  A    between atoms: C_13  and  O_14 
REMARK   13  A    between atoms: O_14  and  C_15 
REMARK   14  A    between atoms: C_15  and  C_17 
ROOT
HETATM    1  C   UNL     1     -21.953  -6.326  -5.204  1.00  0.00     0.000 C 
ENDROOT
BRANCH   1   2
HETATM    2  C   UNL     1     -21.858  -7.277  -4.019  1.00  0.00     0.000 C 
BRANCH   2   3
HETATM    3  C   UNL     1     -21.527  -6.515  -2.755  1.00  0.00     0.000 C 
BRANCH   3   4
HETATM    4  C   UNL     1     -21.399  -7.481  -1.592  1.00  0.00     0.000 C 
BRANCH   4   5
HETATM    5  C   UNL     1     -22.498  -7.215  -0.581  1.00  0.00     0.000 C 
BRANCH   5   6
HETATM    6  C   UNL     1     -22.555  -8.345   0.430  1.00  0.00     0.000 C 
BRANCH   6   7
HETATM    7  C   UNL     1     -22.321  -9.674  -0.265  1.00  0.00     0.000 C 
BRANCH   7   8
HETATM    8  C   UNL     1     -23.641 -10.398  -0.458  1.00  0.00    -0.000 C 
BRANCH   8   9
HETATM    9  C   UNL     1     -23.616 -11.741   0.253  1.00  0.00    -0.005 C 
HETATM   10  C   UNL     1     -22.187 -12.168   0.516  1.00  0.00     0.005 C 
ENDBRANCH   8   9
ENDBRANCH   7   8
ENDBRANCH   6   7
ENDBRANCH   5   6
ENDBRANCH   4   5
ENDBRANCH   3   4
ENDBRANCH   2   3
ENDBRANCH   1   2
BRANCH   1  11
HETATM   11  C   UNL     1     -20.650  -5.564  -5.393  1.00  0.00     0.002 C 
BRANCH  11  12
HETATM   12  C   UNL     1     -20.783  -4.517  -6.499  1.00  0.00     0.027 C 
BRANCH  12  13
HETATM   13  C   UNL     1     -20.873  -5.161  -7.871  1.00  0.00     0.178 C 
BRANCH  13  14
HETATM   14  O   UNL     1     -22.073  -4.748  -8.559  1.00  0.00    -0.321 OA
BRANCH  14  15
HETATM   15  C   UNL     1     -21.847  -4.135  -9.758  1.00  0.00     0.266 C 
HETATM   16  O   UNL     1     -20.723  -3.831 -10.173  1.00  0.00    -0.264 OA
BRANCH  15  17
HETATM   17  C   UNL     1     -23.136  -3.877 -10.540  1.00  0.00     0.037 C 
HETATM   18  C   UNL     1     -23.598  -5.155 -11.247  1.00  0.00     0.025 C 
HETATM   19  C   UNL     1     -24.252  -3.408  -9.588  1.00  0.00     0.025 C 
HETATM   20  C   UNL     1     -22.902  -2.781 -11.584  1.00  0.00     0.025 C 
ENDBRANCH  15  17
ENDBRANCH  14  15
ENDBRANCH  13  14
ENDBRANCH  12  13
ENDBRANCH  11  12
ENDBRANCH   1  11
TORSDOF 14
ENDMDL
MODEL 8
REMARK VINA RESULT:      -6.3      3.537      9.466
REMARK  14 active torsions:
REMARK  status: ('A' for Active; 'I' for Inactive)
REMARK    1  A    between atoms: C_2  and  C_3 
REMARK    2  A    between atoms: C_3  and  C_4 
REMARK    3  A    between atoms: C_4  and  C_5 
REMARK    4  A    between atoms: C_5  and  C_6 
REMARK    5  A    between atoms: C_6  and  C_7 
REMARK    6  A    between atoms: C_7  and  C_8 
REMARK    7  A    between atoms: C_8  and  C_9 
REMARK    8  A    between atoms: C_9  and  C_10 
REMARK    9  A    between atoms: C_10  and  C_11 
REMARK   10  A    between atoms: C_11  and  C_12 
REMARK   11  A    between atoms: C_12  and  C_13 
REMARK   12  A    between atoms: C_13  and  O_14 
REMARK   13  A    between atoms: O_14  and  C_15 
REMARK   14  A    between atoms: C_15  and  C_17 
ROOT
HETATM    1  C   UNL     1     -21.988  -6.725  -4.592  1.00  0.00     0.000 C 
ENDROOT
BRANCH   1   2
HETATM    2  C   UNL     1     -21.667  -5.968  -5.873  1.00  0.00     0.000 C 
BRANCH   2   3
HETATM    3  C   UNL     1     -20.200  -6.107  -6.215  1.00  0.00     0.000 C 
BRANCH   3   4
HETATM    4  C   UNL     1     -19.644  -4.761  -6.645  1.00  0.00     0.000 C 
BRANCH   4   5
HETATM    5  C   UNL     1     -20.669  -4.029  -7.490  1.00  0.00     0.000 C 
BRANCH   5   6
HETATM    6  C   UNL     1     -20.472  -4.373  -8.954  1.00  0.00     0.000 C 
BRANCH   6   7
HETATM    7  C   UNL     1     -21.725  -4.027  -9.739  1.00  0.00     0.000 C 
BRANCH   7   8
HETATM    8  C   UNL     1     -22.927  -3.997  -8.812  1.00  0.00    -0.000 C 
BRANCH   8   9
HETATM    9  C   UNL     1     -24.214  -4.112  -9.612  1.00  0.00    -0.005 C 
HETATM   10  C   UNL     1     -24.072  -3.396 -10.940  1.00  0.00     0.005 C 
ENDBRANCH   8   9
ENDBRANCH   7   8
ENDBRANCH   6   7
ENDBRANCH   5   6
ENDBRANCH   4   5
ENDBRANCH   3   4
ENDBRANCH   2   3
ENDBRANCH   1   2
BRANCH   1  11
HETATM   11  C   UNL     1     -21.334  -6.059  -3.391  1.00  0.00     0.002 C 
BRANCH  11  12
HETATM   12  C   UNL     1     -22.158  -6.285  -2.123  1.00  0.00     0.027 C 
BRANCH  12  13
HETATM   13  C   UNL     1     -21.525  -7.331  -1.224  1.00  0.00     0.178 C 
BRANCH  13  14
HETATM   14  O   UNL     1     -22.061  -8.642  -1.496  1.00  0.00    -0.321 OA
BRANCH  14  15
HETATM   15  C   UNL     1     -22.736  -9.199  -0.449  1.00  0.00     0.266 C 
HETATM   16  O   UNL     1     -23.247  -8.543   0.466  1.00  0.00    -0.264 OA
BRANCH  15  17
HETATM   17  C   UNL     1     -22.805 -10.726  -0.536  1.00  0.00     0.037 C 
HETATM   18  C   UNL     1     -22.583 -11.189  -1.978  1.00  0.00     0.025 C 
HETATM   19  C   UNL     1     -21.723 -11.358   0.359  1.00  0.00     0.025 C 
HETATM   20  C   UNL     1     -24.174 -11.215  -0.055  1.00  0.00     0.025 C 
ENDBRANCH  15  17
ENDBRANCH  14  15
ENDBRANCH  13  14
ENDBRANCH  12  13
ENDBRANCH  11  12
ENDBRANCH   1  11
TORSDOF 14
ENDMDL
MODEL 9
REMARK VINA RESULT:      -6.1      2.382      4.533
REMARK  14 active torsions:
REMARK  status: ('A' for Active; 'I' for Inactive)
REMARK    1  A    between atoms: C_2  and  C_3 
REMARK    2  A    between atoms: C_3  and  C_4 
REMARK    3  A    between atoms: C_4  and  C_5 
REMARK    4  A    between atoms: C_5  and  C_6 
REMARK    5  A    between atoms: C_6  and  C_7 
REMARK    6  A    between atoms: C_7  and  C_8 
REMARK    7  A    between atoms: C_8  and  C_9 
REMARK    8  A    between atoms: C_9  and  C_10 
REMARK    9  A    between atoms: C_10  and  C_11 
REMARK   10  A    between atoms: C_11  and  C_12 
REMARK   11  A    between atoms: C_12  and  C_13 
REMARK   12  A    between atoms: C_13  and  O_14 
REMARK   13  A    between atoms: O_14  and  C_15 
REMARK   14  A    between atoms: C_15  and  C_17 
ROOT
HETATM    1  C   UNL     1     -20.937  -7.515  -2.912  1.00  0.00     0.000 C 
ENDROOT
BRANCH   1   2
HETATM    2  C   UNL     1     -21.862  -6.405  -2.436  1.00  0.00     0.000 C 
BRANCH   2   3
HETATM    3  C   UNL     1     -22.397  -6.718  -1.056  1.00  0.00     0.000 C 
BRANCH   3   4
HETATM    4  C   UNL     1     -21.577  -7.831  -0.429  1.00  0.00     0.000 C 
BRANCH   4   5
HETATM    5  C   UNL     1     -22.422  -8.586   0.578  1.00  0.00     0.000 C 
BRANCH   5   6
HETATM    6  C   UNL     1     -22.446 -10.062   0.232  1.00  0.00     0.000 C 
BRANCH   6   7
HETATM    7  C   UNL     1     -23.841 -10.468  -0.209  1.00  0.00     0.000 C 
BRANCH   7   8
HETATM    8  C   UNL     1     -23.762 -11.640  -1.170  1.00  0.00    -0.000 C 
BRANCH   8   9
HETATM    9  C   UNL     1     -23.192 -11.191  -2.506  1.00  0.00    -0.005 C 
HETATM   10  C   UNL     1     -21.892 -11.914  -2.790  1.00  0.00     0.005 C 
ENDBRANCH   8   9
ENDBRANCH   7   8
ENDBRANCH   6   7
ENDBRANCH   5   6
ENDBRANCH   4   5
ENDBRANCH   3   4
ENDBRANCH   2   3
ENDBRANCH   1   2
BRANCH   1  11
HETATM   11  C   UNL     1     -21.597  -8.337  -4.009  1.00  0.00     0.002 C 
BRANCH  11  12
HETATM   12  C   UNL     1     -20.671  -8.481  -5.218  1.00  0.00     0.027 C 
BRANCH  12  13
HETATM   13  C   UNL     1     -20.130  -7.137  -5.671  1.00  0.00     0.178 C 
BRANCH  13  14
HETATM   14  O   UNL     1     -20.752  -6.715  -6.903  1.00  0.00    -0.321 OA
BRANCH  14  15
HETATM   15  C   UNL     1     -21.583  -5.640  -6.770  1.00  0.00     0.266 C 
HETATM   16  O   UNL     1     -22.408  -5.518  -5.858  1.00  0.00    -0.264 OA
BRANCH  15  17
HETATM   17  C   UNL     1     -21.373  -4.594  -7.867  1.00  0.00     0.037 C 
HETATM   18  C   UNL     1     -22.549  -4.605  -8.848  1.00  0.00     0.025 C 
HETATM   19  C   UNL     1     -21.259  -3.189  -7.247  1.00  0.00     0.025 C 
HETATM   20  C   UNL     1     -20.078  -4.890  -8.630  1.00  0.00     0.025 C 
ENDBRANCH  15  17
ENDBRANCH  14  15
ENDBRANCH  13  14
ENDBRANCH  12  13
ENDBRANCH  11  12
ENDBRANCH   1  11
TORSDOF 14
ENDMDL
