MODEL 1
REMARK VINA RESULT:      -6.8      0.000      0.000
REMARK  13 active torsions:
REMARK  status: ('A' for Active; 'I' for Inactive)
REMARK    1  A    between atoms: C_1  and  C_2 
REMARK    2  A    between atoms: C_1  and  O_12 
REMARK    3  A    between atoms: C_2  and  C_3 
REMARK    4  A    between atoms: C_2  and  O_11 
REMARK    5  A    between atoms: C_3  and  C_4 
REMARK    6  A    between atoms: C_3  and  O_10 
REMARK    7  A    between atoms: C_4  and  C_5 
REMARK    8  A    between atoms: C_4  and  O_9 
REMARK    9  A    between atoms: C_5  and  C_6 
REMARK   10  A    between atoms: C_5  and  O_8 
REMARK   11  A    between atoms: O_12  and  P_13 
REMARK   12  A    between atoms: P_13  and  O_15 
REMARK   13  A    between atoms: P_13  and  O_16 
ROOT
HETATM    1  C   UNL     1     -23.581  -3.791 -11.389  1.00  0.00     0.173 C 
ENDROOT
BRANCH   1   2
HETATM    2  C   UNL     1     -24.697  -3.160 -12.221  1.00  0.00     0.213 C 
BRANCH   2   3
HETATM    3  O   UNL     1     -24.292  -2.170 -13.170  1.00  0.00    -0.308 OA
BRANCH   3   4
HETATM    4  P   UNL     1     -23.161  -2.679 -14.376  1.00  0.00     0.349 P 
HETATM    5  O   UNL     1     -23.967  -3.918 -14.795  1.00  0.00    -0.645 OA
BRANCH   4   6
HETATM    6  O   UNL     1     -23.749  -1.572 -15.447  1.00  0.00     0.000 OA
HETATM    7  H   UNL     1     -23.374  -1.752 -16.339  1.00  0.00     0.000 HD
HETATM    8 NA   UNL     2     -25.395  -0.611 -14.078  1.00  0.00     0.000 Na
ENDBRANCH   4   6
BRANCH   4   9
HETATM    9  O   UNL     1     -22.030  -3.186 -15.582  1.00  0.00    -0.321 OA
HETATM   10  H   UNL     1     -21.445  -2.420 -15.759  1.00  0.00     0.220 HD
ENDBRANCH   4   9
ENDBRANCH   3   4
ENDBRANCH   2   3
ENDBRANCH   1   2
BRANCH   1  11
HETATM   11  C   UNL     1     -23.886  -3.818  -9.875  1.00  0.00     0.180 C 
BRANCH  11  12
HETATM   12  C   UNL     1     -22.599  -3.657  -9.027  1.00  0.00     0.184 C 
BRANCH  12  13
HETATM   13  C   UNL     1     -22.627  -4.474  -7.723  1.00  0.00     0.210 C 
BRANCH  13  14
HETATM   14  C   UNL     1     -21.466  -4.122  -6.809  1.00  0.00     0.265 C 
HETATM   15  O   UNL     1     -20.306  -4.008  -7.217  1.00  0.00    -0.304 OA
ENDBRANCH  13  14
BRANCH  13  16
HETATM   16  O   UNL     1     -23.839  -4.230  -7.018  1.00  0.00    -0.386 OA
HETATM   17  H   UNL     1     -24.541  -4.743  -7.465  1.00  0.00     0.210 HD
ENDBRANCH  13  16
ENDBRANCH  12  13
BRANCH  12  18
HETATM   18  O   UNL     1     -21.421  -3.981  -9.797  1.00  0.00    -0.390 OA
HETATM   19  H   UNL     1     -20.829  -3.194  -9.768  1.00  0.00     0.210 HD
ENDBRANCH  12  18
ENDBRANCH  11  12
BRANCH  11  20
HETATM   20  O   UNL     1     -24.828  -2.814  -9.499  1.00  0.00    -0.390 OA
HETATM   21  H   UNL     1     -24.647  -2.557  -8.575  1.00  0.00     0.210 HD
ENDBRANCH  11  20
ENDBRANCH   1  11
BRANCH   1  22
HETATM   22  O   UNL     1     -23.429  -5.119 -11.905  1.00  0.00    -0.391 OA
HETATM   23  H   UNL     1     -23.926  -5.168 -12.752  1.00  0.00     0.210 HD
ENDBRANCH   1  22
TORSDOF 13
ENDMDL
MODEL 2
REMARK VINA RESULT:      -6.7      1.066      2.184
REMARK  13 active torsions:
REMARK  status: ('A' for Active; 'I' for Inactive)
REMARK    1  A    between atoms: C_1  and  C_2 
REMARK    2  A    between atoms: C_1  and  O_12 
REMARK    3  A    between atoms: C_2  and  C_3 
REMARK    4  A    between atoms: C_2  and  O_11 
REMARK    5  A    between atoms: C_3  and  C_4 
REMARK    6  A    between atoms: C_3  and  O_10 
REMARK    7  A    between atoms: C_4  and  C_5 
REMARK    8  A    between atoms: C_4  and  O_9 
REMARK    9  A    between atoms: C_5  and  C_6 
REMARK   10  A    between atoms: C_5  and  O_8 
REMARK   11  A    between atoms: O_12  and  P_13 
REMARK   12  A    between atoms: P_13  and  O_15 
REMARK   13  A    between atoms: P_13  and  O_16 
ROOT
HETATM    1  C   UNL     1     -23.804  -4.113 -10.635  1.00  0.00     0.173 C 
ENDROOT
BRANCH   1   2
HETATM    2  C   UNL     1     -23.671  -4.255 -12.151  1.00  0.00     0.213 C 
BRANCH   2   3
HETATM    3  O   UNL     1     -22.700  -3.415 -12.779  1.00  0.00    -0.308 OA
BRANCH   3   4
HETATM    4  P   UNL     1     -23.263  -2.439 -14.092  1.00  0.00     0.349 P 
HETATM    5  O   UNL     1     -23.825  -3.619 -14.899  1.00  0.00    -0.645 OA
BRANCH   4   6
HETATM    6  O   UNL     1     -24.605  -2.002 -13.240  1.00  0.00     0.000 OA
HETATM    7  H   UNL     1     -24.724  -2.620 -12.483  1.00  0.00     0.000 HD
HETATM    8 NA   UNL     2     -25.010   0.065 -14.274  1.00  0.00     0.000 Na
ENDBRANCH   4   6
BRANCH   4   9
HETATM    9  O   UNL     1     -23.826  -1.462 -15.404  1.00  0.00    -0.321 OA
HETATM   10  H   UNL     1     -23.198  -0.713 -15.486  1.00  0.00     0.220 HD
ENDBRANCH   4   9
ENDBRANCH   3   4
ENDBRANCH   2   3
ENDBRANCH   1   2
BRANCH   1  11
HETATM   11  C   UNL     1     -22.459  -3.845  -9.923  1.00  0.00     0.180 C 
BRANCH  11  12
HETATM   12  C   UNL     1     -22.474  -4.351  -8.458  1.00  0.00     0.184 C 
BRANCH  12  13
HETATM   13  C   UNL     1     -21.307  -3.805  -7.617  1.00  0.00     0.210 C 
BRANCH  13  14
HETATM   14  C   UNL     1     -21.201  -4.504  -6.274  1.00  0.00     0.265 C 
HETATM   15  O   UNL     1     -21.829  -5.534  -6.005  1.00  0.00    -0.304 OA
ENDBRANCH  13  14
BRANCH  13  16
HETATM   16  O   UNL     1     -20.077  -3.984  -8.311  1.00  0.00    -0.386 OA
HETATM   17  H   UNL     1     -20.235  -4.648  -9.012  1.00  0.00     0.210 HD
ENDBRANCH  13  16
ENDBRANCH  12  13
BRANCH  12  18
HETATM   18  O   UNL     1     -23.734  -4.061  -7.817  1.00  0.00    -0.390 OA
HETATM   19  H   UNL     1     -24.014  -4.878  -7.341  1.00  0.00     0.210 HD
ENDBRANCH  12  18
ENDBRANCH  11  12
BRANCH  11  20
HETATM   20  O   UNL     1     -21.359  -4.434 -10.616  1.00  0.00    -0.390 OA
HETATM   21  H   UNL     1     -21.684  -4.769 -11.473  1.00  0.00     0.210 HD
ENDBRANCH  11  20
ENDBRANCH   1  11
BRANCH   1  22
HETATM   22  O   UNL     1     -24.716  -3.025 -10.435  1.00  0.00    -0.391 OA
HETATM   23  H   UNL     1     -24.795  -2.543 -11.289  1.00  0.00     0.210 HD
ENDBRANCH   1  22
TORSDOF 13
ENDMDL
MODEL 3
REMARK VINA RESULT:      -6.4     10.947     13.271
REMARK  13 active torsions:
REMARK  status: ('A' for Active; 'I' for Inactive)
REMARK    1  A    between atoms: C_1  and  C_2 
REMARK    2  A    between atoms: C_1  and  O_12 
REMARK    3  A    between atoms: C_2  and  C_3 
REMARK    4  A    between atoms: C_2  and  O_11 
REMARK    5  A    between atoms: C_3  and  C_4 
REMARK    6  A    between atoms: C_3  and  O_10 
REMARK    7  A    between atoms: C_4  and  C_5 
REMARK    8  A    between atoms: C_4  and  O_9 
REMARK    9  A    between atoms: C_5  and  C_6 
REMARK   10  A    between atoms: C_5  and  O_8 
REMARK   11  A    between atoms: O_12  and  P_13 
REMARK   12  A    between atoms: P_13  and  O_15 
REMARK   13  A    between atoms: P_13  and  O_16 
ROOT
HETATM    1  C   UNL     1     -35.178  -1.776 -12.650  1.00  0.00     0.173 C 
ENDROOT
BRANCH   1   2
HETATM    2  C   UNL     1     -34.302  -2.141 -11.451  1.00  0.00     0.213 C 
BRANCH   2   3
HETATM    3  O   UNL     1     -34.718  -3.278 -10.690  1.00  0.00    -0.308 OA
BRANCH   3   4
HETATM    4  P   UNL     1     -33.868  -4.755 -10.988  1.00  0.00     0.349 P 
HETATM    5  O   UNL     1     -34.734  -5.163 -12.190  1.00  0.00    -0.645 OA
BRANCH   4   6
HETATM    6  O   UNL     1     -32.658  -3.946 -11.762  1.00  0.00     0.000 OA
HETATM    7  H   UNL     1     -32.002  -3.632 -11.099  1.00  0.00     0.000 HD
HETATM    8 NA   UNL     2     -33.225  -4.509 -13.968  1.00  0.00     0.000 Na
ENDBRANCH   4   6
BRANCH   4   9
HETATM    9  O   UNL     1     -33.018  -6.231 -11.286  1.00  0.00    -0.321 OA
HETATM   10  H   UNL     1     -32.088  -6.080 -11.013  1.00  0.00     0.220 HD
ENDBRANCH   4   9
ENDBRANCH   3   4
ENDBRANCH   2   3
ENDBRANCH   1   2
BRANCH   1  11
HETATM   11  C   UNL     1     -35.142  -0.272 -12.999  1.00  0.00     0.180 C 
BRANCH  11  12
HETATM   12  C   UNL     1     -36.270   0.114 -13.990  1.00  0.00     0.184 C 
BRANCH  12  13
HETATM   13  C   UNL     1     -35.748   0.452 -15.398  1.00  0.00     0.210 C 
BRANCH  13  14
HETATM   14  C   UNL     1     -35.926  -0.708 -16.361  1.00  0.00     0.265 C 
HETATM   15  O   UNL     1     -35.274  -1.755 -16.274  1.00  0.00    -0.304 OA
ENDBRANCH  13  14
BRANCH  13  16
HETATM   16  O   UNL     1     -36.446   1.577 -15.922  1.00  0.00    -0.386 OA
HETATM   17  H   UNL     1     -35.965   2.376 -15.628  1.00  0.00     0.210 HD
ENDBRANCH  13  16
ENDBRANCH  12  13
BRANCH  12  18
HETATM   18  O   UNL     1     -37.279  -0.915 -14.062  1.00  0.00    -0.390 OA
HETATM   19  H   UNL     1     -38.076  -0.575 -13.591  1.00  0.00     0.210 HD
ENDBRANCH  12  18
ENDBRANCH  11  12
BRANCH  11  20
HETATM   20  O   UNL     1     -35.232   0.552 -11.837  1.00  0.00    -0.390 OA
HETATM   21  H   UNL     1     -35.879   0.148 -11.228  1.00  0.00     0.210 HD
ENDBRANCH  11  20
ENDBRANCH   1  11
BRANCH   1  22
HETATM   22  O   UNL     1     -34.681  -2.567 -13.737  1.00  0.00    -0.391 OA
HETATM   23  H   UNL     1     -35.004  -2.161 -14.572  1.00  0.00     0.210 HD
ENDBRANCH   1  22
TORSDOF 13
ENDMDL
MODEL 4
REMARK VINA RESULT:      -6.3      3.023      6.359
REMARK  13 active torsions:
REMARK  status: ('A' for Active; 'I' for Inactive)
REMARK    1  A    between atoms: C_1  and  C_2 
REMARK    2  A    between atoms: C_1  and  O_12 
REMARK    3  A    between atoms: C_2  and  C_3 
REMARK    4  A    between atoms: C_2  and  O_11 
REMARK    5  A    between atoms: C_3  and  C_4 
REMARK    6  A    between atoms: C_3  and  O_10 
REMARK    7  A    between atoms: C_4  and  C_5 
REMARK    8  A    between atoms: C_4  and  O_9 
REMARK    9  A    between atoms: C_5  and  C_6 
REMARK   10  A    between atoms: C_5  and  O_8 
REMARK   11  A    between atoms: O_12  and  P_13 
REMARK   12  A    between atoms: P_13  and  O_15 
REMARK   13  A    between atoms: P_13  and  O_16 
ROOT
HETATM    1  C   UNL     1     -23.889  -3.356 -10.876  1.00  0.00     0.173 C 
ENDROOT
BRANCH   1   2
HETATM    2  C   UNL     1     -23.568  -4.196  -9.639  1.00  0.00     0.213 C 
BRANCH   2   3
HETATM    3  O   UNL     1     -22.259  -4.766  -9.587  1.00  0.00    -0.308 OA
BRANCH   3   4
HETATM    4  P   UNL     1     -21.419  -4.629  -8.081  1.00  0.00     0.349 P 
HETATM    5  O   UNL     1     -20.184  -3.942  -8.683  1.00  0.00    -0.645 OA
BRANCH   4   6
HETATM    6  O   UNL     1     -22.312  -3.308  -7.661  1.00  0.00     0.000 OA
HETATM    7  H   UNL     1     -21.907  -2.503  -8.058  1.00  0.00     0.000 HD
HETATM    8 NA   UNL     2     -24.156  -4.422  -6.731  1.00  0.00     0.000 Na
ENDBRANCH   4   6
BRANCH   4   9
HETATM    9  O   UNL     1     -20.581  -4.492  -6.574  1.00  0.00    -0.321 OA
HETATM   10  H   UNL     1     -21.092  -5.014  -5.920  1.00  0.00     0.220 HD
ENDBRANCH   4   9
ENDBRANCH   3   4
ENDBRANCH   2   3
ENDBRANCH   1   2
BRANCH   1  11
HETATM   11  C   UNL     1     -23.465  -4.030 -12.200  1.00  0.00     0.180 C 
BRANCH  11  12
HETATM   12  C   UNL     1     -24.271  -3.484 -13.406  1.00  0.00     0.184 C 
BRANCH  12  13
HETATM   13  C   UNL     1     -23.818  -2.083 -13.852  1.00  0.00     0.210 C 
BRANCH  13  14
HETATM   14  C   UNL     1     -23.041  -2.127 -15.156  1.00  0.00     0.265 C 
HETATM   15  O   UNL     1     -22.138  -2.944 -15.368  1.00  0.00    -0.304 OA
ENDBRANCH  13  14
BRANCH  13  16
HETATM   16  O   UNL     1     -24.949  -1.238 -14.036  1.00  0.00    -0.386 OA
HETATM   17  H   UNL     1     -25.592  -1.732 -14.584  1.00  0.00     0.210 HD
ENDBRANCH  13  16
ENDBRANCH  12  13
BRANCH  12  18
HETATM   18  O   UNL     1     -24.234  -4.402 -14.519  1.00  0.00    -0.390 OA
HETATM   19  H   UNL     1     -24.881  -4.076 -15.187  1.00  0.00     0.210 HD
ENDBRANCH  12  18
ENDBRANCH  11  12
BRANCH  11  20
HETATM   20  O   UNL     1     -22.069  -3.878 -12.456  1.00  0.00    -0.390 OA
HETATM   21  H   UNL     1     -21.605  -4.648 -12.077  1.00  0.00     0.210 HD
ENDBRANCH  11  20
ENDBRANCH   1  11
BRANCH   1  22
HETATM   22  O   UNL     1     -25.307  -3.150 -10.836  1.00  0.00    -0.391 OA
HETATM   23  H   UNL     1     -25.561  -3.013  -9.896  1.00  0.00     0.210 HD
ENDBRANCH   1  22
TORSDOF 13
ENDMDL
MODEL 5
REMARK VINA RESULT:      -6.3      2.772      5.979
REMARK  13 active torsions:
REMARK  status: ('A' for Active; 'I' for Inactive)
REMARK    1  A    between atoms: C_1  and  C_2 
REMARK    2  A    between atoms: C_1  and  O_12 
REMARK    3  A    between atoms: C_2  and  C_3 
REMARK    4  A    between atoms: C_2  and  O_11 
REMARK    5  A    between atoms: C_3  and  C_4 
REMARK    6  A    between atoms: C_3  and  O_10 
REMARK    7  A    between atoms: C_4  and  C_5 
REMARK    8  A    between atoms: C_4  and  O_9 
REMARK    9  A    between atoms: C_5  and  C_6 
REMARK   10  A    between atoms: C_5  and  O_8 
REMARK   11  A    between atoms: O_12  and  P_13 
REMARK   12  A    between atoms: P_13  and  O_15 
REMARK   13  A    between atoms: P_13  and  O_16 
ROOT
HETATM    1  C   UNL     1     -23.121  -4.432 -11.621  1.00  0.00     0.173 C 
ENDROOT
BRANCH   1   2
HETATM    2  C   UNL     1     -22.785  -4.793 -10.174  1.00  0.00     0.213 C 
BRANCH   2   3
HETATM    3  O   UNL     1     -22.194  -3.756  -9.387  1.00  0.00    -0.308 OA
BRANCH   3   4
HETATM    4  P   UNL     1     -20.743  -4.167  -8.539  1.00  0.00     0.349 P 
HETATM    5  O   UNL     1     -21.294  -5.483  -7.970  1.00  0.00    -0.645 OA
BRANCH   4   6
HETATM    6  O   UNL     1     -20.045  -4.718  -9.926  1.00  0.00     0.000 OA
HETATM    7  H   UNL     1     -19.891  -5.688  -9.849  1.00  0.00     0.000 HD
HETATM    8 NA   UNL     2     -20.310  -2.789 -11.235  1.00  0.00     0.000 Na
ENDBRANCH   4   6
BRANCH   4   9
HETATM    9  O   UNL     1     -19.292  -4.577  -7.691  1.00  0.00    -0.321 OA
HETATM   10  H   UNL     1     -18.945  -3.744  -7.309  1.00  0.00     0.220 HD
ENDBRANCH   4   9
ENDBRANCH   3   4
ENDBRANCH   2   3
ENDBRANCH   1   2
BRANCH   1  11
HETATM   11  C   UNL     1     -23.945  -3.131 -11.752  1.00  0.00     0.180 C 
BRANCH  11  12
HETATM   12  C   UNL     1     -24.494  -2.943 -13.189  1.00  0.00     0.184 C 
BRANCH  12  13
HETATM   13  C   UNL     1     -23.881  -1.734 -13.918  1.00  0.00     0.210 C 
BRANCH  13  14
HETATM   14  C   UNL     1     -23.087  -2.155 -15.142  1.00  0.00     0.265 C 
HETATM   15  O   UNL     1     -22.162  -2.973 -15.090  1.00  0.00    -0.304 OA
ENDBRANCH  13  14
BRANCH  13  16
HETATM   16  O   UNL     1     -24.908  -0.843 -14.337  1.00  0.00    -0.386 OA
HETATM   17  H   UNL     1     -25.618  -1.386 -14.734  1.00  0.00     0.210 HD
ENDBRANCH  13  16
ENDBRANCH  12  13
BRANCH  12  18
HETATM   18  O   UNL     1     -24.327  -4.142 -13.975  1.00  0.00    -0.390 OA
HETATM   19  H   UNL     1     -24.571  -4.904 -13.400  1.00  0.00     0.210 HD
ENDBRANCH  12  18
ENDBRANCH  11  12
BRANCH  11  20
HETATM   20  O   UNL     1     -25.026  -3.084 -10.822  1.00  0.00    -0.390 OA
HETATM   21  H   UNL     1     -25.616  -3.841 -11.003  1.00  0.00     0.210 HD
ENDBRANCH  11  20
ENDBRANCH   1  11
BRANCH   1  22
HETATM   22  O   UNL     1     -21.857  -4.308 -12.284  1.00  0.00    -0.391 OA
HETATM   23  H   UNL     1     -21.158  -4.301 -11.592  1.00  0.00     0.210 HD
ENDBRANCH   1  22
TORSDOF 13
ENDMDL
MODEL 6
REMARK VINA RESULT:      -6.3      3.196      6.419
REMARK  13 active torsions:
REMARK  status: ('A' for Active; 'I' for Inactive)
REMARK    1  A    between atoms: C_1  and  C_2 
REMARK    2  A    between atoms: C_1  and  O_12 
REMARK    3  A    between atoms: C_2  and  C_3 
REMARK    4  A    between atoms: C_2  and  O_11 
REMARK    5  A    between atoms: C_3  and  C_4 
REMARK    6  A    between atoms: C_3  and  O_10 
REMARK    7  A    between atoms: C_4  and  C_5 
REMARK    8  A    between atoms: C_4  and  O_9 
REMARK    9  A    between atoms: C_5  and  C_6 
REMARK   10  A    between atoms: C_5  and  O_8 
REMARK   11  A    between atoms: O_12  and  P_13 
REMARK   12  A    between atoms: P_13  and  O_15 
REMARK   13  A    between atoms: P_13  and  O_16 
ROOT
HETATM    1  C   UNL     1     -24.033  -3.785  -9.515  1.00  0.00     0.173 C 
ENDROOT
BRANCH   1   2
HETATM    2  C   UNL     1     -23.307  -4.128  -8.214  1.00  0.00     0.213 C 
BRANCH   2   3
HETATM    3  O   UNL     1     -22.221  -5.050  -8.323  1.00  0.00    -0.308 OA
BRANCH   3   4
HETATM    4  P   UNL     1     -21.017  -4.970  -7.083  1.00  0.00     0.349 P 
HETATM    5  O   UNL     1     -20.121  -6.053  -7.703  1.00  0.00    -0.645 OA
BRANCH   4   6
HETATM    6  O   UNL     1     -20.356  -3.621  -7.761  1.00  0.00     0.000 OA
HETATM    7  H   UNL     1     -19.732  -3.888  -8.475  1.00  0.00     0.000 HD
HETATM    8 NA   UNL     2     -21.738  -2.016  -6.752  1.00  0.00     0.000 Na
ENDBRANCH   4   6
BRANCH   4   9
HETATM    9  O   UNL     1     -19.813  -4.889  -5.844  1.00  0.00    -0.321 OA
HETATM   10  H   UNL     1     -19.888  -4.000  -5.437  1.00  0.00     0.220 HD
ENDBRANCH   4   9
ENDBRANCH   3   4
ENDBRANCH   2   3
ENDBRANCH   1   2
BRANCH   1  11
HETATM   11  C   UNL     1     -23.104  -3.771 -10.749  1.00  0.00     0.180 C 
BRANCH  11  12
HETATM   12  C   UNL     1     -23.696  -2.924 -11.904  1.00  0.00     0.184 C 
BRANCH  12  13
HETATM   13  C   UNL     1     -23.119  -3.291 -13.282  1.00  0.00     0.210 C 
BRANCH  13  14
HETATM   14  C   UNL     1     -23.260  -2.152 -14.277  1.00  0.00     0.265 C 
HETATM   15  O   UNL     1     -24.348  -1.631 -14.546  1.00  0.00    -0.304 OA
ENDBRANCH  13  14
BRANCH  13  16
HETATM   16  O   UNL     1     -21.738  -3.612 -13.165  1.00  0.00    -0.386 OA
HETATM   17  H   UNL     1     -21.592  -3.929 -12.251  1.00  0.00     0.210 HD
ENDBRANCH  13  16
ENDBRANCH  12  13
BRANCH  12  18
HETATM   18  O   UNL     1     -25.138  -3.003 -11.926  1.00  0.00    -0.390 OA
HETATM   19  H   UNL     1     -25.459  -2.712 -11.040  1.00  0.00     0.210 HD
ENDBRANCH  12  18
ENDBRANCH  11  12
BRANCH  11  20
HETATM   20  O   UNL     1     -21.798  -3.291 -10.433  1.00  0.00    -0.390 OA
HETATM   21  H   UNL     1     -21.700  -2.399 -10.818  1.00  0.00     0.210 HD
ENDBRANCH  11  20
ENDBRANCH   1  11
BRANCH   1  22
HETATM   22  O   UNL     1     -25.054  -4.781  -9.653  1.00  0.00    -0.391 OA
HETATM   23  H   UNL     1     -24.632  -5.591 -10.016  1.00  0.00     0.210 HD
ENDBRANCH   1  22
TORSDOF 13
ENDMDL
MODEL 7
REMARK VINA RESULT:      -6.2      1.988      2.912
REMARK  13 active torsions:
REMARK  status: ('A' for Active; 'I' for Inactive)
REMARK    1  A    between atoms: C_1  and  C_2 
REMARK    2  A    between atoms: C_1  and  O_12 
REMARK    3  A    between atoms: C_2  and  C_3 
REMARK    4  A    between atoms: C_2  and  O_11 
REMARK    5  A    between atoms: C_3  and  C_4 
REMARK    6  A    between atoms: C_3  and  O_10 
REMARK    7  A    between atoms: C_4  and  C_5 
REMARK    8  A    between atoms: C_4  and  O_9 
REMARK    9  A    between atoms: C_5  and  C_6 
REMARK   10  A    between atoms: C_5  and  O_8 
REMARK   11  A    between atoms: O_12  and  P_13 
REMARK   12  A    between atoms: P_13  and  O_15 
REMARK   13  A    between atoms: P_13  and  O_16 
ROOT
HETATM    1  C   UNL     1     -22.676  -3.804  -9.507  1.00  0.00     0.173 C 
ENDROOT
BRANCH   1   2
HETATM    2  C   UNL     1     -23.982  -3.955 -10.288  1.00  0.00     0.213 C 
BRANCH   2   3
HETATM    3  O   UNL     1     -24.285  -2.911 -11.216  1.00  0.00    -0.308 OA
BRANCH   3   4
HETATM    4  P   UNL     1     -23.991  -3.257 -12.885  1.00  0.00     0.349 P 
HETATM    5  O   UNL     1     -22.519  -2.821 -12.851  1.00  0.00    -0.645 OA
BRANCH   4   6
HETATM    6  O   UNL     1     -23.827  -4.865 -12.561  1.00  0.00     0.000 OA
HETATM    7  H   UNL     1     -24.699  -5.309 -12.673  1.00  0.00     0.000 HD
HETATM    8 NA   UNL     2     -21.485  -4.956 -12.456  1.00  0.00     0.000 Na
ENDBRANCH   4   6
BRANCH   4   9
HETATM    9  O   UNL     1     -23.698  -3.603 -14.554  1.00  0.00    -0.321 OA
HETATM   10  H   UNL     1     -24.155  -4.449 -14.750  1.00  0.00     0.220 HD
ENDBRANCH   4   9
ENDBRANCH   3   4
ENDBRANCH   2   3
ENDBRANCH   1   2
BRANCH   1  11
HETATM   11  C   UNL     1     -22.734  -4.418  -8.091  1.00  0.00     0.180 C 
BRANCH  11  12
HETATM   12  C   UNL     1     -21.535  -3.965  -7.219  1.00  0.00     0.184 C 
BRANCH  12  13
HETATM   13  C   UNL     1     -21.207  -4.949  -6.082  1.00  0.00     0.210 C 
BRANCH  13  14
HETATM   14  C   UNL     1     -20.856  -6.329  -6.612  1.00  0.00     0.265 C 
HETATM   15  O   UNL     1     -19.846  -6.548  -7.289  1.00  0.00    -0.304 OA
ENDBRANCH  13  14
BRANCH  13  16
HETATM   16  O   UNL     1     -20.104  -4.469  -5.322  1.00  0.00    -0.386 OA
HETATM   17  H   UNL     1     -19.351  -4.368  -5.939  1.00  0.00     0.210 HD
ENDBRANCH  13  16
ENDBRANCH  12  13
BRANCH  12  18
HETATM   18  O   UNL     1     -20.364  -3.721  -8.026  1.00  0.00    -0.390 OA
HETATM   19  H   UNL     1     -19.751  -3.166  -7.490  1.00  0.00     0.210 HD
ENDBRANCH  12  18
ENDBRANCH  11  12
BRANCH  11  20
HETATM   20  O   UNL     1     -23.953  -4.104  -7.419  1.00  0.00    -0.390 OA
HETATM   21  H   UNL     1     -24.253  -3.228  -7.727  1.00  0.00     0.210 HD
ENDBRANCH  11  20
ENDBRANCH   1  11
BRANCH   1  22
HETATM   22  O   UNL     1     -21.680  -4.453 -10.308  1.00  0.00    -0.391 OA
HETATM   23  H   UNL     1     -22.044  -5.321 -10.591  1.00  0.00     0.210 HD
ENDBRANCH   1  22
TORSDOF 13
ENDMDL
MODEL 8
REMARK VINA RESULT:      -6.2      1.857      2.341
REMARK  13 active torsions:
REMARK  status: ('A' for Active; 'I' for Inactive)
REMARK    1  A    between atoms: C_1  and  C_2 
REMARK    2  A    between atoms: C_1  and  O_12 
REMARK    3  A    between atoms: C_2  and  C_3 
REMARK    4  A    between atoms: C_2  and  O_11 
REMARK    5  A    between atoms: C_3  and  C_4 
REMARK    6  A    between atoms: C_3  and  O_10 
REMARK    7  A    between atoms: C_4  and  C_5 
REMARK    8  A    between atoms: C_4  and  O_9 
REMARK    9  A    between atoms: C_5  and  C_6 
REMARK   10  A    between atoms: C_5  and  O_8 
REMARK   11  A    between atoms: O_12  and  P_13 
REMARK   12  A    between atoms: P_13  and  O_15 
REMARK   13  A    between atoms: P_13  and  O_16 
ROOT
HETATM    1  C   UNL     1     -22.805  -4.519 -10.530  1.00  0.00     0.173 C 
ENDROOT
BRANCH   1   2
HETATM    2  C   UNL     1     -22.548  -3.215 -11.286  1.00  0.00     0.213 C 
BRANCH   2   3
HETATM    3  O   UNL     1     -22.573  -3.300 -12.713  1.00  0.00    -0.308 OA
BRANCH   3   4
HETATM    4  P   UNL     1     -23.678  -2.246 -13.526  1.00  0.00     0.349 P 
HETATM    5  O   UNL     1     -23.480  -2.890 -14.906  1.00  0.00    -0.645 OA
BRANCH   4   6
HETATM    6  O   UNL     1     -24.967  -3.116 -12.980  1.00  0.00     0.000 OA
HETATM    7  H   UNL     1     -25.681  -2.499 -12.698  1.00  0.00     0.000 HD
HETATM    8 NA   UNL     2     -24.262  -5.244 -13.672  1.00  0.00     0.000 Na
ENDBRANCH   4   6
BRANCH   4   9
HETATM    9  O   UNL     1     -24.784  -1.192 -14.338  1.00  0.00    -0.321 OA
HETATM   10  H   UNL     1     -24.483  -1.133 -15.270  1.00  0.00     0.220 HD
ENDBRANCH   4   9
ENDBRANCH   3   4
ENDBRANCH   2   3
ENDBRANCH   1   2
BRANCH   1  11
HETATM   11  C   UNL     1     -23.447  -4.306  -9.141  1.00  0.00     0.180 C 
BRANCH  11  12
HETATM   12  C   UNL     1     -22.397  -4.395  -8.004  1.00  0.00     0.184 C 
BRANCH  12  13
HETATM   13  C   UNL     1     -21.141  -5.190  -8.401  1.00  0.00     0.210 C 
BRANCH  13  14
HETATM   14  C   UNL     1     -19.899  -4.315  -8.417  1.00  0.00     0.265 C 
HETATM   15  O   UNL     1     -19.047  -4.348  -7.522  1.00  0.00    -0.304 OA
ENDBRANCH  13  14
BRANCH  13  16
HETATM   16  O   UNL     1     -20.924  -6.255  -7.482  1.00  0.00    -0.386 OA
HETATM   17  H   UNL     1     -21.795  -6.662  -7.302  1.00  0.00     0.210 HD
ENDBRANCH  13  16
ENDBRANCH  12  13
BRANCH  12  18
HETATM   18  O   UNL     1     -22.032  -3.083  -7.524  1.00  0.00    -0.390 OA
HETATM   19  H   UNL     1     -22.033  -2.478  -8.302  1.00  0.00     0.210 HD
ENDBRANCH  12  18
ENDBRANCH  11  12
BRANCH  11  20
HETATM   20  O   UNL     1     -24.134  -3.058  -9.053  1.00  0.00    -0.390 OA
HETATM   21  H   UNL     1     -24.049  -2.728  -8.138  1.00  0.00     0.210 HD
ENDBRANCH  11  20
ENDBRANCH   1  11
BRANCH   1  22
HETATM   22  O   UNL     1     -23.666  -5.287 -11.381  1.00  0.00    -0.391 OA
HETATM   23  H   UNL     1     -24.518  -5.411 -10.907  1.00  0.00     0.210 HD
ENDBRANCH   1  22
TORSDOF 13
ENDMDL
MODEL 9
REMARK VINA RESULT:      -6.1      6.952      9.458
REMARK  13 active torsions:
REMARK  status: ('A' for Active; 'I' for Inactive)
REMARK    1  A    between atoms: C_1  and  C_2 
REMARK    2  A    between atoms: C_1  and  O_12 
REMARK    3  A    between atoms: C_2  and  C_3 
REMARK    4  A    between atoms: C_2  and  O_11 
REMARK    5  A    between atoms: C_3  and  C_4 
REMARK    6  A    between atoms: C_3  and  O_10 
REMARK    7  A    between atoms: C_4  and  C_5 
REMARK    8  A    between atoms: C_4  and  O_9 
REMARK    9  A    between atoms: C_5  and  C_6 
REMARK   10  A    between atoms: C_5  and  O_8 
REMARK   11  A    between atoms: O_12  and  P_13 
REMARK   12  A    between atoms: P_13  and  O_15 
REMARK   13  A    between atoms: P_13  and  O_16 
ROOT
HETATM    1  C   UNL     1     -25.352  -6.869 -15.568  1.00  0.00     0.173 C 
ENDROOT
BRANCH   1   2
HETATM    2  C   UNL     1     -26.875  -6.944 -15.456  1.00  0.00     0.213 C 
BRANCH   2   3
HETATM    3  O   UNL     1     -27.613  -6.064 -16.307  1.00  0.00    -0.308 OA
BRANCH   3   4
HETATM    4  P   UNL     1     -29.087  -6.687 -16.964  1.00  0.00     0.349 P 
HETATM    5  O   UNL     1     -29.987  -5.662 -16.258  1.00  0.00    -0.645 OA
BRANCH   4   6
HETATM    6  O   UNL     1     -28.822  -5.908 -18.393  1.00  0.00     0.000 OA
HETATM    7  H   UNL     1     -29.109  -4.970 -18.309  1.00  0.00     0.000 HD
HETATM    8 NA   UNL     2     -27.558  -7.570 -19.462  1.00  0.00     0.000 Na
ENDBRANCH   4   6
BRANCH   4   9
HETATM    9  O   UNL     1     -30.561  -7.309 -17.622  1.00  0.00    -0.321 OA
HETATM   10  H   UNL     1     -30.626  -6.968 -18.539  1.00  0.00     0.220 HD
ENDBRANCH   4   9
ENDBRANCH   3   4
ENDBRANCH   2   3
ENDBRANCH   1   2
BRANCH   1  11
HETATM   11  C   UNL     1     -24.778  -7.733 -16.713  1.00  0.00     0.180 C 
BRANCH  11  12
HETATM   12  C   UNL     1     -24.599  -6.912 -18.016  1.00  0.00     0.184 C 
BRANCH  12  13
HETATM   13  C   UNL     1     -23.908  -7.704 -19.140  1.00  0.00     0.210 C 
BRANCH  13  14
HETATM   14  C   UNL     1     -24.518  -7.408 -20.499  1.00  0.00     0.265 C 
HETATM   15  O   UNL     1     -25.528  -7.984 -20.917  1.00  0.00    -0.304 OA
ENDBRANCH  13  14
BRANCH  13  16
HETATM   16  O   UNL     1     -22.524  -7.376 -19.191  1.00  0.00    -0.386 OA
HETATM   17  H   UNL     1     -22.153  -7.550 -18.304  1.00  0.00     0.210 HD
ENDBRANCH  13  16
ENDBRANCH  12  13
BRANCH  12  18
HETATM   18  O   UNL     1     -25.859  -6.380 -18.478  1.00  0.00    -0.390 OA
HETATM   19  H   UNL     1     -26.386  -6.144 -17.679  1.00  0.00     0.210 HD
ENDBRANCH  12  18
ENDBRANCH  11  12
BRANCH  11  20
HETATM   20  O   UNL     1     -23.534  -8.336 -16.359  1.00  0.00    -0.390 OA
HETATM   21  H   UNL     1     -23.135  -7.810 -15.641  1.00  0.00     0.210 HD
ENDBRANCH  11  20
ENDBRANCH   1  11
BRANCH   1  22
HETATM   22  O   UNL     1     -25.055  -5.482 -15.772  1.00  0.00    -0.391 OA
HETATM   23  H   UNL     1     -24.360  -5.228 -15.125  1.00  0.00     0.210 HD
ENDBRANCH   1  22
TORSDOF 13
ENDMDL
