MODEL 1
REMARK VINA RESULT:      -6.0      0.000      0.000
REMARK  5 active torsions:
REMARK  status: ('A' for Active; 'I' for Inactive)
REMARK    1  A    between atoms: C_1  and  C_2 
REMARK    2  A    between atoms: C_1  and  O_12 
REMARK    3  A    between atoms: C_3  and  O_11 
REMARK    4  A    between atoms: C_4  and  O_10 
REMARK    5  A    between atoms: C_5  and  O_9 
ROOT
HETATM    1  C   UNL     1     -23.938  -4.199 -10.776  1.00  0.00     0.186 C 
HETATM    2  C   UNL     1     -22.419  -4.021 -10.855  1.00  0.00     0.181 C 
HETATM    3  C   UNL     1     -22.085  -2.668 -11.497  1.00  0.00     0.188 C 
HETATM    4  C   UNL     1     -22.746  -2.554 -12.867  1.00  0.00     0.248 C 
HETATM    5  C   UNL     1     -24.238  -2.754 -12.724  1.00  0.00     0.291 C 
HETATM    6  O   UNL     1     -25.047  -2.101 -13.374  1.00  0.00    -0.262 OA
HETATM    7  O   UNL     1     -24.626  -3.828 -12.001  1.00  0.00    -0.309 OA
ENDROOT
BRANCH   1   8
HETATM    8  C   UNL     1     -24.561  -3.388  -9.634  1.00  0.00     0.199 C 
BRANCH   8   9
HETATM    9  O   UNL     1     -25.976  -3.320  -9.784  1.00  0.00    -0.398 OA
HETATM   10  H   UNL     1     -26.173  -2.555 -10.357  1.00  0.00     0.209 HD
ENDBRANCH   8   9
ENDBRANCH   1   8
BRANCH   2  11
HETATM   11  O   UNL     1     -21.847  -5.101 -11.599  1.00  0.00    -0.390 OA
HETATM   12  H   UNL     1     -21.262  -5.614 -11.007  1.00  0.00     0.210 HD
ENDBRANCH   2  11
BRANCH   3  13
HETATM   13  O   UNL     1     -20.670  -2.516 -11.630  1.00  0.00    -0.390 OA
HETATM   14  H   UNL     1     -20.464  -2.710 -12.567  1.00  0.00     0.210 HD
ENDBRANCH   3  13
BRANCH   4  15
HETATM   15  O   UNL     1     -22.220  -3.555 -13.752  1.00  0.00    -0.383 OA
HETATM   16  H   UNL     1     -22.614  -4.405 -13.472  1.00  0.00     0.210 HD
ENDBRANCH   4  15
TORSDOF 5
ENDMDL
MODEL 2
REMARK VINA RESULT:      -5.4      1.666      2.386
REMARK  5 active torsions:
REMARK  status: ('A' for Active; 'I' for Inactive)
REMARK    1  A    between atoms: C_1  and  C_2 
REMARK    2  A    between atoms: C_1  and  O_12 
REMARK    3  A    between atoms: C_3  and  O_11 
REMARK    4  A    between atoms: C_4  and  O_10 
REMARK    5  A    between atoms: C_5  and  O_9 
ROOT
HETATM    1  C   UNL     1     -22.643  -4.623  -9.742  1.00  0.00     0.186 C 
HETATM    2  C   UNL     1     -22.035  -4.166 -11.071  1.00  0.00     0.181 C 
HETATM    3  C   UNL     1     -22.700  -2.861 -11.527  1.00  0.00     0.188 C 
HETATM    4  C   UNL     1     -24.211  -3.039 -11.622  1.00  0.00     0.248 C 
HETATM    5  C   UNL     1     -24.747  -3.505 -10.286  1.00  0.00     0.291 C 
HETATM    6  O   UNL     1     -25.815  -3.103  -9.838  1.00  0.00    -0.262 OA
HETATM    7  O   UNL     1     -24.094  -4.541  -9.713  1.00  0.00    -0.309 OA
ENDROOT
BRANCH   1   8
HETATM    8  C   UNL     1     -22.112  -3.818  -8.550  1.00  0.00     0.199 C 
BRANCH   8   9
HETATM    9  O   UNL     1     -22.897  -4.069  -7.388  1.00  0.00    -0.398 OA
HETATM   10  H   UNL     1     -23.788  -3.704  -7.551  1.00  0.00     0.209 HD
ENDBRANCH   8   9
ENDBRANCH   1   8
BRANCH   2  11
HETATM   11  O   UNL     1     -22.193  -5.196 -12.051  1.00  0.00    -0.390 OA
HETATM   12  H   UNL     1     -22.196  -4.787 -12.939  1.00  0.00     0.210 HD
ENDBRANCH   2  11
BRANCH   3  13
HETATM   13  O   UNL     1     -22.181  -2.455 -12.796  1.00  0.00    -0.390 OA
HETATM   14  H   UNL     1     -21.789  -3.257 -13.196  1.00  0.00     0.210 HD
ENDBRANCH   3  13
BRANCH   4  15
HETATM   15  O   UNL     1     -24.529  -4.019 -12.623  1.00  0.00    -0.383 OA
HETATM   16  H   UNL     1     -24.906  -3.528 -13.380  1.00  0.00     0.210 HD
ENDBRANCH   4  15
TORSDOF 5
ENDMDL
MODEL 3
REMARK VINA RESULT:      -5.4      1.778      4.167
REMARK  5 active torsions:
REMARK  status: ('A' for Active; 'I' for Inactive)
REMARK    1  A    between atoms: C_1  and  C_2 
REMARK    2  A    between atoms: C_1  and  O_12 
REMARK    3  A    between atoms: C_3  and  O_11 
REMARK    4  A    between atoms: C_4  and  O_10 
REMARK    5  A    between atoms: C_5  and  O_9 
ROOT
HETATM    1  C   UNL     1     -21.848  -4.479 -10.951  1.00  0.00     0.186 C 
HETATM    2  C   UNL     1     -23.121  -4.172 -11.744  1.00  0.00     0.181 C 
HETATM    3  C   UNL     1     -24.018  -3.220 -10.943  1.00  0.00     0.188 C 
HETATM    4  C   UNL     1     -24.330  -3.810  -9.572  1.00  0.00     0.248 C 
HETATM    5  C   UNL     1     -23.036  -4.106  -8.846  1.00  0.00     0.291 C 
HETATM    6  O   UNL     1     -22.907  -3.916  -7.642  1.00  0.00    -0.262 OA
HETATM    7  O   UNL     1     -22.101  -4.782  -9.551  1.00  0.00    -0.309 OA
ENDROOT
BRANCH   1   8
HETATM    8  C   UNL     1     -20.839  -3.326 -10.997  1.00  0.00     0.199 C 
BRANCH   8   9
HETATM    9  O   UNL     1     -19.694  -3.695 -11.760  1.00  0.00    -0.398 OA
HETATM   10  H   UNL     1     -19.836  -4.607 -12.079  1.00  0.00     0.209 HD
ENDBRANCH   8   9
ENDBRANCH   1   8
BRANCH   2  11
HETATM   11  O   UNL     1     -23.804  -5.392 -12.049  1.00  0.00    -0.390 OA
HETATM   12  H   UNL     1     -24.290  -5.278 -12.889  1.00  0.00     0.210 HD
ENDBRANCH   2  11
BRANCH   3  13
HETATM   13  O   UNL     1     -25.236  -2.971 -11.649  1.00  0.00    -0.390 OA
HETATM   14  H   UNL     1     -25.922  -2.837 -10.965  1.00  0.00     0.210 HD
ENDBRANCH   3  13
BRANCH   4  15
HETATM   15  O   UNL     1     -25.074  -5.029  -9.720  1.00  0.00    -0.383 OA
HETATM   16  H   UNL     1     -26.008  -4.808  -9.528  1.00  0.00     0.210 HD
ENDBRANCH   4  15
TORSDOF 5
ENDMDL
MODEL 4
REMARK VINA RESULT:      -5.3      1.338      3.296
REMARK  5 active torsions:
REMARK  status: ('A' for Active; 'I' for Inactive)
REMARK    1  A    between atoms: C_1  and  C_2 
REMARK    2  A    between atoms: C_1  and  O_12 
REMARK    3  A    between atoms: C_3  and  O_11 
REMARK    4  A    between atoms: C_4  and  O_10 
REMARK    5  A    between atoms: C_5  and  O_9 
ROOT
HETATM    1  C   UNL     1     -23.454  -2.823 -12.475  1.00  0.00     0.186 C 
HETATM    2  C   UNL     1     -22.004  -3.245 -12.219  1.00  0.00     0.181 C 
HETATM    3  C   UNL     1     -21.974  -4.532 -11.386  1.00  0.00     0.188 C 
HETATM    4  C   UNL     1     -22.751  -4.342 -10.088  1.00  0.00     0.248 C 
HETATM    5  C   UNL     1     -24.166  -3.912 -10.406  1.00  0.00     0.291 C 
HETATM    6  O   UNL     1     -25.129  -4.321  -9.767  1.00  0.00    -0.262 OA
HETATM    7  O   UNL     1     -24.293  -2.898 -11.291  1.00  0.00    -0.309 OA
ENDROOT
BRANCH   1   8
HETATM    8  C   UNL     1     -24.122  -3.666 -13.567  1.00  0.00     0.199 C 
BRANCH   8   9
HETATM    9  O   UNL     1     -23.493  -3.442 -14.826  1.00  0.00    -0.398 OA
HETATM   10  H   UNL     1     -23.807  -4.135 -15.438  1.00  0.00     0.209 HD
ENDBRANCH   8   9
ENDBRANCH   1   8
BRANCH   2  11
HETATM   11  O   UNL     1     -21.305  -2.186 -11.559  1.00  0.00    -0.390 OA
HETATM   12  H   UNL     1     -21.009  -2.502 -10.683  1.00  0.00     0.210 HD
ENDBRANCH   2  11
BRANCH   3  13
HETATM   13  O   UNL     1     -20.626  -4.904 -11.092  1.00  0.00    -0.390 OA
HETATM   14  H   UNL     1     -20.380  -4.411 -10.283  1.00  0.00     0.210 HD
ENDBRANCH   3  13
BRANCH   4  15
HETATM   15  O   UNL     1     -22.122  -3.332  -9.282  1.00  0.00    -0.383 OA
HETATM   16  H   UNL     1     -21.315  -3.739  -8.910  1.00  0.00     0.210 HD
ENDBRANCH   4  15
TORSDOF 5
ENDMDL
MODEL 5
REMARK VINA RESULT:      -5.2      1.772      3.276
REMARK  5 active torsions:
REMARK  status: ('A' for Active; 'I' for Inactive)
REMARK    1  A    between atoms: C_1  and  C_2 
REMARK    2  A    between atoms: C_1  and  O_12 
REMARK    3  A    between atoms: C_3  and  O_11 
REMARK    4  A    between atoms: C_4  and  O_10 
REMARK    5  A    between atoms: C_5  and  O_9 
ROOT
HETATM    1  C   UNL     1     -23.711  -3.258  -9.748  1.00  0.00     0.186 C 
HETATM    2  C   UNL     1     -24.238  -3.476 -11.169  1.00  0.00     0.181 C 
HETATM    3  C   UNL     1     -23.513  -4.662 -11.818  1.00  0.00     0.188 C 
HETATM    4  C   UNL     1     -22.005  -4.439 -11.797  1.00  0.00     0.248 C 
HETATM    5  C   UNL     1     -21.549  -4.214 -10.372  1.00  0.00     0.291 C 
HETATM    6  O   UNL     1     -20.494  -4.671  -9.947  1.00  0.00    -0.262 OA
HETATM    7  O   UNL     1     -22.261  -3.315  -9.656  1.00  0.00    -0.309 OA
ENDROOT
BRANCH   1   8
HETATM    8  C   UNL     1     -24.276  -4.279  -8.754  1.00  0.00     0.199 C 
BRANCH   8   9
HETATM    9  O   UNL     1     -23.632  -4.154  -7.489  1.00  0.00    -0.398 OA
HETATM   10  H   UNL     1     -24.277  -3.762  -6.869  1.00  0.00     0.209 HD
ENDBRANCH   8   9
ENDBRANCH   1   8
BRANCH   2  11
HETATM   11  O   UNL     1     -24.062  -2.281 -11.935  1.00  0.00    -0.390 OA
HETATM   12  H   UNL     1     -24.309  -2.464 -12.863  1.00  0.00     0.210 HD
ENDBRANCH   2  11
BRANCH   3  13
HETATM   13  O   UNL     1     -23.956  -4.839 -13.166  1.00  0.00    -0.390 OA
HETATM   14  H   UNL     1     -23.163  -4.722 -13.728  1.00  0.00     0.210 HD
ENDBRANCH   3  13
BRANCH   4  15
HETATM   15  O   UNL     1     -21.667  -3.286 -12.585  1.00  0.00    -0.383 OA
HETATM   16  H   UNL     1     -22.492  -2.771 -12.687  1.00  0.00     0.210 HD
ENDBRANCH   4  15
TORSDOF 5
ENDMDL
MODEL 6
REMARK VINA RESULT:      -5.1      1.610      3.632
REMARK  5 active torsions:
REMARK  status: ('A' for Active; 'I' for Inactive)
REMARK    1  A    between atoms: C_1  and  C_2 
REMARK    2  A    between atoms: C_1  and  O_12 
REMARK    3  A    between atoms: C_3  and  O_11 
REMARK    4  A    between atoms: C_4  and  O_10 
REMARK    5  A    between atoms: C_5  and  O_9 
ROOT
HETATM    1  C   UNL     1     -21.694  -3.469 -10.223  1.00  0.00     0.186 C 
HETATM    2  C   UNL     1     -22.800  -4.199  -9.455  1.00  0.00     0.181 C 
HETATM    3  C   UNL     1     -23.757  -4.881 -10.440  1.00  0.00     0.188 C 
HETATM    4  C   UNL     1     -24.323  -3.861 -11.423  1.00  0.00     0.248 C 
HETATM    5  C   UNL     1     -23.185  -3.165 -12.137  1.00  0.00     0.291 C 
HETATM    6  O   UNL     1     -23.244  -2.874 -13.326  1.00  0.00    -0.262 OA
HETATM    7  O   UNL     1     -22.189  -2.697 -11.351  1.00  0.00    -0.309 OA
ENDROOT
BRANCH   1   8
HETATM    8  C   UNL     1     -20.624  -4.429 -10.757  1.00  0.00     0.199 C 
BRANCH   8   9
HETATM    9  O   UNL     1     -19.888  -3.818 -11.813  1.00  0.00    -0.398 OA
HETATM   10  H   UNL     1     -20.401  -3.048 -12.121  1.00  0.00     0.209 HD
ENDBRANCH   8   9
ENDBRANCH   1   8
BRANCH   2  11
HETATM   11  O   UNL     1     -23.495  -3.271  -8.617  1.00  0.00    -0.390 OA
HETATM   12  H   UNL     1     -22.851  -2.848  -8.015  1.00  0.00     0.210 HD
ENDBRANCH   2  11
BRANCH   3  13
HETATM   13  O   UNL     1     -24.827  -5.517  -9.736  1.00  0.00    -0.390 OA
HETATM   14  H   UNL     1     -24.489  -5.692  -8.835  1.00  0.00     0.210 HD
ENDBRANCH   3  13
BRANCH   4  15
HETATM   15  O   UNL     1     -25.105  -2.882 -10.721  1.00  0.00    -0.383 OA
HETATM   16  H   UNL     1     -26.026  -2.991 -11.030  1.00  0.00     0.210 HD
ENDBRANCH   4  15
TORSDOF 5
ENDMDL
MODEL 7
REMARK VINA RESULT:      -5.1      6.870      8.375
REMARK  5 active torsions:
REMARK  status: ('A' for Active; 'I' for Inactive)
REMARK    1  A    between atoms: C_1  and  C_2 
REMARK    2  A    between atoms: C_1  and  O_12 
REMARK    3  A    between atoms: C_3  and  O_11 
REMARK    4  A    between atoms: C_4  and  O_10 
REMARK    5  A    between atoms: C_5  and  O_9 
ROOT
HETATM    1  C   UNL     1     -26.945  -6.230 -16.119  1.00  0.00     0.186 C 
HETATM    2  C   UNL     1     -28.381  -6.708 -15.884  1.00  0.00     0.181 C 
HETATM    3  C   UNL     1     -28.874  -7.498 -17.103  1.00  0.00     0.188 C 
HETATM    4  C   UNL     1     -28.754  -6.654 -18.367  1.00  0.00     0.248 C 
HETATM    5  C   UNL     1     -27.320  -6.201 -18.535  1.00  0.00     0.291 C 
HETATM    6  O   UNL     1     -26.779  -6.148 -19.633  1.00  0.00    -0.262 OA
HETATM    7  O   UNL     1     -26.736  -5.662 -17.441  1.00  0.00    -0.309 OA
ENDROOT
BRANCH   1   8
HETATM    8  C   UNL     1     -25.919  -7.354 -15.934  1.00  0.00     0.199 C 
BRANCH   8   9
HETATM    9  O   UNL     1     -24.925  -6.972 -14.987  1.00  0.00    -0.398 OA
HETATM   10  H   UNL     1     -24.975  -6.002 -14.885  1.00  0.00     0.209 HD
ENDBRANCH   8   9
ENDBRANCH   1   8
BRANCH   2  11
HETATM   11  O   UNL     1     -29.225  -5.583 -15.621  1.00  0.00    -0.390 OA
HETATM   12  H   UNL     1     -30.134  -5.903 -15.461  1.00  0.00     0.210 HD
ENDBRANCH   2  11
BRANCH   3  13
HETATM   13  O   UNL     1     -30.234  -7.900 -16.919  1.00  0.00    -0.390 OA
HETATM   14  H   UNL     1     -30.418  -8.558 -17.619  1.00  0.00     0.210 HD
ENDBRANCH   3  13
BRANCH   4  15
HETATM   15  O   UNL     1     -29.603  -5.499 -18.270  1.00  0.00    -0.383 OA
HETATM   16  H   UNL     1     -30.156  -5.629 -17.474  1.00  0.00     0.210 HD
ENDBRANCH   4  15
TORSDOF 5
ENDMDL
MODEL 8
REMARK VINA RESULT:      -5.1     10.146     11.283
REMARK  5 active torsions:
REMARK  status: ('A' for Active; 'I' for Inactive)
REMARK    1  A    between atoms: C_1  and  C_2 
REMARK    2  A    between atoms: C_1  and  O_12 
REMARK    3  A    between atoms: C_3  and  O_11 
REMARK    4  A    between atoms: C_4  and  O_10 
REMARK    5  A    between atoms: C_5  and  O_9 
ROOT
HETATM    1  C   UNL     1     -33.351  -3.941 -11.028  1.00  0.00     0.186 C 
HETATM    2  C   UNL     1     -34.176  -2.837 -10.360  1.00  0.00     0.181 C 
HETATM    3  C   UNL     1     -35.456  -2.581 -11.165  1.00  0.00     0.188 C 
HETATM    4  C   UNL     1     -35.113  -2.240 -12.612  1.00  0.00     0.248 C 
HETATM    5  C   UNL     1     -34.288  -3.357 -13.210  1.00  0.00     0.291 C 
HETATM    6  O   UNL     1     -34.437  -3.728 -14.369  1.00  0.00    -0.262 OA
HETATM    7  O   UNL     1     -33.240  -3.783 -12.469  1.00  0.00    -0.309 OA
ENDROOT
BRANCH   1   8
HETATM    8  C   UNL     1     -33.922  -5.338 -10.760  1.00  0.00     0.199 C 
BRANCH   8   9
HETATM    9  O   UNL     1     -33.043  -6.341 -11.263  1.00  0.00    -0.398 OA
HETATM   10  H   UNL     1     -32.177  -5.919 -11.423  1.00  0.00     0.209 HD
ENDBRANCH   8   9
ENDBRANCH   1   8
BRANCH   2  11
HETATM   11  O   UNL     1     -33.388  -1.648 -10.249  1.00  0.00    -0.390 OA
HETATM   12  H   UNL     1     -33.436  -1.160 -11.095  1.00  0.00     0.210 HD
ENDBRANCH   2  11
BRANCH   3  13
HETATM   13  O   UNL     1     -36.206  -1.512 -10.582  1.00  0.00    -0.390 OA
HETATM   14  H   UNL     1     -36.771  -1.923  -9.897  1.00  0.00     0.210 HD
ENDBRANCH   3  13
BRANCH   4  15
HETATM   15  O   UNL     1     -34.359  -1.019 -12.664  1.00  0.00    -0.383 OA
HETATM   16  H   UNL     1     -34.742  -0.428 -11.985  1.00  0.00     0.210 HD
ENDBRANCH   4  15
TORSDOF 5
ENDMDL
MODEL 9
REMARK VINA RESULT:      -5.0     11.280     13.095
REMARK  5 active torsions:
REMARK  status: ('A' for Active; 'I' for Inactive)
REMARK    1  A    between atoms: C_1  and  C_2 
REMARK    2  A    between atoms: C_1  and  O_12 
REMARK    3  A    between atoms: C_3  and  O_11 
REMARK    4  A    between atoms: C_4  and  O_10 
REMARK    5  A    between atoms: C_5  and  O_9 
ROOT
HETATM    1  C   UNL     1     -36.236  -0.468 -13.243  1.00  0.00     0.186 C 
HETATM    2  C   UNL     1     -36.740  -0.246 -11.814  1.00  0.00     0.181 C 
HETATM    3  C   UNL     1     -35.679  -0.711 -10.808  1.00  0.00     0.188 C 
HETATM    4  C   UNL     1     -35.309  -2.168 -11.063  1.00  0.00     0.248 C 
HETATM    5  C   UNL     1     -34.836  -2.325 -12.491  1.00  0.00     0.291 C 
HETATM    6  O   UNL     1     -33.905  -3.065 -12.790  1.00  0.00    -0.262 OA
HETATM    7  O   UNL     1     -35.622  -1.770 -13.441  1.00  0.00    -0.309 OA
ENDROOT
BRANCH   1   8
HETATM    8  C   UNL     1     -35.217   0.593 -13.673  1.00  0.00     0.199 C 
BRANCH   8   9
HETATM    9  O   UNL     1     -34.613   0.231 -14.912  1.00  0.00    -0.398 OA
HETATM   10  H   UNL     1     -33.868  -0.367 -14.711  1.00  0.00     0.209 HD
ENDBRANCH   8   9
ENDBRANCH   1   8
BRANCH   2  11
HETATM   11  O   UNL     1     -37.973  -0.946 -11.624  1.00  0.00    -0.390 OA
HETATM   12  H   UNL     1     -38.025  -1.245 -10.695  1.00  0.00     0.210 HD
ENDBRANCH   2  11
BRANCH   3  13
HETATM   13  O   UNL     1     -36.161  -0.562  -9.470  1.00  0.00    -0.390 OA
HETATM   14  H   UNL     1     -35.432  -0.147  -8.966  1.00  0.00     0.210 HD
ENDBRANCH   3  13
BRANCH   4  15
HETATM   15  O   UNL     1     -36.453  -3.010 -10.852  1.00  0.00    -0.383 OA
HETATM   16  H   UNL     1     -36.422  -3.698 -11.547  1.00  0.00     0.210 HD
ENDBRANCH   4  15
TORSDOF 5
ENDMDL
