MODEL 1
REMARK VINA RESULT:      -9.2      0.000      0.000
REMARK  5 active torsions:
REMARK  status: ('A' for Active; 'I' for Inactive)
REMARK       I    between atoms: N_4  and  C_7 
REMARK    1  A    between atoms: C_7  and  C_9 
REMARK    2  A    between atoms: C_9  and  C_10 
REMARK    3  A    between atoms: C_10  and  C_11 
REMARK    4  A    between atoms: C_11  and  C_12 
REMARK    5  A    between atoms: C_12  and  C_13 
ROOT
HETATM    1  C   UNL     1     -20.998  -3.906  -7.083  1.00  0.00     0.005 C 
ENDROOT
BRANCH   1   2
HETATM    2  C   UNL     1     -20.600  -4.966  -6.051  1.00  0.00     0.010 C 
BRANCH   2   3
HETATM    3  C   UNL     1     -21.777  -5.841  -5.618  1.00  0.00     0.103 C 
BRANCH   3   4
HETATM    4  C   UNL     1     -21.349  -7.177  -5.039  1.00  0.00     0.219 C 
HETATM    5  N   UNL     1     -21.059  -7.195  -3.680  1.00  0.00    -0.352 N 
HETATM    6  C   UNL     1     -20.631  -8.442  -3.057  1.00  0.00     0.125 C 
HETATM    7  C   UNL     1     -21.257  -6.083  -2.747  1.00  0.00     0.125 C 
HETATM    8  C   UNL     1     -21.649  -8.886  -2.010  1.00  0.00     0.020 C 
HETATM    9  C   UNL     1     -21.908  -7.775  -0.991  1.00  0.00     0.003 C 
HETATM   10  C   UNL     1     -22.285  -6.463  -1.682  1.00  0.00     0.020 C 
HETATM   11  O   UNL     1     -21.252  -8.180  -5.748  1.00  0.00    -0.273 OA
ENDBRANCH   3   4
ENDBRANCH   2   3
ENDBRANCH   1   2
BRANCH   1  12
HETATM   12  C   UNL     1     -20.759  -4.358  -8.527  1.00  0.00     0.038 C 
BRANCH  12  13
HETATM   13  C   UNL     1     -21.920  -4.017  -9.426  1.00  0.00    -0.055 A 
HETATM   14  C   UNL     1     -21.691  -3.655 -10.764  1.00  0.00     0.047 A 
HETATM   15  C   UNL     1     -22.781  -3.338 -11.545  1.00  0.00     0.105 A 
HETATM   16  C   UNL     1     -24.062  -3.370 -11.047  1.00  0.00     0.105 A 
HETATM   17  O   UNL     1     -22.740  -2.962 -12.852  1.00  0.00    -0.323 OA
HETATM   18  C   UNL     1     -24.326  -3.723  -9.744  1.00  0.00     0.040 A 
HETATM   19  O   UNL     1     -24.988  -3.016 -11.979  1.00  0.00    -0.323 OA
HETATM   20  C   UNL     1     -23.239  -4.045  -8.924  1.00  0.00     0.010 A 
HETATM   21  C   UNL     1     -24.137  -2.704 -13.101  1.00  0.00     0.352 A 
ENDBRANCH  12  13
ENDBRANCH   1  12
TORSDOF 5
ENDMDL
MODEL 2
REMARK VINA RESULT:      -8.7      1.178      1.839
REMARK  5 active torsions:
REMARK  status: ('A' for Active; 'I' for Inactive)
REMARK       I    between atoms: N_4  and  C_7 
REMARK    1  A    between atoms: C_7  and  C_9 
REMARK    2  A    between atoms: C_9  and  C_10 
REMARK    3  A    between atoms: C_10  and  C_11 
REMARK    4  A    between atoms: C_11  and  C_12 
REMARK    5  A    between atoms: C_12  and  C_13 
ROOT
HETATM    1  C   UNL     1     -20.791  -3.999  -6.949  1.00  0.00     0.005 C 
ENDROOT
BRANCH   1   2
HETATM    2  C   UNL     1     -20.543  -4.970  -5.789  1.00  0.00     0.010 C 
BRANCH   2   3
HETATM    3  C   UNL     1     -21.616  -6.055  -5.687  1.00  0.00     0.103 C 
BRANCH   3   4
HETATM    4  C   UNL     1     -21.758  -6.626  -4.288  1.00  0.00     0.219 C 
HETATM    5  N   UNL     1     -21.237  -7.899  -4.087  1.00  0.00    -0.352 N 
HETATM    6  C   UNL     1     -21.347  -8.516  -2.769  1.00  0.00     0.125 C 
HETATM    7  C   UNL     1     -20.455  -8.668  -5.057  1.00  0.00     0.125 C 
HETATM    8  C   UNL     1     -19.960  -8.745  -2.176  1.00  0.00     0.020 C 
HETATM    9  C   UNL     1     -19.080  -9.550  -3.134  1.00  0.00     0.003 C 
HETATM   10  C   UNL     1     -19.044  -8.914  -4.525  1.00  0.00     0.020 C 
HETATM   11  O   UNL     1     -22.322  -5.994  -3.394  1.00  0.00    -0.273 OA
ENDBRANCH   3   4
ENDBRANCH   2   3
ENDBRANCH   1   2
BRANCH   1  12
HETATM   12  C   UNL     1     -20.758  -4.683  -8.319  1.00  0.00     0.038 C 
BRANCH  12  13
HETATM   13  C   UNL     1     -21.910  -4.257  -9.192  1.00  0.00    -0.055 A 
HETATM   14  C   UNL     1     -21.697  -3.984 -10.554  1.00  0.00     0.047 A 
HETATM   15  C   UNL     1     -22.776  -3.584 -11.311  1.00  0.00     0.105 A 
HETATM   16  C   UNL     1     -24.032  -3.450 -10.767  1.00  0.00     0.105 A 
HETATM   17  O   UNL     1     -22.747  -3.274 -12.635  1.00  0.00    -0.323 OA
HETATM   18  C   UNL     1     -24.280  -3.713  -9.439  1.00  0.00     0.040 A 
HETATM   19  O   UNL     1     -24.951  -3.039 -11.683  1.00  0.00    -0.323 OA
HETATM   20  C   UNL     1     -23.203  -4.115  -8.643  1.00  0.00     0.010 A 
HETATM   21  C   UNL     1     -24.117  -2.874 -12.847  1.00  0.00     0.352 A 
ENDBRANCH  12  13
ENDBRANCH   1  12
TORSDOF 5
ENDMDL
MODEL 3
REMARK VINA RESULT:      -8.6      1.190      1.987
REMARK  5 active torsions:
REMARK  status: ('A' for Active; 'I' for Inactive)
REMARK       I    between atoms: N_4  and  C_7 
REMARK    1  A    between atoms: C_7  and  C_9 
REMARK    2  A    between atoms: C_9  and  C_10 
REMARK    3  A    between atoms: C_10  and  C_11 
REMARK    4  A    between atoms: C_11  and  C_12 
REMARK    5  A    between atoms: C_12  and  C_13 
ROOT
HETATM    1  C   UNL     1     -20.426  -4.843  -6.130  1.00  0.00     0.005 C 
ENDROOT
BRANCH   1   2
HETATM    2  C   UNL     1     -20.733  -6.330  -5.924  1.00  0.00     0.010 C 
BRANCH   2   3
HETATM    3  C   UNL     1     -21.684  -6.580  -4.752  1.00  0.00     0.103 C 
BRANCH   3   4
HETATM    4  C   UNL     1     -21.519  -7.954  -4.129  1.00  0.00     0.219 C 
HETATM    5  N   UNL     1     -21.287  -7.986  -2.759  1.00  0.00    -0.352 N 
HETATM    6  C   UNL     1     -21.107  -9.273  -2.095  1.00  0.00     0.125 C 
HETATM    7  C   UNL     1     -21.322  -6.833  -1.857  1.00  0.00     0.125 C 
HETATM    8  C   UNL     1     -22.225  -9.505  -1.083  1.00  0.00     0.020 C 
HETATM    9  C   UNL     1     -22.324  -8.338  -0.097  1.00  0.00     0.003 C 
HETATM   10  C   UNL     1     -22.439  -7.000  -0.828  1.00  0.00     0.020 C 
HETATM   11  O   UNL     1     -21.573  -8.977  -4.815  1.00  0.00    -0.273 OA
ENDBRANCH   3   4
ENDBRANCH   2   3
ENDBRANCH   1   2
BRANCH   1  12
HETATM   12  C   UNL     1     -19.659  -4.565  -7.427  1.00  0.00     0.038 C 
BRANCH  12  13
HETATM   13  C   UNL     1     -20.585  -4.323  -8.591  1.00  0.00    -0.055 A 
HETATM   14  C   UNL     1     -21.910  -3.914  -8.363  1.00  0.00     0.047 A 
HETATM   15  C   UNL     1     -22.725  -3.718  -9.457  1.00  0.00     0.105 A 
HETATM   16  C   UNL     1     -22.272  -3.911 -10.740  1.00  0.00     0.105 A 
HETATM   17  O   UNL     1     -24.028  -3.331  -9.417  1.00  0.00    -0.323 OA
HETATM   18  C   UNL     1     -20.980  -4.307 -11.003  1.00  0.00     0.040 A 
HETATM   19  O   UNL     1     -23.235  -3.670 -11.670  1.00  0.00    -0.323 OA
HETATM   20  C   UNL     1     -20.130  -4.520  -9.914  1.00  0.00     0.010 A 
HETATM   21  C   UNL     1     -24.359  -3.360 -10.822  1.00  0.00     0.352 A 
ENDBRANCH  12  13
ENDBRANCH   1  12
TORSDOF 5
ENDMDL
MODEL 4
REMARK VINA RESULT:      -8.5      1.749      2.927
REMARK  5 active torsions:
REMARK  status: ('A' for Active; 'I' for Inactive)
REMARK       I    between atoms: N_4  and  C_7 
REMARK    1  A    between atoms: C_7  and  C_9 
REMARK    2  A    between atoms: C_9  and  C_10 
REMARK    3  A    between atoms: C_10  and  C_11 
REMARK    4  A    between atoms: C_11  and  C_12 
REMARK    5  A    between atoms: C_12  and  C_13 
ROOT
HETATM    1  C   UNL     1     -21.253  -5.660  -5.740  1.00  0.00     0.005 C 
ENDROOT
BRANCH   1   2
HETATM    2  C   UNL     1     -20.838  -5.809  -4.272  1.00  0.00     0.010 C 
BRANCH   2   3
HETATM    3  C   UNL     1     -21.423  -7.062  -3.618  1.00  0.00     0.103 C 
BRANCH   3   4
HETATM    4  C   UNL     1     -21.964  -6.811  -2.222  1.00  0.00     0.219 C 
HETATM    5  N   UNL     1     -22.142  -7.932  -1.420  1.00  0.00    -0.352 N 
HETATM    6  C   UNL     1     -22.669  -7.767  -0.069  1.00  0.00     0.125 C 
HETATM    7  C   UNL     1     -21.732  -9.298  -1.753  1.00  0.00     0.125 C 
HETATM    8  C   UNL     1     -21.632  -8.208   0.959  1.00  0.00     0.020 C 
HETATM    9  C   UNL     1     -21.154  -9.636   0.680  1.00  0.00     0.003 C 
HETATM   10  C   UNL     1     -20.676  -9.790  -0.764  1.00  0.00     0.020 C 
HETATM   11  O   UNL     1     -22.242  -5.674  -1.839  1.00  0.00    -0.273 OA
ENDBRANCH   3   4
ENDBRANCH   2   3
ENDBRANCH   1   2
BRANCH   1  12
HETATM   12  C   UNL     1     -20.474  -4.563  -6.473  1.00  0.00     0.038 C 
BRANCH  12  13
HETATM   13  C   UNL     1     -21.046  -4.278  -7.837  1.00  0.00    -0.055 A 
HETATM   14  C   UNL     1     -22.403  -3.940  -7.975  1.00  0.00     0.047 A 
HETATM   15  C   UNL     1     -22.886  -3.702  -9.243  1.00  0.00     0.105 A 
HETATM   16  C   UNL     1     -22.079  -3.787 -10.353  1.00  0.00     0.105 A 
HETATM   17  O   UNL     1     -24.169  -3.373  -9.556  1.00  0.00    -0.323 OA
HETATM   18  C   UNL     1     -20.745  -4.111 -10.257  1.00  0.00     0.040 A 
HETATM   19  O   UNL     1     -22.754  -3.522 -11.504  1.00  0.00    -0.323 OA
HETATM   20  C   UNL     1     -20.226  -4.364  -8.984  1.00  0.00     0.010 A 
HETATM   21  C   UNL     1     -24.087  -3.318 -10.996  1.00  0.00     0.352 A 
ENDBRANCH  12  13
ENDBRANCH   1  12
TORSDOF 5
ENDMDL
MODEL 5
REMARK VINA RESULT:      -8.3      2.674      8.845
REMARK  5 active torsions:
REMARK  status: ('A' for Active; 'I' for Inactive)
REMARK       I    between atoms: N_4  and  C_7 
REMARK    1  A    between atoms: C_7  and  C_9 
REMARK    2  A    between atoms: C_9  and  C_10 
REMARK    3  A    between atoms: C_10  and  C_11 
REMARK    4  A    between atoms: C_11  and  C_12 
REMARK    5  A    between atoms: C_12  and  C_13 
ROOT
HETATM    1  C   UNL     1     -20.706  -6.590  -5.997  1.00  0.00     0.005 C 
ENDROOT
BRANCH   1   2
HETATM    2  C   UNL     1     -20.298  -5.682  -7.161  1.00  0.00     0.010 C 
BRANCH   2   3
HETATM    3  C   UNL     1     -20.929  -4.291  -7.074  1.00  0.00     0.103 C 
BRANCH   3   4
HETATM    4  C   UNL     1     -22.314  -4.223  -7.691  1.00  0.00     0.219 C 
HETATM    5  N   UNL     1     -22.381  -3.781  -9.007  1.00  0.00    -0.352 N 
HETATM    6  C   UNL     1     -23.682  -3.680  -9.661  1.00  0.00     0.125 C 
HETATM    7  C   UNL     1     -21.237  -3.509  -9.880  1.00  0.00     0.125 C 
HETATM    8  C   UNL     1     -23.755  -4.642 -10.842  1.00  0.00     0.020 C 
HETATM    9  C   UNL     1     -22.588  -4.417 -11.807  1.00  0.00     0.003 C 
HETATM   10  C   UNL     1     -21.246  -4.459 -11.076  1.00  0.00     0.020 C 
HETATM   11  O   UNL     1     -23.317  -4.528  -7.044  1.00  0.00    -0.273 OA
ENDBRANCH   3   4
ENDBRANCH   2   3
ENDBRANCH   1   2
BRANCH   1  12
HETATM   12  C   UNL     1     -20.933  -5.822  -4.690  1.00  0.00     0.038 C 
BRANCH  12  13
HETATM   13  C   UNL     1     -21.213  -6.745  -3.532  1.00  0.00    -0.055 A 
HETATM   14  C   UNL     1     -21.970  -6.293  -2.439  1.00  0.00     0.047 A 
HETATM   15  C   UNL     1     -22.189  -7.167  -1.396  1.00  0.00     0.105 A 
HETATM   16  C   UNL     1     -21.688  -8.447  -1.408  1.00  0.00     0.105 A 
HETATM   17  O   UNL     1     -22.891  -6.893  -0.264  1.00  0.00    -0.323 OA
HETATM   18  C   UNL     1     -20.945  -8.927  -2.463  1.00  0.00     0.040 A 
HETATM   19  O   UNL     1     -22.012  -9.140  -0.283  1.00  0.00    -0.323 OA
HETATM   20  C   UNL     1     -20.701  -8.062  -3.534  1.00  0.00     0.010 A 
HETATM   21  C   UNL     1     -22.723  -8.130   0.461  1.00  0.00     0.352 A 
ENDBRANCH  12  13
ENDBRANCH   1  12
TORSDOF 5
ENDMDL
MODEL 6
REMARK VINA RESULT:      -8.2      2.586      8.856
REMARK  5 active torsions:
REMARK  status: ('A' for Active; 'I' for Inactive)
REMARK       I    between atoms: N_4  and  C_7 
REMARK    1  A    between atoms: C_7  and  C_9 
REMARK    2  A    between atoms: C_9  and  C_10 
REMARK    3  A    between atoms: C_10  and  C_11 
REMARK    4  A    between atoms: C_11  and  C_12 
REMARK    5  A    between atoms: C_12  and  C_13 
ROOT
HETATM    1  C   UNL     1     -20.076  -5.744  -6.314  1.00  0.00     0.005 C 
ENDROOT
BRANCH   1   2
HETATM    2  C   UNL     1     -21.092  -5.932  -7.447  1.00  0.00     0.010 C 
BRANCH   2   3
HETATM    3  C   UNL     1     -21.680  -4.608  -7.938  1.00  0.00     0.103 C 
BRANCH   3   4
HETATM    4  C   UNL     1     -21.238  -4.242  -9.343  1.00  0.00     0.219 C 
HETATM    5  N   UNL     1     -22.201  -4.348 -10.339  1.00  0.00    -0.352 N 
HETATM    6  C   UNL     1     -21.844  -4.022 -11.716  1.00  0.00     0.125 C 
HETATM    7  C   UNL     1     -23.619  -4.649 -10.132  1.00  0.00     0.125 C 
HETATM    8  C   UNL     1     -22.652  -2.822 -12.201  1.00  0.00     0.020 C 
HETATM    9  C   UNL     1     -24.153  -3.062 -12.020  1.00  0.00     0.003 C 
HETATM   10  C   UNL     1     -24.482  -3.471 -10.583  1.00  0.00     0.020 C 
HETATM   11  O   UNL     1     -20.081  -3.887  -9.577  1.00  0.00    -0.273 OA
ENDBRANCH   3   4
ENDBRANCH   2   3
ENDBRANCH   1   2
BRANCH   1  12
HETATM   12  C   UNL     1     -20.709  -5.203  -5.028  1.00  0.00     0.038 C 
BRANCH  12  13
HETATM   13  C   UNL     1     -21.015  -6.302  -4.043  1.00  0.00    -0.055 A 
HETATM   14  C   UNL     1     -21.581  -5.991  -2.795  1.00  0.00     0.047 A 
HETATM   15  C   UNL     1     -21.831  -7.026  -1.921  1.00  0.00     0.105 A 
HETATM   16  C   UNL     1     -21.542  -8.331  -2.242  1.00  0.00     0.105 A 
HETATM   17  O   UNL     1     -22.366  -6.903  -0.676  1.00  0.00    -0.323 OA
HETATM   18  C   UNL     1     -20.991  -8.675  -3.456  1.00  0.00     0.040 A 
HETATM   19  O   UNL     1     -21.859  -9.193  -1.239  1.00  0.00    -0.323 OA
HETATM   20  C   UNL     1     -20.720  -7.646  -4.363  1.00  0.00     0.010 A 
HETATM   21  C   UNL     1     -22.326  -8.275  -0.230  1.00  0.00     0.352 A 
ENDBRANCH  12  13
ENDBRANCH   1  12
TORSDOF 5
ENDMDL
MODEL 7
REMARK VINA RESULT:      -7.9      2.829      9.307
REMARK  5 active torsions:
REMARK  status: ('A' for Active; 'I' for Inactive)
REMARK       I    between atoms: N_4  and  C_7 
REMARK    1  A    between atoms: C_7  and  C_9 
REMARK    2  A    between atoms: C_9  and  C_10 
REMARK    3  A    between atoms: C_10  and  C_11 
REMARK    4  A    between atoms: C_11  and  C_12 
REMARK    5  A    between atoms: C_12  and  C_13 
ROOT
HETATM    1  C   UNL     1     -21.635  -6.318  -3.310  1.00  0.00     0.005 C 
ENDROOT
BRANCH   1   2
HETATM    2  C   UNL     1     -21.302  -6.689  -4.759  1.00  0.00     0.010 C 
BRANCH   2   3
HETATM    3  C   UNL     1     -20.895  -5.478  -5.600  1.00  0.00     0.103 C 
BRANCH   3   4
HETATM    4  C   UNL     1     -22.007  -4.975  -6.503  1.00  0.00     0.219 C 
HETATM    5  N   UNL     1     -21.612  -4.251  -7.622  1.00  0.00    -0.352 N 
HETATM    6  C   UNL     1     -22.628  -3.727  -8.529  1.00  0.00     0.125 C 
HETATM    7  C   UNL     1     -20.232  -4.049  -8.069  1.00  0.00     0.125 C 
HETATM    8  C   UNL     1     -22.485  -4.366  -9.907  1.00  0.00     0.020 C 
HETATM    9  C   UNL     1     -21.064  -4.193 -10.447  1.00  0.00     0.003 C 
HETATM   10  C   UNL     1     -20.022  -4.687  -9.442  1.00  0.00     0.020 C 
HETATM   11  O   UNL     1     -23.191  -5.190  -6.239  1.00  0.00    -0.273 OA
ENDBRANCH   3   4
ENDBRANCH   2   3
ENDBRANCH   1   2
BRANCH   1  12
HETATM   12  C   UNL     1     -20.845  -7.141  -2.287  1.00  0.00     0.038 C 
BRANCH  12  13
HETATM   13  C   UNL     1     -21.712  -8.158  -1.590  1.00  0.00    -0.055 A 
HETATM   14  C   UNL     1     -21.867  -9.443  -2.136  1.00  0.00     0.047 A 
HETATM   15  C   UNL     1     -22.680 -10.336  -1.473  1.00  0.00     0.105 A 
HETATM   16  C   UNL     1     -23.328  -9.997  -0.308  1.00  0.00     0.105 A 
HETATM   17  O   UNL     1     -22.946 -11.611  -1.864  1.00  0.00    -0.323 OA
HETATM   18  C   UNL     1     -23.197  -8.750   0.259  1.00  0.00     0.040 A 
HETATM   19  O   UNL     1     -24.083 -11.018   0.179  1.00  0.00    -0.323 OA
HETATM   20  C   UNL     1     -22.383  -7.819  -0.394  1.00  0.00     0.010 A 
HETATM   21  C   UNL     1     -23.881 -12.016  -0.842  1.00  0.00     0.352 A 
ENDBRANCH  12  13
ENDBRANCH   1  12
TORSDOF 5
ENDMDL
MODEL 8
REMARK VINA RESULT:      -7.5      2.891      5.021
REMARK  5 active torsions:
REMARK  status: ('A' for Active; 'I' for Inactive)
REMARK       I    between atoms: N_4  and  C_7 
REMARK    1  A    between atoms: C_7  and  C_9 
REMARK    2  A    between atoms: C_9  and  C_10 
REMARK    3  A    between atoms: C_10  and  C_11 
REMARK    4  A    between atoms: C_11  and  C_12 
REMARK    5  A    between atoms: C_12  and  C_13 
ROOT
HETATM    1  C   UNL     1     -21.436  -6.032  -2.790  1.00  0.00     0.005 C 
ENDROOT
BRANCH   1   2
HETATM    2  C   UNL     1     -22.233  -6.475  -1.558  1.00  0.00     0.010 C 
BRANCH   2   3
HETATM    3  C   UNL     1     -21.671  -7.745  -0.917  1.00  0.00     0.103 C 
BRANCH   3   4
HETATM    4  C   UNL     1     -22.732  -8.596  -0.243  1.00  0.00     0.219 C 
HETATM    5  N   UNL     1     -22.949  -9.856  -0.787  1.00  0.00    -0.352 N 
HETATM    6  C   UNL     1     -23.962 -10.724  -0.196  1.00  0.00     0.125 C 
HETATM    7  C   UNL     1     -22.161 -10.476  -1.854  1.00  0.00     0.125 C 
HETATM    8  C   UNL     1     -23.312 -11.982   0.373  1.00  0.00     0.020 C 
HETATM    9  C   UNL     1     -22.470 -12.693  -0.689  1.00  0.00     0.003 C 
HETATM   10  C   UNL     1     -21.468 -11.736  -1.336  1.00  0.00     0.020 C 
HETATM   11  O   UNL     1     -23.370  -8.173   0.723  1.00  0.00    -0.273 OA
ENDBRANCH   3   4
ENDBRANCH   2   3
ENDBRANCH   1   2
BRANCH   1  12
HETATM   12  C   UNL     1     -21.930  -6.681  -4.087  1.00  0.00     0.038 C 
BRANCH  12  13
HETATM   13  C   UNL     1     -21.510  -5.900  -5.306  1.00  0.00    -0.055 A 
HETATM   14  C   UNL     1     -22.461  -5.549  -6.279  1.00  0.00     0.047 A 
HETATM   15  C   UNL     1     -22.029  -4.849  -7.384  1.00  0.00     0.105 A 
HETATM   16  C   UNL     1     -20.711  -4.494  -7.546  1.00  0.00     0.105 A 
HETATM   17  O   UNL     1     -22.810  -4.437  -8.419  1.00  0.00    -0.323 OA
HETATM   18  C   UNL     1     -19.752  -4.816  -6.613  1.00  0.00     0.040 A 
HETATM   19  O   UNL     1     -20.497  -3.814  -8.705  1.00  0.00    -0.323 OA
HETATM   20  C   UNL     1     -20.158  -5.533  -5.483  1.00  0.00     0.010 A 
HETATM   21  C   UNL     1     -21.820  -3.834  -9.278  1.00  0.00     0.352 A 
ENDBRANCH  12  13
ENDBRANCH   1  12
TORSDOF 5
ENDMDL
MODEL 9
REMARK VINA RESULT:      -7.5      3.354      9.575
REMARK  5 active torsions:
REMARK  status: ('A' for Active; 'I' for Inactive)
REMARK       I    between atoms: N_4  and  C_7 
REMARK    1  A    between atoms: C_7  and  C_9 
REMARK    2  A    between atoms: C_9  and  C_10 
REMARK    3  A    between atoms: C_10  and  C_11 
REMARK    4  A    between atoms: C_11  and  C_12 
REMARK    5  A    between atoms: C_12  and  C_13 
ROOT
HETATM    1  C   UNL     1     -22.414  -6.421  -1.897  1.00  0.00     0.005 C 
ENDROOT
BRANCH   1   2
HETATM    2  C   UNL     1     -21.249  -5.966  -2.783  1.00  0.00     0.010 C 
BRANCH   2   3
HETATM    3  C   UNL     1     -21.211  -6.694  -4.128  1.00  0.00     0.103 C 
BRANCH   3   4
HETATM    4  C   UNL     1     -22.069  -6.032  -5.191  1.00  0.00     0.219 C 
HETATM    5  N   UNL     1     -21.431  -5.114  -6.016  1.00  0.00    -0.352 N 
HETATM    6  C   UNL     1     -22.197  -4.432  -7.053  1.00  0.00     0.125 C 
HETATM    7  C   UNL     1     -19.993  -4.835  -6.035  1.00  0.00     0.125 C 
HETATM    8  C   UNL     1     -21.666  -4.807  -8.434  1.00  0.00     0.020 C 
HETATM    9  C   UNL     1     -20.163  -4.538  -8.536  1.00  0.00     0.003 C 
HETATM   10  C   UNL     1     -19.399  -5.210  -7.393  1.00  0.00     0.020 C 
HETATM   11  O   UNL     1     -23.269  -6.291  -5.294  1.00  0.00    -0.273 OA
ENDBRANCH   3   4
ENDBRANCH   2   3
ENDBRANCH   1   2
BRANCH   1  12
HETATM   12  C   UNL     1     -21.952  -7.078  -0.593  1.00  0.00     0.038 C 
BRANCH  12  13
HETATM   13  C   UNL     1     -21.977  -8.582  -0.678  1.00  0.00    -0.055 A 
HETATM   14  C   UNL     1     -23.067  -9.299  -0.155  1.00  0.00     0.047 A 
HETATM   15  C   UNL     1     -23.041 -10.673  -0.241  1.00  0.00     0.105 A 
HETATM   16  C   UNL     1     -21.988 -11.342  -0.820  1.00  0.00     0.105 A 
HETATM   17  O   UNL     1     -24.004 -11.517   0.217  1.00  0.00    -0.323 OA
HETATM   18  C   UNL     1     -20.905 -10.675  -1.346  1.00  0.00     0.040 A 
HETATM   19  O   UNL     1     -22.157 -12.692  -0.797  1.00  0.00    -0.323 OA
HETATM   20  C   UNL     1     -20.899  -9.279  -1.268  1.00  0.00     0.010 A 
HETATM   21  C   UNL     1     -23.408 -12.796  -0.087  1.00  0.00     0.352 A 
ENDBRANCH  12  13
ENDBRANCH   1  12
TORSDOF 5
ENDMDL
