MODEL 1
REMARK VINA RESULT:      -7.9      0.000      0.000
REMARK  13 active torsions:
REMARK  status: ('A' for Active; 'I' for Inactive)
REMARK    1  A    between atoms: C_2  and  C_3 
REMARK    2  A    between atoms: C_3  and  C_4 
REMARK    3  A    between atoms: C_4  and  C_5 
REMARK    4  A    between atoms: C_5  and  C_6 
REMARK    5  A    between atoms: C_6  and  C_7 
REMARK    6  A    between atoms: C_7  and  C_8 
REMARK    7  A    between atoms: C_8  and  C_9 
REMARK    8  A    between atoms: C_9  and  C_10 
REMARK    9  A    between atoms: C_10  and  C_11 
REMARK   10  A    between atoms: C_11  and  C_12 
REMARK   11  A    between atoms: C_12  and  C_13 
REMARK   12  A    between atoms: C_18  and  S_19 
REMARK   13  A    between atoms: S_19  and  O_22 
ROOT
HETATM    1  C   UNL     1     -22.255  -4.627  -7.807  1.00  0.00     0.040 C 
ENDROOT
BRANCH   1   2
HETATM    2  C   UNL     1     -21.348  -3.934  -6.805  1.00  0.00     0.005 C 
BRANCH   2   3
HETATM    3  C   UNL     1     -20.648  -4.964  -5.923  1.00  0.00     0.000 C 
BRANCH   3   4
HETATM    4  C   UNL     1     -21.401  -6.277  -6.003  1.00  0.00     0.000 C 
BRANCH   4   5
HETATM    5  C   UNL     1     -22.282  -6.439  -4.782  1.00  0.00     0.000 C 
BRANCH   5   6
HETATM    6  C   UNL     1     -21.427  -6.753  -3.571  1.00  0.00     0.000 C 
BRANCH   6   7
HETATM    7  C   UNL     1     -21.970  -6.014  -2.362  1.00  0.00     0.000 C 
BRANCH   7   8
HETATM    8  C   UNL     1     -22.172  -6.981  -1.211  1.00  0.00     0.000 C 
BRANCH   8   9
HETATM    9  C   UNL     1     -21.083  -8.042  -1.228  1.00  0.00     0.000 C 
BRANCH   9  10
HETATM   10  C   UNL     1     -21.438  -9.171  -0.274  1.00  0.00    -0.000 C 
BRANCH  10  11
HETATM   11  C   UNL     1     -22.908  -9.099   0.119  1.00  0.00    -0.005 C 
HETATM   12  C   UNL     1     -23.627 -10.377  -0.271  1.00  0.00     0.005 C 
ENDBRANCH  10  11
ENDBRANCH   9  10
ENDBRANCH   8   9
ENDBRANCH   7   8
ENDBRANCH   6   7
ENDBRANCH   5   6
ENDBRANCH   4   5
ENDBRANCH   3   4
ENDBRANCH   2   3
ENDBRANCH   1   2
BRANCH   1  13
HETATM   13  C   UNL     1     -21.860  -4.294  -9.222  1.00  0.00    -0.035 A 
HETATM   14  C   UNL     1     -20.478  -4.340  -9.513  1.00  0.00     0.009 A 
HETATM   15  C   UNL     1     -19.995  -4.092 -10.799  1.00  0.00     0.001 A 
HETATM   16  C   UNL     1     -20.878  -3.871 -11.844  1.00  0.00     0.002 A 
HETATM   17  C   UNL     1     -22.249  -3.855 -11.587  1.00  0.00     0.026 A 
HETATM   18  C   UNL     1     -22.747  -4.021 -10.285  1.00  0.00     0.078 A 
BRANCH  18  19
HETATM   19  S   UNL     1     -24.503  -3.749 -10.128  1.00  0.00     0.130 S 
HETATM   20  O   UNL     1     -24.940  -3.140 -11.383  1.00  0.00    -0.598 OA
HETATM   21  O   UNL     1     -25.101  -4.964  -9.638  1.00  0.00    -0.598 OA
BRANCH  19  22
HETATM   22  O   UNL     1     -24.711  -2.587  -9.033  1.00  0.00    -0.292 OA
HETATM   23  H   UNL     1     -25.077  -1.797  -9.477  1.00  0.00     0.232 HD
ENDBRANCH  19  22
ENDBRANCH  18  19
ENDBRANCH   1  13
TORSDOF 13
ENDMDL
MODEL 2
REMARK VINA RESULT:      -7.2      4.779      9.346
REMARK  13 active torsions:
REMARK  status: ('A' for Active; 'I' for Inactive)
REMARK    1  A    between atoms: C_2  and  C_3 
REMARK    2  A    between atoms: C_3  and  C_4 
REMARK    3  A    between atoms: C_4  and  C_5 
REMARK    4  A    between atoms: C_5  and  C_6 
REMARK    5  A    between atoms: C_6  and  C_7 
REMARK    6  A    between atoms: C_7  and  C_8 
REMARK    7  A    between atoms: C_8  and  C_9 
REMARK    8  A    between atoms: C_9  and  C_10 
REMARK    9  A    between atoms: C_10  and  C_11 
REMARK   10  A    between atoms: C_11  and  C_12 
REMARK   11  A    between atoms: C_12  and  C_13 
REMARK   12  A    between atoms: C_18  and  S_19 
REMARK   13  A    between atoms: S_19  and  O_22 
ROOT
HETATM    1  C   UNL     1     -20.325  -7.620  -4.633  1.00  0.00     0.040 C 
ENDROOT
BRANCH   1   2
HETATM    2  C   UNL     1     -21.307  -7.149  -5.692  1.00  0.00     0.005 C 
BRANCH   2   3
HETATM    3  C   UNL     1     -20.598  -6.273  -6.719  1.00  0.00     0.000 C 
BRANCH   3   4
HETATM    4  C   UNL     1     -20.511  -4.856  -6.186  1.00  0.00     0.000 C 
BRANCH   4   5
HETATM    5  C   UNL     1     -20.810  -3.871  -7.297  1.00  0.00     0.000 C 
BRANCH   5   6
HETATM    6  C   UNL     1     -21.271  -4.617  -8.533  1.00  0.00     0.000 C 
BRANCH   6   7
HETATM    7  C   UNL     1     -20.473  -4.148  -9.735  1.00  0.00     0.000 C 
BRANCH   7   8
HETATM    8  C   UNL     1     -21.297  -4.304 -10.999  1.00  0.00     0.000 C 
BRANCH   8   9
HETATM    9  C   UNL     1     -21.684  -2.935 -11.537  1.00  0.00     0.000 C 
BRANCH   9  10
HETATM   10  C   UNL     1     -23.184  -2.872 -11.773  1.00  0.00    -0.000 C 
BRANCH  10  11
HETATM   11  C   UNL     1     -23.897  -3.964 -10.986  1.00  0.00    -0.005 C 
HETATM   12  C   UNL     1     -24.643  -3.369  -9.807  1.00  0.00     0.005 C 
ENDBRANCH  10  11
ENDBRANCH   9  10
ENDBRANCH   8   9
ENDBRANCH   7   8
ENDBRANCH   6   7
ENDBRANCH   5   6
ENDBRANCH   4   5
ENDBRANCH   3   4
ENDBRANCH   2   3
ENDBRANCH   1   2
BRANCH   1  13
HETATM   13  C   UNL     1     -20.917  -7.508  -3.252  1.00  0.00    -0.035 A 
HETATM   14  C   UNL     1     -21.620  -6.316  -2.967  1.00  0.00     0.009 A 
HETATM   15  C   UNL     1     -22.247  -6.115  -1.737  1.00  0.00     0.001 A 
HETATM   16  C   UNL     1     -22.257  -7.126  -0.788  1.00  0.00     0.002 A 
HETATM   17  C   UNL     1     -21.597  -8.324  -1.059  1.00  0.00     0.026 A 
HETATM   18  C   UNL     1     -20.893  -8.511  -2.259  1.00  0.00     0.078 A 
BRANCH  18  19
HETATM   19  S   UNL     1     -19.937 -10.015  -2.325  1.00  0.00     0.130 S 
HETATM   20  O   UNL     1     -19.919 -10.553  -0.966  1.00  0.00    -0.598 OA
HETATM   21  O   UNL     1     -20.414 -10.800  -3.434  1.00  0.00    -0.598 OA
BRANCH  19  22
HETATM   22  O   UNL     1     -18.407  -9.597  -2.604  1.00  0.00    -0.292 OA
HETATM   23  H   UNL     1     -17.820 -10.287  -2.236  1.00  0.00     0.232 HD
ENDBRANCH  19  22
ENDBRANCH  18  19
ENDBRANCH   1  13
TORSDOF 13
ENDMDL
MODEL 3
REMARK VINA RESULT:      -7.2      1.402      2.938
REMARK  13 active torsions:
REMARK  status: ('A' for Active; 'I' for Inactive)
REMARK    1  A    between atoms: C_2  and  C_3 
REMARK    2  A    between atoms: C_3  and  C_4 
REMARK    3  A    between atoms: C_4  and  C_5 
REMARK    4  A    between atoms: C_5  and  C_6 
REMARK    5  A    between atoms: C_6  and  C_7 
REMARK    6  A    between atoms: C_7  and  C_8 
REMARK    7  A    between atoms: C_8  and  C_9 
REMARK    8  A    between atoms: C_9  and  C_10 
REMARK    9  A    between atoms: C_10  and  C_11 
REMARK   10  A    between atoms: C_11  and  C_12 
REMARK   11  A    between atoms: C_12  and  C_13 
REMARK   12  A    between atoms: C_18  and  S_19 
REMARK   13  A    between atoms: S_19  and  O_22 
ROOT
HETATM    1  C   UNL     1     -21.461  -4.656 -10.903  1.00  0.00     0.040 C 
ENDROOT
BRANCH   1   2
HETATM    2  C   UNL     1     -20.617  -3.752 -10.021  1.00  0.00     0.005 C 
BRANCH   2   3
HETATM    3  C   UNL     1     -19.725  -4.587  -9.108  1.00  0.00     0.000 C 
BRANCH   3   4
HETATM    4  C   UNL     1     -20.573  -5.201  -8.012  1.00  0.00     0.000 C 
BRANCH   4   5
HETATM    5  C   UNL     1     -20.729  -4.217  -6.872  1.00  0.00     0.000 C 
BRANCH   5   6
HETATM    6  C   UNL     1     -20.531  -4.930  -5.549  1.00  0.00     0.000 C 
BRANCH   6   7
HETATM    7  C   UNL     1     -21.289  -6.244  -5.564  1.00  0.00     0.000 C 
BRANCH   7   8
HETATM    8  C   UNL     1     -21.948  -6.478  -4.217  1.00  0.00     0.000 C 
BRANCH   8   9
HETATM    9  C   UNL     1     -21.353  -7.712  -3.557  1.00  0.00     0.000 C 
BRANCH   9  10
HETATM   10  C   UNL     1     -21.016  -7.416  -2.105  1.00  0.00    -0.000 C 
BRANCH  10  11
HETATM   11  C   UNL     1     -22.169  -6.691  -1.424  1.00  0.00    -0.005 C 
HETATM   12  C   UNL     1     -22.639  -7.463  -0.205  1.00  0.00     0.005 C 
ENDBRANCH  10  11
ENDBRANCH   9  10
ENDBRANCH   8   9
ENDBRANCH   7   8
ENDBRANCH   6   7
ENDBRANCH   5   6
ENDBRANCH   4   5
ENDBRANCH   3   4
ENDBRANCH   2   3
ENDBRANCH   1   2
BRANCH   1  13
HETATM   13  C   UNL     1     -22.449  -3.860 -11.716  1.00  0.00    -0.035 A 
HETATM   14  C   UNL     1     -21.998  -3.402 -12.974  1.00  0.00     0.009 A 
HETATM   15  C   UNL     1     -22.836  -2.691 -13.834  1.00  0.00     0.001 A 
HETATM   16  C   UNL     1     -24.165  -2.485 -13.498  1.00  0.00     0.002 A 
HETATM   17  C   UNL     1     -24.641  -2.957 -12.275  1.00  0.00     0.026 A 
HETATM   18  C   UNL     1     -23.791  -3.603 -11.364  1.00  0.00     0.078 A 
BRANCH  18  19
HETATM   19  S   UNL     1     -24.530  -3.933  -9.774  1.00  0.00     0.130 S 
HETATM   20  O   UNL     1     -24.875  -5.354  -9.767  1.00  0.00    -0.598 OA
HETATM   21  O   UNL     1     -23.681  -3.364  -8.760  1.00  0.00    -0.598 OA
BRANCH  19  22
HETATM   22  O   UNL     1     -25.954  -3.181  -9.744  1.00  0.00    -0.292 OA
HETATM   23  H   UNL     1     -26.657  -3.830  -9.943  1.00  0.00     0.232 HD
ENDBRANCH  19  22
ENDBRANCH  18  19
ENDBRANCH   1  13
TORSDOF 13
ENDMDL
MODEL 4
REMARK VINA RESULT:      -6.8      5.155      9.931
REMARK  13 active torsions:
REMARK  status: ('A' for Active; 'I' for Inactive)
REMARK    1  A    between atoms: C_2  and  C_3 
REMARK    2  A    between atoms: C_3  and  C_4 
REMARK    3  A    between atoms: C_4  and  C_5 
REMARK    4  A    between atoms: C_5  and  C_6 
REMARK    5  A    between atoms: C_6  and  C_7 
REMARK    6  A    between atoms: C_7  and  C_8 
REMARK    7  A    between atoms: C_8  and  C_9 
REMARK    8  A    between atoms: C_9  and  C_10 
REMARK    9  A    between atoms: C_10  and  C_11 
REMARK   10  A    between atoms: C_11  and  C_12 
REMARK   11  A    between atoms: C_12  and  C_13 
REMARK   12  A    between atoms: C_18  and  S_19 
REMARK   13  A    between atoms: S_19  and  O_22 
ROOT
HETATM    1  C   UNL     1     -20.440  -8.511  -3.411  1.00  0.00     0.040 C 
ENDROOT
BRANCH   1   2
HETATM    2  C   UNL     1     -21.360  -8.220  -4.584  1.00  0.00     0.005 C 
BRANCH   2   3
HETATM    3  C   UNL     1     -20.703  -7.227  -5.538  1.00  0.00     0.000 C 
BRANCH   3   4
HETATM    4  C   UNL     1     -21.063  -5.817  -5.111  1.00  0.00     0.000 C 
BRANCH   4   5
HETATM    5  C   UNL     1     -20.100  -4.830  -5.736  1.00  0.00     0.000 C 
BRANCH   5   6
HETATM    6  C   UNL     1     -20.789  -4.085  -6.862  1.00  0.00     0.000 C 
BRANCH   6   7
HETATM    7  C   UNL     1     -20.084  -4.382  -8.172  1.00  0.00     0.000 C 
BRANCH   7   8
HETATM    8  C   UNL     1     -21.097  -4.471  -9.297  1.00  0.00     0.000 C 
BRANCH   8   9
HETATM    9  C   UNL     1     -20.406  -4.250 -10.634  1.00  0.00     0.000 C 
BRANCH   9  10
HETATM   10  C   UNL     1     -21.440  -4.095 -11.738  1.00  0.00    -0.000 C 
BRANCH  10  11
HETATM   11  C   UNL     1     -22.635  -3.290 -11.242  1.00  0.00    -0.005 C 
HETATM   12  C   UNL     1     -23.348  -2.627 -12.405  1.00  0.00     0.005 C 
ENDBRANCH  10  11
ENDBRANCH   9  10
ENDBRANCH   8   9
ENDBRANCH   7   8
ENDBRANCH   6   7
ENDBRANCH   5   6
ENDBRANCH   4   5
ENDBRANCH   3   4
ENDBRANCH   2   3
ENDBRANCH   1   2
BRANCH   1  13
HETATM   13  C   UNL     1     -21.182  -8.430  -2.102  1.00  0.00    -0.035 A 
HETATM   14  C   UNL     1     -21.734  -7.172  -1.773  1.00  0.00     0.009 A 
HETATM   15  C   UNL     1     -22.478  -6.985  -0.608  1.00  0.00     0.001 A 
HETATM   16  C   UNL     1     -22.759  -8.061   0.219  1.00  0.00     0.002 A 
HETATM   17  C   UNL     1     -22.252  -9.320  -0.103  1.00  0.00     0.026 A 
HETATM   18  C   UNL     1     -21.434  -9.509  -1.228  1.00  0.00     0.078 A 
BRANCH  18  19
HETATM   19  S   UNL     1     -20.709 -11.134  -1.347  1.00  0.00     0.130 S 
HETATM   20  O   UNL     1     -21.340 -11.785  -2.493  1.00  0.00    -0.598 OA
HETATM   21  O   UNL     1     -19.279 -10.993  -1.260  1.00  0.00    -0.598 OA
BRANCH  19  22
HETATM   22  O   UNL     1     -21.225 -11.982  -0.078  1.00  0.00    -0.292 OA
HETATM   23  H   UNL     1     -22.002 -11.531   0.308  1.00  0.00     0.232 HD
ENDBRANCH  19  22
ENDBRANCH  18  19
ENDBRANCH   1  13
TORSDOF 13
ENDMDL
MODEL 5
REMARK VINA RESULT:      -6.8      4.800      9.581
REMARK  13 active torsions:
REMARK  status: ('A' for Active; 'I' for Inactive)
REMARK    1  A    between atoms: C_2  and  C_3 
REMARK    2  A    between atoms: C_3  and  C_4 
REMARK    3  A    between atoms: C_4  and  C_5 
REMARK    4  A    between atoms: C_5  and  C_6 
REMARK    5  A    between atoms: C_6  and  C_7 
REMARK    6  A    between atoms: C_7  and  C_8 
REMARK    7  A    between atoms: C_8  and  C_9 
REMARK    8  A    between atoms: C_9  and  C_10 
REMARK    9  A    between atoms: C_10  and  C_11 
REMARK   10  A    between atoms: C_11  and  C_12 
REMARK   11  A    between atoms: C_12  and  C_13 
REMARK   12  A    between atoms: C_18  and  S_19 
REMARK   13  A    between atoms: S_19  and  O_22 
ROOT
HETATM    1  C   UNL     1     -20.604  -9.157  -2.437  1.00  0.00     0.040 C 
ENDROOT
BRANCH   1   2
HETATM    2  C   UNL     1     -20.615  -9.136  -3.956  1.00  0.00     0.005 C 
BRANCH   2   3
HETATM    3  C   UNL     1     -20.543  -7.700  -4.466  1.00  0.00     0.000 C 
BRANCH   3   4
HETATM    4  C   UNL     1     -21.926  -7.083  -4.409  1.00  0.00     0.000 C 
BRANCH   4   5
HETATM    5  C   UNL     1     -22.058  -6.020  -5.478  1.00  0.00     0.000 C 
BRANCH   5   6
HETATM    6  C   UNL     1     -20.806  -5.994  -6.333  1.00  0.00     0.000 C 
BRANCH   6   7
HETATM    7  C   UNL     1     -20.320  -4.565  -6.477  1.00  0.00     0.000 C 
BRANCH   7   8
HETATM    8  C   UNL     1     -21.209  -3.808  -7.445  1.00  0.00     0.000 C 
BRANCH   8   9
HETATM    9  C   UNL     1     -21.313  -4.570  -8.757  1.00  0.00     0.000 C 
BRANCH   9  10
HETATM   10  C   UNL     1     -20.095  -4.291  -9.621  1.00  0.00    -0.000 C 
BRANCH  10  11
HETATM   11  C   UNL     1     -20.511  -4.025 -11.062  1.00  0.00    -0.005 C 
HETATM   12  C   UNL     1     -22.022  -3.966 -11.178  1.00  0.00     0.005 C 
ENDBRANCH  10  11
ENDBRANCH   9  10
ENDBRANCH   8   9
ENDBRANCH   7   8
ENDBRANCH   6   7
ENDBRANCH   5   6
ENDBRANCH   4   5
ENDBRANCH   3   4
ENDBRANCH   2   3
ENDBRANCH   1   2
BRANCH   1  13
HETATM   13  C   UNL     1     -21.814  -9.871  -1.892  1.00  0.00    -0.035 A 
HETATM   14  C   UNL     1     -22.156 -11.089  -2.519  1.00  0.00     0.009 A 
HETATM   15  C   UNL     1     -23.231 -11.861  -2.076  1.00  0.00     0.001 A 
HETATM   16  C   UNL     1     -23.942 -11.480  -0.949  1.00  0.00     0.002 A 
HETATM   17  C   UNL     1     -23.601 -10.297  -0.293  1.00  0.00     0.026 A 
HETATM   18  C   UNL     1     -22.576  -9.468  -0.775  1.00  0.00     0.078 A 
BRANCH  18  19
HETATM   19  S   UNL     1     -22.438  -7.903   0.068  1.00  0.00     0.130 S 
HETATM   20  O   UNL     1     -21.421  -8.078   1.102  1.00  0.00    -0.598 OA
HETATM   21  O   UNL     1     -22.323  -6.868  -0.928  1.00  0.00    -0.598 OA
BRANCH  19  22
HETATM   22  O   UNL     1     -23.804  -7.681   0.892  1.00  0.00    -0.292 OA
HETATM   23  H   UNL     1     -23.587  -7.561   1.837  1.00  0.00     0.232 HD
ENDBRANCH  19  22
ENDBRANCH  18  19
ENDBRANCH   1  13
TORSDOF 13
ENDMDL
MODEL 6
REMARK VINA RESULT:      -6.7      2.244      3.851
REMARK  13 active torsions:
REMARK  status: ('A' for Active; 'I' for Inactive)
REMARK    1  A    between atoms: C_2  and  C_3 
REMARK    2  A    between atoms: C_3  and  C_4 
REMARK    3  A    between atoms: C_4  and  C_5 
REMARK    4  A    between atoms: C_5  and  C_6 
REMARK    5  A    between atoms: C_6  and  C_7 
REMARK    6  A    between atoms: C_7  and  C_8 
REMARK    7  A    between atoms: C_8  and  C_9 
REMARK    8  A    between atoms: C_9  and  C_10 
REMARK    9  A    between atoms: C_10  and  C_11 
REMARK   10  A    between atoms: C_11  and  C_12 
REMARK   11  A    between atoms: C_12  and  C_13 
REMARK   12  A    between atoms: C_18  and  S_19 
REMARK   13  A    between atoms: S_19  and  O_22 
ROOT
HETATM    1  C   UNL     1     -21.151  -3.714 -11.473  1.00  0.00     0.040 C 
ENDROOT
BRANCH   1   2
HETATM    2  C   UNL     1     -20.160  -3.638 -10.323  1.00  0.00     0.005 C 
BRANCH   2   3
HETATM    3  C   UNL     1     -19.594  -5.022 -10.021  1.00  0.00     0.000 C 
BRANCH   3   4
HETATM    4  C   UNL     1     -20.012  -5.435  -8.623  1.00  0.00     0.000 C 
BRANCH   4   5
HETATM    5  C   UNL     1     -19.630  -4.354  -7.634  1.00  0.00     0.000 C 
BRANCH   5   6
HETATM    6  C   UNL     1     -20.483  -4.477  -6.387  1.00  0.00     0.000 C 
BRANCH   6   7
HETATM    7  C   UNL     1     -21.114  -5.856  -6.338  1.00  0.00     0.000 C 
BRANCH   7   8
HETATM    8  C   UNL     1     -20.359  -6.738  -5.362  1.00  0.00     0.000 C 
BRANCH   8   9
HETATM    9  C   UNL     1     -21.341  -7.542  -4.525  1.00  0.00     0.000 C 
BRANCH   9  10
HETATM   10  C   UNL     1     -20.739  -7.850  -3.163  1.00  0.00    -0.000 C 
BRANCH  10  11
HETATM   11  C   UNL     1     -21.743  -7.560  -2.055  1.00  0.00    -0.005 C 
HETATM   12  C   UNL     1     -22.038  -6.074  -1.980  1.00  0.00     0.005 C 
ENDBRANCH  10  11
ENDBRANCH   9  10
ENDBRANCH   8   9
ENDBRANCH   7   8
ENDBRANCH   6   7
ENDBRANCH   5   6
ENDBRANCH   4   5
ENDBRANCH   3   4
ENDBRANCH   2   3
ENDBRANCH   1   2
BRANCH   1  13
HETATM   13  C   UNL     1     -22.571  -3.634 -10.976  1.00  0.00    -0.035 A 
HETATM   14  C   UNL     1     -22.765  -3.864  -9.596  1.00  0.00     0.009 A 
HETATM   15  C   UNL     1     -24.029  -3.775  -9.012  1.00  0.00     0.001 A 
HETATM   16  C   UNL     1     -25.119  -3.378  -9.771  1.00  0.00     0.002 A 
HETATM   17  C   UNL     1     -24.946  -3.113 -11.129  1.00  0.00     0.026 A 
HETATM   18  C   UNL     1     -23.697  -3.277 -11.748  1.00  0.00     0.078 A 
BRANCH  18  19
HETATM   19  S   UNL     1     -23.727  -3.103 -13.523  1.00  0.00     0.130 S 
HETATM   20  O   UNL     1     -24.355  -4.315 -14.046  1.00  0.00    -0.598 OA
HETATM   21  O   UNL     1     -24.245  -1.797 -13.836  1.00  0.00    -0.598 OA
BRANCH  19  22
HETATM   22  O   UNL     1     -22.204  -3.195 -14.038  1.00  0.00    -0.292 OA
HETATM   23  H   UNL     1     -22.203  -3.504 -14.965  1.00  0.00     0.232 HD
ENDBRANCH  19  22
ENDBRANCH  18  19
ENDBRANCH   1  13
TORSDOF 13
ENDMDL
MODEL 7
REMARK VINA RESULT:      -6.6      2.467      3.725
REMARK  13 active torsions:
REMARK  status: ('A' for Active; 'I' for Inactive)
REMARK    1  A    between atoms: C_2  and  C_3 
REMARK    2  A    between atoms: C_3  and  C_4 
REMARK    3  A    between atoms: C_4  and  C_5 
REMARK    4  A    between atoms: C_5  and  C_6 
REMARK    5  A    between atoms: C_6  and  C_7 
REMARK    6  A    between atoms: C_7  and  C_8 
REMARK    7  A    between atoms: C_8  and  C_9 
REMARK    8  A    between atoms: C_9  and  C_10 
REMARK    9  A    between atoms: C_10  and  C_11 
REMARK   10  A    between atoms: C_11  and  C_12 
REMARK   11  A    between atoms: C_12  and  C_13 
REMARK   12  A    between atoms: C_18  and  S_19 
REMARK   13  A    between atoms: S_19  and  O_22 
ROOT
HETATM    1  C   UNL     1     -21.638  -4.646 -11.119  1.00  0.00     0.040 C 
ENDROOT
BRANCH   1   2
HETATM    2  C   UNL     1     -20.564  -3.792 -10.467  1.00  0.00     0.005 C 
BRANCH   2   3
HETATM    3  C   UNL     1     -19.469  -4.676  -9.878  1.00  0.00     0.000 C 
BRANCH   3   4
HETATM    4  C   UNL     1     -19.903  -5.156  -8.507  1.00  0.00     0.000 C 
BRANCH   4   5
HETATM    5  C   UNL     1     -20.370  -3.979  -7.676  1.00  0.00     0.000 C 
BRANCH   5   6
HETATM    6  C   UNL     1     -21.259  -4.468  -6.550  1.00  0.00     0.000 C 
BRANCH   6   7
HETATM    7  C   UNL     1     -20.407  -4.812  -5.344  1.00  0.00     0.000 C 
BRANCH   7   8
HETATM    8  C   UNL     1     -21.092  -5.879  -4.511  1.00  0.00     0.000 C 
BRANCH   8   9
HETATM    9  C   UNL     1     -21.573  -7.008  -5.410  1.00  0.00     0.000 C 
BRANCH   9  10
HETATM   10  C   UNL     1     -21.073  -8.344  -4.885  1.00  0.00    -0.000 C 
BRANCH  10  11
HETATM   11  C   UNL     1     -19.557  -8.434  -5.009  1.00  0.00    -0.005 C 
HETATM   12  C   UNL     1     -18.989  -9.342  -3.934  1.00  0.00     0.005 C 
ENDBRANCH  10  11
ENDBRANCH   9  10
ENDBRANCH   8   9
ENDBRANCH   7   8
ENDBRANCH   6   7
ENDBRANCH   5   6
ENDBRANCH   4   5
ENDBRANCH   3   4
ENDBRANCH   2   3
ENDBRANCH   1   2
BRANCH   1  13
HETATM   13  C   UNL     1     -22.601  -3.802 -11.913  1.00  0.00    -0.035 A 
HETATM   14  C   UNL     1     -22.143  -3.347 -13.170  1.00  0.00     0.009 A 
HETATM   15  C   UNL     1     -22.959  -2.593 -14.014  1.00  0.00     0.001 A 
HETATM   16  C   UNL     1     -24.277  -2.340 -13.664  1.00  0.00     0.002 A 
HETATM   17  C   UNL     1     -24.761  -2.807 -12.442  1.00  0.00     0.026 A 
HETATM   18  C   UNL     1     -23.929  -3.497 -11.546  1.00  0.00     0.078 A 
BRANCH  18  19
HETATM   19  S   UNL     1     -24.666  -3.817  -9.954  1.00  0.00     0.130 S 
HETATM   20  O   UNL     1     -25.895  -3.027  -9.902  1.00  0.00    -0.598 OA
HETATM   21  O   UNL     1     -24.684  -5.242  -9.748  1.00  0.00    -0.598 OA
BRANCH  19  22
HETATM   22  O   UNL     1     -23.716  -3.143  -8.843  1.00  0.00    -0.292 OA
HETATM   23  H   UNL     1     -23.694  -3.720  -8.054  1.00  0.00     0.232 HD
ENDBRANCH  19  22
ENDBRANCH  18  19
ENDBRANCH   1  13
TORSDOF 13
ENDMDL
MODEL 8
REMARK VINA RESULT:      -6.5      4.969      8.009
REMARK  13 active torsions:
REMARK  status: ('A' for Active; 'I' for Inactive)
REMARK    1  A    between atoms: C_2  and  C_3 
REMARK    2  A    between atoms: C_3  and  C_4 
REMARK    3  A    between atoms: C_4  and  C_5 
REMARK    4  A    between atoms: C_5  and  C_6 
REMARK    5  A    between atoms: C_6  and  C_7 
REMARK    6  A    between atoms: C_7  and  C_8 
REMARK    7  A    between atoms: C_8  and  C_9 
REMARK    8  A    between atoms: C_9  and  C_10 
REMARK    9  A    between atoms: C_10  and  C_11 
REMARK   10  A    between atoms: C_11  and  C_12 
REMARK   11  A    between atoms: C_12  and  C_13 
REMARK   12  A    between atoms: C_18  and  S_19 
REMARK   13  A    between atoms: S_19  and  O_22 
ROOT
HETATM    1  C   UNL     1     -21.547 -11.646  -3.170  1.00  0.00     0.040 C 
ENDROOT
BRANCH   1   2
HETATM    2  C   UNL     1     -22.655 -10.740  -2.662  1.00  0.00     0.005 C 
BRANCH   2   3
HETATM    3  C   UNL     1     -23.462 -11.448  -1.578  1.00  0.00     0.000 C 
BRANCH   3   4
HETATM    4  C   UNL     1     -23.738 -10.474  -0.449  1.00  0.00     0.000 C 
BRANCH   4   5
HETATM    5  C   UNL     1     -22.433  -9.919   0.080  1.00  0.00     0.000 C 
BRANCH   5   6
HETATM    6  C   UNL     1     -22.583  -8.436   0.361  1.00  0.00     0.000 C 
BRANCH   6   7
HETATM    7  C   UNL     1     -21.585  -7.659  -0.476  1.00  0.00     0.000 C 
BRANCH   7   8
HETATM    8  C   UNL     1     -22.296  -6.970  -1.625  1.00  0.00     0.000 C 
BRANCH   8   9
HETATM    9  C   UNL     1     -21.306  -6.664  -2.738  1.00  0.00     0.000 C 
BRANCH   9  10
HETATM   10  C   UNL     1     -21.919  -6.994  -4.089  1.00  0.00    -0.000 C 
BRANCH  10  11
HETATM   11  C   UNL     1     -20.839  -7.405  -5.081  1.00  0.00    -0.005 C 
HETATM   12  C   UNL     1     -20.336  -6.199  -5.851  1.00  0.00     0.005 C 
ENDBRANCH  10  11
ENDBRANCH   9  10
ENDBRANCH   8   9
ENDBRANCH   7   8
ENDBRANCH   6   7
ENDBRANCH   5   6
ENDBRANCH   4   5
ENDBRANCH   3   4
ENDBRANCH   2   3
ENDBRANCH   1   2
BRANCH   1  13
HETATM   13  C   UNL     1     -20.304 -10.860  -3.495  1.00  0.00    -0.035 A 
HETATM   14  C   UNL     1     -19.765 -10.080  -2.448  1.00  0.00     0.009 A 
HETATM   15  C   UNL     1     -18.593  -9.342  -2.616  1.00  0.00     0.001 A 
HETATM   16  C   UNL     1     -17.885  -9.422  -3.806  1.00  0.00     0.002 A 
HETATM   17  C   UNL     1     -18.381 -10.212  -4.843  1.00  0.00     0.026 A 
HETATM   18  C   UNL     1     -19.600 -10.896  -4.718  1.00  0.00     0.078 A 
BRANCH  18  19
HETATM   19  S   UNL     1     -20.169 -11.667  -6.222  1.00  0.00     0.130 S 
HETATM   20  O   UNL     1     -20.154 -13.108  -5.978  1.00  0.00    -0.598 OA
HETATM   21  O   UNL     1     -21.369 -10.992  -6.644  1.00  0.00    -0.598 OA
BRANCH  19  22
HETATM   22  O   UNL     1     -19.028 -11.444  -7.335  1.00  0.00    -0.292 OA
HETATM   23  H   UNL     1     -19.276 -10.682  -7.894  1.00  0.00     0.232 HD
ENDBRANCH  19  22
ENDBRANCH  18  19
ENDBRANCH   1  13
TORSDOF 13
ENDMDL
MODEL 9
REMARK VINA RESULT:      -6.4      5.342      9.691
REMARK  13 active torsions:
REMARK  status: ('A' for Active; 'I' for Inactive)
REMARK    1  A    between atoms: C_2  and  C_3 
REMARK    2  A    between atoms: C_3  and  C_4 
REMARK    3  A    between atoms: C_4  and  C_5 
REMARK    4  A    between atoms: C_5  and  C_6 
REMARK    5  A    between atoms: C_6  and  C_7 
REMARK    6  A    between atoms: C_7  and  C_8 
REMARK    7  A    between atoms: C_8  and  C_9 
REMARK    8  A    between atoms: C_9  and  C_10 
REMARK    9  A    between atoms: C_10  and  C_11 
REMARK   10  A    between atoms: C_11  and  C_12 
REMARK   11  A    between atoms: C_12  and  C_13 
REMARK   12  A    between atoms: C_18  and  S_19 
REMARK   13  A    between atoms: S_19  and  O_22 
ROOT
HETATM    1  C   UNL     1     -21.123  -9.868  -2.857  1.00  0.00     0.040 C 
ENDROOT
BRANCH   1   2
HETATM    2  C   UNL     1     -19.612  -9.828  -2.701  1.00  0.00     0.005 C 
BRANCH   2   3
HETATM    3  C   UNL     1     -18.990  -8.958  -3.788  1.00  0.00     0.000 C 
BRANCH   3   4
HETATM    4  C   UNL     1     -19.947  -8.870  -4.961  1.00  0.00     0.000 C 
BRANCH   4   5
HETATM    5  C   UNL     1     -20.123  -7.423  -5.372  1.00  0.00     0.000 C 
BRANCH   5   6
HETATM    6  C   UNL     1     -21.591  -7.050  -5.321  1.00  0.00     0.000 C 
BRANCH   6   7
HETATM    7  C   UNL     1     -21.783  -5.664  -5.906  1.00  0.00     0.000 C 
BRANCH   7   8
HETATM    8  C   UNL     1     -20.435  -5.042  -6.218  1.00  0.00     0.000 C 
BRANCH   8   9
HETATM    9  C   UNL     1     -20.593  -3.974  -7.289  1.00  0.00     0.000 C 
BRANCH   9  10
HETATM   10  C   UNL     1     -19.947  -4.435  -8.586  1.00  0.00    -0.000 C 
BRANCH  10  11
HETATM   11  C   UNL     1     -20.978  -4.492  -9.706  1.00  0.00    -0.005 C 
HETATM   12  C   UNL     1     -20.539  -3.632 -10.877  1.00  0.00     0.005 C 
ENDBRANCH  10  11
ENDBRANCH   9  10
ENDBRANCH   8   9
ENDBRANCH   7   8
ENDBRANCH   6   7
ENDBRANCH   5   6
ENDBRANCH   4   5
ENDBRANCH   3   4
ENDBRANCH   2   3
ENDBRANCH   1   2
BRANCH   1  13
HETATM   13  C   UNL     1     -21.813  -9.306  -1.642  1.00  0.00    -0.035 A 
HETATM   14  C   UNL     1     -21.677  -7.915  -1.432  1.00  0.00     0.009 A 
HETATM   15  C   UNL     1     -22.306  -7.273  -0.365  1.00  0.00     0.001 A 
HETATM   16  C   UNL     1     -23.148  -7.984   0.476  1.00  0.00     0.002 A 
HETATM   17  C   UNL     1     -23.324  -9.352   0.269  1.00  0.00     0.026 A 
HETATM   18  C   UNL     1     -22.635 -10.028  -0.751  1.00  0.00     0.078 A 
BRANCH  18  19
HETATM   19  S   UNL     1     -22.822 -11.801  -0.715  1.00  0.00     0.130 S 
HETATM   20  O   UNL     1     -23.546 -12.115   0.516  1.00  0.00    -0.598 OA
HETATM   21  O   UNL     1     -23.312 -12.225  -2.001  1.00  0.00    -0.598 OA
BRANCH  19  22
HETATM   22  O   UNL     1     -21.358 -12.431  -0.483  1.00  0.00    -0.292 OA
HETATM   23  H   UNL     1     -21.441 -13.221   0.087  1.00  0.00     0.232 HD
ENDBRANCH  19  22
ENDBRANCH  18  19
ENDBRANCH   1  13
TORSDOF 13
ENDMDL
