MODEL 1
REMARK VINA RESULT:      -6.9      0.000      0.000
REMARK  16 active torsions:
REMARK  status: ('A' for Active; 'I' for Inactive)
REMARK    1  A    between atoms: C_2  and  C_3 
REMARK    2  A    between atoms: C_3  and  C_4 
REMARK    3  A    between atoms: C_4  and  C_5 
REMARK    4  A    between atoms: C_5  and  C_6 
REMARK    5  A    between atoms: C_6  and  C_7 
REMARK    6  A    between atoms: C_7  and  C_8 
REMARK    7  A    between atoms: C_8  and  C_9 
REMARK    8  A    between atoms: C_9  and  C_10 
REMARK    9  A    between atoms: C_10  and  C_11 
REMARK   10  A    between atoms: C_11  and  C_12 
REMARK   11  A    between atoms: C_12  and  C_13 
REMARK   12  A    between atoms: C_13  and  C_14 
REMARK   13  A    between atoms: C_14  and  O_15 
REMARK   14  A    between atoms: O_15  and  C_16 
REMARK   15  A    between atoms: C_16  and  C_18 
REMARK   16  A    between atoms: C_18  and  O_20 
ROOT
HETATM    1  C   UNL     1     -20.617  -4.093  -9.475  1.00  0.00     0.000 C 
ENDROOT
BRANCH   1   2
HETATM    2  C   UNL     1     -21.037  -4.439  -8.049  1.00  0.00     0.000 C 
BRANCH   2   3
HETATM    3  C   UNL     1     -19.837  -4.837  -7.205  1.00  0.00     0.000 C 
BRANCH   3   4
HETATM    4  C   UNL     1     -20.277  -5.245  -5.804  1.00  0.00     0.000 C 
BRANCH   4   5
HETATM    5  C   UNL     1     -21.730  -5.700  -5.811  1.00  0.00     0.000 C 
BRANCH   5   6
HETATM    6  C   UNL     1     -22.023  -6.593  -4.611  1.00  0.00     0.000 C 
BRANCH   6   7
HETATM    7  C   UNL     1     -21.291  -6.089  -3.373  1.00  0.00     0.000 C 
BRANCH   7   8
HETATM    8  C   UNL     1     -22.162  -6.237  -2.130  1.00  0.00     0.000 C 
BRANCH   8   9
HETATM    9  C   UNL     1     -21.852  -7.543  -1.404  1.00  0.00    -0.000 C 
BRANCH   9  10
HETATM   10  C   UNL     1     -22.753  -7.722  -0.185  1.00  0.00    -0.005 C 
HETATM   11  C   UNL     1     -21.935  -8.034   1.056  1.00  0.00     0.005 C 
ENDBRANCH   9  10
ENDBRANCH   8   9
ENDBRANCH   7   8
ENDBRANCH   6   7
ENDBRANCH   5   6
ENDBRANCH   4   5
ENDBRANCH   3   4
ENDBRANCH   2   3
ENDBRANCH   1   2
BRANCH   1  12
HETATM   12  C   UNL     1     -21.828  -3.996 -10.398  1.00  0.00     0.002 C 
BRANCH  12  13
HETATM   13  C   UNL     1     -23.133  -4.083  -9.617  1.00  0.00     0.027 C 
BRANCH  13  14
HETATM   14  C   UNL     1     -24.308  -3.631 -10.465  1.00  0.00     0.178 C 
BRANCH  14  15
HETATM   15  O   UNL     1     -23.869  -2.642 -11.406  1.00  0.00    -0.319 OA
BRANCH  15  16
HETATM   16  C   UNL     1     -24.267  -2.878 -12.683  1.00  0.00     0.287 C 
HETATM   17  O   UNL     1     -25.096  -3.725 -13.023  1.00  0.00    -0.262 OA
BRANCH  16  18
HETATM   18  C   UNL     1     -23.542  -1.974 -13.673  1.00  0.00     0.213 C 
HETATM   19  C   UNL     1     -22.848  -2.789 -14.750  1.00  0.00     0.050 C 
BRANCH  18  20
HETATM   20  O   UNL     1     -24.439  -1.067 -14.316  1.00  0.00    -0.386 OA
HETATM   21  H   UNL     1     -24.037  -0.842 -15.179  1.00  0.00     0.210 HD
ENDBRANCH  18  20
ENDBRANCH  16  18
ENDBRANCH  15  16
ENDBRANCH  14  15
ENDBRANCH  13  14
ENDBRANCH  12  13
ENDBRANCH   1  12
TORSDOF 16
ENDMDL
MODEL 2
REMARK VINA RESULT:      -6.8      1.680      2.742
REMARK  16 active torsions:
REMARK  status: ('A' for Active; 'I' for Inactive)
REMARK    1  A    between atoms: C_2  and  C_3 
REMARK    2  A    between atoms: C_3  and  C_4 
REMARK    3  A    between atoms: C_4  and  C_5 
REMARK    4  A    between atoms: C_5  and  C_6 
REMARK    5  A    between atoms: C_6  and  C_7 
REMARK    6  A    between atoms: C_7  and  C_8 
REMARK    7  A    between atoms: C_8  and  C_9 
REMARK    8  A    between atoms: C_9  and  C_10 
REMARK    9  A    between atoms: C_10  and  C_11 
REMARK   10  A    between atoms: C_11  and  C_12 
REMARK   11  A    between atoms: C_12  and  C_13 
REMARK   12  A    between atoms: C_13  and  C_14 
REMARK   13  A    between atoms: C_14  and  O_15 
REMARK   14  A    between atoms: O_15  and  C_16 
REMARK   15  A    between atoms: C_16  and  C_18 
REMARK   16  A    between atoms: C_18  and  O_20 
ROOT
HETATM    1  C   UNL     1     -20.192  -4.755  -7.214  1.00  0.00     0.000 C 
ENDROOT
BRANCH   1   2
HETATM    2  C   UNL     1     -20.343  -4.962  -5.709  1.00  0.00     0.000 C 
BRANCH   2   3
HETATM    3  C   UNL     1     -20.511  -6.434  -5.372  1.00  0.00     0.000 C 
BRANCH   3   4
HETATM    4  C   UNL     1     -21.710  -6.643  -4.455  1.00  0.00     0.000 C 
BRANCH   4   5
HETATM    5  C   UNL     1     -21.260  -6.770  -3.006  1.00  0.00     0.000 C 
BRANCH   5   6
HETATM    6  C   UNL     1     -22.334  -6.251  -2.058  1.00  0.00     0.000 C 
BRANCH   6   7
HETATM    7  C   UNL     1     -22.257  -6.965  -0.713  1.00  0.00     0.000 C 
BRANCH   7   8
HETATM    8  C   UNL     1     -21.387  -8.214  -0.812  1.00  0.00     0.000 C 
BRANCH   8   9
HETATM    9  C   UNL     1     -21.805  -9.249   0.229  1.00  0.00    -0.000 C 
BRANCH   9  10
HETATM   10  C   UNL     1     -23.264  -9.659   0.040  1.00  0.00    -0.005 C 
HETATM   11  C   UNL     1     -23.401 -10.684  -1.073  1.00  0.00     0.005 C 
ENDBRANCH   9  10
ENDBRANCH   8   9
ENDBRANCH   7   8
ENDBRANCH   6   7
ENDBRANCH   5   6
ENDBRANCH   4   5
ENDBRANCH   3   4
ENDBRANCH   2   3
ENDBRANCH   1   2
BRANCH   1  12
HETATM   12  C   UNL     1     -21.460  -5.165  -7.956  1.00  0.00     0.002 C 
BRANCH  12  13
HETATM   13  C   UNL     1     -22.650  -4.307  -7.544  1.00  0.00     0.027 C 
BRANCH  13  14
HETATM   14  C   UNL     1     -23.553  -4.020  -8.730  1.00  0.00     0.178 C 
BRANCH  14  15
HETATM   15  O   UNL     1     -22.841  -4.272  -9.949  1.00  0.00    -0.319 OA
BRANCH  15  16
HETATM   16  C   UNL     1     -23.112  -3.385 -10.941  1.00  0.00     0.287 C 
HETATM   17  O   UNL     1     -24.225  -2.920 -11.193  1.00  0.00    -0.262 OA
BRANCH  16  18
HETATM   18  C   UNL     1     -21.860  -3.037 -11.739  1.00  0.00     0.213 C 
HETATM   19  C   UNL     1     -20.616  -3.606 -11.079  1.00  0.00     0.050 C 
BRANCH  18  20
HETATM   20  O   UNL     1     -21.924  -3.549 -13.072  1.00  0.00    -0.386 OA
HETATM   21  H   UNL     1     -21.229  -3.087 -13.581  1.00  0.00     0.210 HD
ENDBRANCH  18  20
ENDBRANCH  16  18
ENDBRANCH  15  16
ENDBRANCH  14  15
ENDBRANCH  13  14
ENDBRANCH  12  13
ENDBRANCH   1  12
TORSDOF 16
ENDMDL
MODEL 3
REMARK VINA RESULT:      -6.7      1.732      3.019
REMARK  16 active torsions:
REMARK  status: ('A' for Active; 'I' for Inactive)
REMARK    1  A    between atoms: C_2  and  C_3 
REMARK    2  A    between atoms: C_3  and  C_4 
REMARK    3  A    between atoms: C_4  and  C_5 
REMARK    4  A    between atoms: C_5  and  C_6 
REMARK    5  A    between atoms: C_6  and  C_7 
REMARK    6  A    between atoms: C_7  and  C_8 
REMARK    7  A    between atoms: C_8  and  C_9 
REMARK    8  A    between atoms: C_9  and  C_10 
REMARK    9  A    between atoms: C_10  and  C_11 
REMARK   10  A    between atoms: C_11  and  C_12 
REMARK   11  A    between atoms: C_12  and  C_13 
REMARK   12  A    between atoms: C_13  and  C_14 
REMARK   13  A    between atoms: C_14  and  O_15 
REMARK   14  A    between atoms: O_15  and  C_16 
REMARK   15  A    between atoms: C_16  and  C_18 
REMARK   16  A    between atoms: C_18  and  O_20 
ROOT
HETATM    1  C   UNL     1     -19.396  -4.742  -7.198  1.00  0.00     0.000 C 
ENDROOT
BRANCH   1   2
HETATM    2  C   UNL     1     -20.304  -5.023  -6.004  1.00  0.00     0.000 C 
BRANCH   2   3
HETATM    3  C   UNL     1     -21.305  -6.121  -6.323  1.00  0.00     0.000 C 
BRANCH   3   4
HETATM    4  C   UNL     1     -22.188  -6.412  -5.115  1.00  0.00     0.000 C 
BRANCH   4   5
HETATM    5  C   UNL     1     -21.396  -6.254  -3.823  1.00  0.00     0.000 C 
BRANCH   5   6
HETATM    6  C   UNL     1     -20.886  -7.604  -3.333  1.00  0.00     0.000 C 
BRANCH   6   7
HETATM    7  C   UNL     1     -20.916  -7.671  -1.811  1.00  0.00     0.000 C 
BRANCH   7   8
HETATM    8  C   UNL     1     -22.046  -6.813  -1.253  1.00  0.00     0.000 C 
BRANCH   8   9
HETATM    9  C   UNL     1     -22.848  -7.585  -0.209  1.00  0.00    -0.000 C 
BRANCH   9  10
HETATM   10  C   UNL     1     -22.255  -8.972   0.022  1.00  0.00    -0.005 C 
HETATM   11  C   UNL     1     -23.293 -10.055  -0.220  1.00  0.00     0.005 C 
ENDBRANCH   9  10
ENDBRANCH   8   9
ENDBRANCH   7   8
ENDBRANCH   6   7
ENDBRANCH   5   6
ENDBRANCH   4   5
ENDBRANCH   3   4
ENDBRANCH   2   3
ENDBRANCH   1   2
BRANCH   1  12
HETATM   12  C   UNL     1     -20.136  -3.962  -8.280  1.00  0.00     0.002 C 
BRANCH  12  13
HETATM   13  C   UNL     1     -20.143  -4.716  -9.604  1.00  0.00     0.027 C 
BRANCH  13  14
HETATM   14  C   UNL     1     -20.932  -3.960 -10.659  1.00  0.00     0.178 C 
BRANCH  14  15
HETATM   15  O   UNL     1     -22.051  -3.307 -10.045  1.00  0.00    -0.319 OA
BRANCH  15  16
HETATM   16  C   UNL     1     -23.225  -3.485 -10.705  1.00  0.00     0.287 C 
HETATM   17  O   UNL     1     -23.425  -3.200 -11.887  1.00  0.00    -0.262 OA
BRANCH  16  18
HETATM   18  C   UNL     1     -24.298  -4.069  -9.792  1.00  0.00     0.213 C 
HETATM   19  C   UNL     1     -23.797  -4.181  -8.363  1.00  0.00     0.050 C 
BRANCH  18  20
HETATM   20  O   UNL     1     -25.479  -3.266  -9.783  1.00  0.00    -0.386 OA
HETATM   21  H   UNL     1     -25.888  -3.381  -8.903  1.00  0.00     0.210 HD
ENDBRANCH  18  20
ENDBRANCH  16  18
ENDBRANCH  15  16
ENDBRANCH  14  15
ENDBRANCH  13  14
ENDBRANCH  12  13
ENDBRANCH   1  12
TORSDOF 16
ENDMDL
MODEL 4
REMARK VINA RESULT:      -6.5      1.607      3.293
REMARK  16 active torsions:
REMARK  status: ('A' for Active; 'I' for Inactive)
REMARK    1  A    between atoms: C_2  and  C_3 
REMARK    2  A    between atoms: C_3  and  C_4 
REMARK    3  A    between atoms: C_4  and  C_5 
REMARK    4  A    between atoms: C_5  and  C_6 
REMARK    5  A    between atoms: C_6  and  C_7 
REMARK    6  A    between atoms: C_7  and  C_8 
REMARK    7  A    between atoms: C_8  and  C_9 
REMARK    8  A    between atoms: C_9  and  C_10 
REMARK    9  A    between atoms: C_10  and  C_11 
REMARK   10  A    between atoms: C_11  and  C_12 
REMARK   11  A    between atoms: C_12  and  C_13 
REMARK   12  A    between atoms: C_13  and  C_14 
REMARK   13  A    between atoms: C_14  and  O_15 
REMARK   14  A    between atoms: O_15  and  C_16 
REMARK   15  A    between atoms: C_16  and  C_18 
REMARK   16  A    between atoms: C_18  and  O_20 
ROOT
HETATM    1  C   UNL     1     -20.598  -5.127  -5.532  1.00  0.00     0.000 C 
ENDROOT
BRANCH   1   2
HETATM    2  C   UNL     1     -20.537  -6.597  -5.937  1.00  0.00     0.000 C 
BRANCH   2   3
HETATM    3  C   UNL     1     -21.450  -7.444  -5.066  1.00  0.00     0.000 C 
BRANCH   3   4
HETATM    4  C   UNL     1     -20.634  -8.365  -4.167  1.00  0.00     0.000 C 
BRANCH   4   5
HETATM    5  C   UNL     1     -21.180  -8.348  -2.746  1.00  0.00     0.000 C 
BRANCH   5   6
HETATM    6  C   UNL     1     -21.223  -6.926  -2.199  1.00  0.00     0.000 C 
BRANCH   6   7
HETATM    7  C   UNL     1     -22.321  -6.784  -1.152  1.00  0.00     0.000 C 
BRANCH   7   8
HETATM    8  C   UNL     1     -22.540  -8.100  -0.415  1.00  0.00     0.000 C 
BRANCH   8   9
HETATM    9  C   UNL     1     -22.195  -7.956   1.065  1.00  0.00    -0.000 C 
BRANCH   9  10
HETATM   10  C   UNL     1     -20.943  -8.754   1.417  1.00  0.00    -0.005 C 
HETATM   11  C   UNL     1     -20.991 -10.143   0.802  1.00  0.00     0.005 C 
ENDBRANCH   9  10
ENDBRANCH   8   9
ENDBRANCH   7   8
ENDBRANCH   6   7
ENDBRANCH   5   6
ENDBRANCH   4   5
ENDBRANCH   3   4
ENDBRANCH   2   3
ENDBRANCH   1   2
BRANCH   1  12
HETATM   12  C   UNL     1     -20.401  -4.214  -6.738  1.00  0.00     0.002 C 
BRANCH  12  13
HETATM   13  C   UNL     1     -21.579  -4.297  -7.699  1.00  0.00     0.027 C 
BRANCH  13  14
HETATM   14  C   UNL     1     -21.108  -4.312  -9.142  1.00  0.00     0.178 C 
BRANCH  14  15
HETATM   15  O   UNL     1     -22.202  -4.660 -10.001  1.00  0.00    -0.319 OA
BRANCH  15  16
HETATM   16  C   UNL     1     -22.519  -3.700 -10.909  1.00  0.00     0.287 C 
HETATM   17  O   UNL     1     -21.707  -2.976 -11.489  1.00  0.00    -0.262 OA
BRANCH  16  18
HETATM   18  C   UNL     1     -24.026  -3.601 -11.116  1.00  0.00     0.213 C 
HETATM   19  C   UNL     1     -24.741  -3.330  -9.805  1.00  0.00     0.050 C 
BRANCH  18  20
HETATM   20  O   UNL     1     -24.366  -2.554 -12.027  1.00  0.00    -0.386 OA
HETATM   21  H   UNL     1     -25.187  -2.833 -12.479  1.00  0.00     0.210 HD
ENDBRANCH  18  20
ENDBRANCH  16  18
ENDBRANCH  15  16
ENDBRANCH  14  15
ENDBRANCH  13  14
ENDBRANCH  12  13
ENDBRANCH   1  12
TORSDOF 16
ENDMDL
MODEL 5
REMARK VINA RESULT:      -6.4     12.021     13.996
REMARK  16 active torsions:
REMARK  status: ('A' for Active; 'I' for Inactive)
REMARK    1  A    between atoms: C_2  and  C_3 
REMARK    2  A    between atoms: C_3  and  C_4 
REMARK    3  A    between atoms: C_4  and  C_5 
REMARK    4  A    between atoms: C_5  and  C_6 
REMARK    5  A    between atoms: C_6  and  C_7 
REMARK    6  A    between atoms: C_7  and  C_8 
REMARK    7  A    between atoms: C_8  and  C_9 
REMARK    8  A    between atoms: C_9  and  C_10 
REMARK    9  A    between atoms: C_10  and  C_11 
REMARK   10  A    between atoms: C_11  and  C_12 
REMARK   11  A    between atoms: C_12  and  C_13 
REMARK   12  A    between atoms: C_13  and  C_14 
REMARK   13  A    between atoms: C_14  and  O_15 
REMARK   14  A    between atoms: O_15  and  C_16 
REMARK   15  A    between atoms: C_16  and  C_18 
REMARK   16  A    between atoms: C_18  and  O_20 
ROOT
HETATM    1  C   UNL     1     -36.032  -0.334 -15.537  1.00  0.00     0.000 C 
ENDROOT
BRANCH   1   2
HETATM    2  C   UNL     1     -35.049   0.675 -14.952  1.00  0.00     0.000 C 
BRANCH   2   3
HETATM    3  C   UNL     1     -34.871   0.465 -13.457  1.00  0.00     0.000 C 
BRANCH   3   4
HETATM    4  C   UNL     1     -35.629  -0.774 -12.994  1.00  0.00     0.000 C 
BRANCH   4   5
HETATM    5  C   UNL     1     -35.839  -0.740 -11.486  1.00  0.00     0.000 C 
BRANCH   5   6
HETATM    6  C   UNL     1     -35.022  -1.829 -10.802  1.00  0.00     0.000 C 
BRANCH   6   7
HETATM    7  C   UNL     1     -34.393  -2.760 -11.833  1.00  0.00     0.000 C 
BRANCH   7   8
HETATM    8  C   UNL     1     -33.048  -3.283 -11.342  1.00  0.00     0.000 C 
BRANCH   8   9
HETATM    9  C   UNL     1     -32.946  -4.791 -11.546  1.00  0.00    -0.000 C 
BRANCH   9  10
HETATM   10  C   UNL     1     -34.326  -5.443 -11.521  1.00  0.00    -0.005 C 
HETATM   11  C   UNL     1     -34.506  -6.289 -10.272  1.00  0.00     0.005 C 
ENDBRANCH   9  10
ENDBRANCH   8   9
ENDBRANCH   7   8
ENDBRANCH   6   7
ENDBRANCH   5   6
ENDBRANCH   4   5
ENDBRANCH   3   4
ENDBRANCH   2   3
ENDBRANCH   1   2
BRANCH   1  12
HETATM   12  C   UNL     1     -35.411  -1.095 -16.705  1.00  0.00     0.002 C 
BRANCH  12  13
HETATM   13  C   UNL     1     -34.906  -2.465 -16.272  1.00  0.00     0.027 C 
BRANCH  13  14
HETATM   14  C   UNL     1     -33.875  -3.002 -17.249  1.00  0.00     0.178 C 
BRANCH  14  15
HETATM   15  O   UNL     1     -33.046  -3.968 -16.589  1.00  0.00    -0.319 OA
BRANCH  15  16
HETATM   16  C   UNL     1     -31.784  -4.044 -17.086  1.00  0.00     0.287 C 
HETATM   17  O   UNL     1     -31.203  -3.141 -17.691  1.00  0.00    -0.262 OA
BRANCH  16  18
HETATM   18  C   UNL     1     -31.161  -5.411 -16.825  1.00  0.00     0.213 C 
HETATM   19  C   UNL     1     -30.249  -5.823 -17.968  1.00  0.00     0.050 C 
BRANCH  18  20
HETATM   20  O   UNL     1     -30.390  -5.420 -15.622  1.00  0.00    -0.386 OA
HETATM   21  H   UNL     1     -29.806  -6.202 -15.671  1.00  0.00     0.210 HD
ENDBRANCH  18  20
ENDBRANCH  16  18
ENDBRANCH  15  16
ENDBRANCH  14  15
ENDBRANCH  13  14
ENDBRANCH  12  13
ENDBRANCH   1  12
TORSDOF 16
ENDMDL
MODEL 6
REMARK VINA RESULT:      -6.4     12.512     14.185
REMARK  16 active torsions:
REMARK  status: ('A' for Active; 'I' for Inactive)
REMARK    1  A    between atoms: C_2  and  C_3 
REMARK    2  A    between atoms: C_3  and  C_4 
REMARK    3  A    between atoms: C_4  and  C_5 
REMARK    4  A    between atoms: C_5  and  C_6 
REMARK    5  A    between atoms: C_6  and  C_7 
REMARK    6  A    between atoms: C_7  and  C_8 
REMARK    7  A    between atoms: C_8  and  C_9 
REMARK    8  A    between atoms: C_9  and  C_10 
REMARK    9  A    between atoms: C_10  and  C_11 
REMARK   10  A    between atoms: C_11  and  C_12 
REMARK   11  A    between atoms: C_12  and  C_13 
REMARK   12  A    between atoms: C_13  and  C_14 
REMARK   13  A    between atoms: C_14  and  O_15 
REMARK   14  A    between atoms: O_15  and  C_16 
REMARK   15  A    between atoms: C_16  and  C_18 
REMARK   16  A    between atoms: C_18  and  O_20 
ROOT
HETATM    1  C   UNL     1     -35.042   0.381 -13.076  1.00  0.00     0.000 C 
ENDROOT
BRANCH   1   2
HETATM    2  C   UNL     1     -35.993  -0.716 -12.605  1.00  0.00     0.000 C 
BRANCH   2   3
HETATM    3  C   UNL     1     -36.516  -0.427 -11.208  1.00  0.00     0.000 C 
BRANCH   3   4
HETATM    4  C   UNL     1     -35.962  -1.434 -10.207  1.00  0.00     0.000 C 
BRANCH   4   5
HETATM    5  C   UNL     1     -35.369  -2.636 -10.931  1.00  0.00     0.000 C 
BRANCH   5   6
HETATM    6  C   UNL     1     -33.886  -2.782 -10.613  1.00  0.00     0.000 C 
BRANCH   6   7
HETATM    7  C   UNL     1     -33.432  -4.223 -10.809  1.00  0.00     0.000 C 
BRANCH   7   8
HETATM    8  C   UNL     1     -34.631  -5.163 -10.890  1.00  0.00     0.000 C 
BRANCH   8   9
HETATM    9  C   UNL     1     -34.583  -6.199  -9.771  1.00  0.00    -0.000 C 
BRANCH   9  10
HETATM   10  C   UNL     1     -34.931  -7.590 -10.296  1.00  0.00    -0.005 C 
HETATM   11  C   UNL     1     -33.914  -8.617  -9.829  1.00  0.00     0.005 C 
ENDBRANCH   9  10
ENDBRANCH   8   9
ENDBRANCH   7   8
ENDBRANCH   6   7
ENDBRANCH   5   6
ENDBRANCH   4   5
ENDBRANCH   3   4
ENDBRANCH   2   3
ENDBRANCH   1   2
BRANCH   1  12
HETATM   12  C   UNL     1     -35.054   0.507 -14.596  1.00  0.00     0.002 C 
BRANCH  12  13
HETATM   13  C   UNL     1     -35.984  -0.517 -15.233  1.00  0.00     0.027 C 
BRANCH  13  14
HETATM   14  C   UNL     1     -35.398  -1.059 -16.525  1.00  0.00     0.178 C 
BRANCH  14  15
HETATM   15  O   UNL     1     -35.433  -2.492 -16.503  1.00  0.00    -0.319 OA
BRANCH  15  16
HETATM   16  C   UNL     1     -34.214  -3.077 -16.640  1.00  0.00     0.287 C 
HETATM   17  O   UNL     1     -33.353  -2.741 -17.456  1.00  0.00    -0.262 OA
BRANCH  16  18
HETATM   18  C   UNL     1     -34.036  -4.236 -15.666  1.00  0.00     0.213 C 
HETATM   19  C   UNL     1     -34.186  -3.768 -14.229  1.00  0.00     0.050 C 
BRANCH  18  20
HETATM   20  O   UNL     1     -34.995  -5.270 -15.894  1.00  0.00    -0.386 OA
HETATM   21  H   UNL     1     -35.712  -5.134 -15.244  1.00  0.00     0.210 HD
ENDBRANCH  18  20
ENDBRANCH  16  18
ENDBRANCH  15  16
ENDBRANCH  14  15
ENDBRANCH  13  14
ENDBRANCH  12  13
ENDBRANCH   1  12
TORSDOF 16
ENDMDL
MODEL 7
REMARK VINA RESULT:      -6.2      3.298      5.339
REMARK  16 active torsions:
REMARK  status: ('A' for Active; 'I' for Inactive)
REMARK    1  A    between atoms: C_2  and  C_3 
REMARK    2  A    between atoms: C_3  and  C_4 
REMARK    3  A    between atoms: C_4  and  C_5 
REMARK    4  A    between atoms: C_5  and  C_6 
REMARK    5  A    between atoms: C_6  and  C_7 
REMARK    6  A    between atoms: C_7  and  C_8 
REMARK    7  A    between atoms: C_8  and  C_9 
REMARK    8  A    between atoms: C_9  and  C_10 
REMARK    9  A    between atoms: C_10  and  C_11 
REMARK   10  A    between atoms: C_11  and  C_12 
REMARK   11  A    between atoms: C_12  and  C_13 
REMARK   12  A    between atoms: C_13  and  C_14 
REMARK   13  A    between atoms: C_14  and  O_15 
REMARK   14  A    between atoms: O_15  and  C_16 
REMARK   15  A    between atoms: C_16  and  C_18 
REMARK   16  A    between atoms: C_18  and  O_20 
ROOT
HETATM    1  C   UNL     1     -24.008  -3.410  -9.871  1.00  0.00     0.000 C 
ENDROOT
BRANCH   1   2
HETATM    2  C   UNL     1     -23.191  -3.485  -8.584  1.00  0.00     0.000 C 
BRANCH   2   3
HETATM    3  C   UNL     1     -23.334  -4.846  -7.922  1.00  0.00     0.000 C 
BRANCH   3   4
HETATM    4  C   UNL     1     -22.551  -4.893  -6.616  1.00  0.00     0.000 C 
BRANCH   4   5
HETATM    5  C   UNL     1     -21.435  -3.857  -6.623  1.00  0.00     0.000 C 
BRANCH   5   6
HETATM    6  C   UNL     1     -20.114  -4.481  -6.189  1.00  0.00     0.000 C 
BRANCH   6   7
HETATM    7  C   UNL     1     -19.302  -4.919  -7.402  1.00  0.00     0.000 C 
BRANCH   7   8
HETATM    8  C   UNL     1     -19.684  -4.105  -8.633  1.00  0.00     0.000 C 
BRANCH   8   9
HETATM    9  C   UNL     1     -20.106  -5.021  -9.779  1.00  0.00    -0.000 C 
BRANCH   9  10
HETATM   10  C   UNL     1     -20.073  -4.282 -11.114  1.00  0.00    -0.005 C 
HETATM   11  C   UNL     1     -20.423  -2.815 -10.932  1.00  0.00     0.005 C 
ENDBRANCH   9  10
ENDBRANCH   8   9
ENDBRANCH   7   8
ENDBRANCH   6   7
ENDBRANCH   5   6
ENDBRANCH   4   5
ENDBRANCH   3   4
ENDBRANCH   2   3
ENDBRANCH   1   2
BRANCH   1  12
HETATM   12  C   UNL     1     -24.088  -4.771 -10.553  1.00  0.00     0.002 C 
BRANCH  12  13
HETATM   13  C   UNL     1     -23.532  -4.718 -11.970  1.00  0.00     0.027 C 
BRANCH  13  14
HETATM   14  C   UNL     1     -23.595  -3.309 -12.531  1.00  0.00     0.178 C 
BRANCH  14  15
HETATM   15  O   UNL     1     -23.999  -3.357 -13.906  1.00  0.00    -0.319 OA
BRANCH  15  16
HETATM   16  C   UNL     1     -23.298  -2.521 -14.716  1.00  0.00     0.287 C 
HETATM   17  O   UNL     1     -22.377  -2.860 -15.461  1.00  0.00    -0.262 OA
BRANCH  16  18
HETATM   18  C   UNL     1     -23.776  -1.079 -14.581  1.00  0.00     0.213 C 
HETATM   19  C   UNL     1     -23.514  -0.296 -15.855  1.00  0.00     0.050 C 
BRANCH  18  20
HETATM   20  O   UNL     1     -25.176  -1.011 -14.303  1.00  0.00    -0.386 OA
HETATM   21  H   UNL     1     -25.573  -0.457 -15.004  1.00  0.00     0.210 HD
ENDBRANCH  18  20
ENDBRANCH  16  18
ENDBRANCH  15  16
ENDBRANCH  14  15
ENDBRANCH  13  14
ENDBRANCH  12  13
ENDBRANCH   1  12
TORSDOF 16
ENDMDL
MODEL 8
REMARK VINA RESULT:      -6.2      3.783      6.983
REMARK  16 active torsions:
REMARK  status: ('A' for Active; 'I' for Inactive)
REMARK    1  A    between atoms: C_2  and  C_3 
REMARK    2  A    between atoms: C_3  and  C_4 
REMARK    3  A    between atoms: C_4  and  C_5 
REMARK    4  A    between atoms: C_5  and  C_6 
REMARK    5  A    between atoms: C_6  and  C_7 
REMARK    6  A    between atoms: C_7  and  C_8 
REMARK    7  A    between atoms: C_8  and  C_9 
REMARK    8  A    between atoms: C_9  and  C_10 
REMARK    9  A    between atoms: C_10  and  C_11 
REMARK   10  A    between atoms: C_11  and  C_12 
REMARK   11  A    between atoms: C_12  and  C_13 
REMARK   12  A    between atoms: C_13  and  C_14 
REMARK   13  A    between atoms: C_14  and  O_15 
REMARK   14  A    between atoms: O_15  and  C_16 
REMARK   15  A    between atoms: C_16  and  C_18 
REMARK   16  A    between atoms: C_18  and  O_20 
ROOT
HETATM    1  C   UNL     1     -22.050  -6.237  -1.821  1.00  0.00     0.000 C 
ENDROOT
BRANCH   1   2
HETATM    2  C   UNL     1     -22.486  -7.146  -0.676  1.00  0.00     0.000 C 
BRANCH   2   3
HETATM    3  C   UNL     1     -21.368  -8.094  -0.273  1.00  0.00     0.000 C 
BRANCH   3   4
HETATM    4  C   UNL     1     -21.937  -9.437   0.170  1.00  0.00     0.000 C 
BRANCH   4   5
HETATM    5  C   UNL     1     -23.296  -9.681  -0.473  1.00  0.00     0.000 C 
BRANCH   5   6
HETATM    6  C   UNL     1     -23.936 -10.949   0.079  1.00  0.00     0.000 C 
BRANCH   6   7
HETATM    7  C   UNL     1     -23.632 -12.141  -0.820  1.00  0.00     0.000 C 
BRANCH   7   8
HETATM    8  C   UNL     1     -23.592 -13.434  -0.011  1.00  0.00     0.000 C 
BRANCH   8   9
HETATM    9  C   UNL     1     -22.954 -13.197   1.355  1.00  0.00    -0.000 C 
BRANCH   9  10
HETATM   10  C   UNL     1     -23.489 -14.185   2.389  1.00  0.00    -0.005 C 
HETATM   11  C   UNL     1     -22.369 -14.704   3.275  1.00  0.00     0.005 C 
ENDBRANCH   9  10
ENDBRANCH   8   9
ENDBRANCH   7   8
ENDBRANCH   6   7
ENDBRANCH   5   6
ENDBRANCH   4   5
ENDBRANCH   3   4
ENDBRANCH   2   3
ENDBRANCH   1   2
BRANCH   1  12
HETATM   12  C   UNL     1     -21.379  -7.035  -2.934  1.00  0.00     0.002 C 
BRANCH  12  13
HETATM   13  C   UNL     1     -22.071  -6.817  -4.273  1.00  0.00     0.027 C 
BRANCH  13  14
HETATM   14  C   UNL     1     -21.310  -5.817  -5.126  1.00  0.00     0.178 C 
BRANCH  14  15
HETATM   15  O   UNL     1     -22.200  -5.228  -6.084  1.00  0.00    -0.319 OA
BRANCH  15  16
HETATM   16  C   UNL     1     -21.633  -5.001  -7.298  1.00  0.00     0.287 C 
HETATM   17  O   UNL     1     -20.580  -5.503  -7.694  1.00  0.00    -0.262 OA
BRANCH  16  18
HETATM   18  C   UNL     1     -22.452  -4.015  -8.123  1.00  0.00     0.213 C 
HETATM   19  C   UNL     1     -22.270  -4.263  -9.609  1.00  0.00     0.050 C 
BRANCH  18  20
HETATM   20  O   UNL     1     -23.847  -4.111  -7.828  1.00  0.00    -0.386 OA
HETATM   21  H   UNL     1     -24.037  -3.427  -7.156  1.00  0.00     0.210 HD
ENDBRANCH  18  20
ENDBRANCH  16  18
ENDBRANCH  15  16
ENDBRANCH  14  15
ENDBRANCH  13  14
ENDBRANCH  12  13
ENDBRANCH   1  12
TORSDOF 16
ENDMDL
MODEL 9
REMARK VINA RESULT:      -6.0      2.058      2.928
REMARK  16 active torsions:
REMARK  status: ('A' for Active; 'I' for Inactive)
REMARK    1  A    between atoms: C_2  and  C_3 
REMARK    2  A    between atoms: C_3  and  C_4 
REMARK    3  A    between atoms: C_4  and  C_5 
REMARK    4  A    between atoms: C_5  and  C_6 
REMARK    5  A    between atoms: C_6  and  C_7 
REMARK    6  A    between atoms: C_7  and  C_8 
REMARK    7  A    between atoms: C_8  and  C_9 
REMARK    8  A    between atoms: C_9  and  C_10 
REMARK    9  A    between atoms: C_10  and  C_11 
REMARK   10  A    between atoms: C_11  and  C_12 
REMARK   11  A    between atoms: C_12  and  C_13 
REMARK   12  A    between atoms: C_13  and  C_14 
REMARK   13  A    between atoms: C_14  and  O_15 
REMARK   14  A    between atoms: O_15  and  C_16 
REMARK   15  A    between atoms: C_16  and  C_18 
REMARK   16  A    between atoms: C_18  and  O_20 
ROOT
HETATM    1  C   UNL     1     -23.505  -3.590  -9.980  1.00  0.00     0.000 C 
ENDROOT
BRANCH   1   2
HETATM    2  C   UNL     1     -22.331  -3.715  -9.014  1.00  0.00     0.000 C 
BRANCH   2   3
HETATM    3  C   UNL     1     -21.038  -4.012  -9.757  1.00  0.00     0.000 C 
BRANCH   3   4
HETATM    4  C   UNL     1     -20.012  -4.637  -8.820  1.00  0.00     0.000 C 
BRANCH   4   5
HETATM    5  C   UNL     1     -20.705  -5.392  -7.693  1.00  0.00     0.000 C 
BRANCH   5   6
HETATM    6  C   UNL     1     -20.729  -4.557  -6.419  1.00  0.00     0.000 C 
BRANCH   6   7
HETATM    7  C   UNL     1     -20.421  -5.423  -5.202  1.00  0.00     0.000 C 
BRANCH   7   8
HETATM    8  C   UNL     1     -20.635  -6.899  -5.519  1.00  0.00     0.000 C 
BRANCH   8   9
HETATM    9  C   UNL     1     -21.817  -7.456  -4.731  1.00  0.00    -0.000 C 
BRANCH   9  10
HETATM   10  C   UNL     1     -21.481  -8.817  -4.127  1.00  0.00    -0.005 C 
HETATM   11  C   UNL     1     -20.131  -8.786  -3.432  1.00  0.00     0.005 C 
ENDBRANCH   9  10
ENDBRANCH   8   9
ENDBRANCH   7   8
ENDBRANCH   6   7
ENDBRANCH   5   6
ENDBRANCH   4   5
ENDBRANCH   3   4
ENDBRANCH   2   3
ENDBRANCH   1   2
BRANCH   1  12
HETATM   12  C   UNL     1     -23.779  -4.913 -10.689  1.00  0.00     0.002 C 
BRANCH  12  13
HETATM   13  C   UNL     1     -23.546  -4.800 -12.190  1.00  0.00     0.027 C 
BRANCH  13  14
HETATM   14  C   UNL     1     -23.766  -3.377 -12.672  1.00  0.00     0.178 C 
BRANCH  14  15
HETATM   15  O   UNL     1     -24.044  -3.384 -14.078  1.00  0.00    -0.319 OA
BRANCH  15  16
HETATM   16  C   UNL     1     -23.268  -2.533 -14.800  1.00  0.00     0.287 C 
HETATM   17  O   UNL     1     -22.302  -2.864 -15.490  1.00  0.00    -0.262 OA
BRANCH  16  18
HETATM   18  C   UNL     1     -23.723  -1.087 -14.637  1.00  0.00     0.213 C 
HETATM   19  C   UNL     1     -23.452  -0.284 -15.897  1.00  0.00     0.050 C 
BRANCH  18  20
HETATM   20  O   UNL     1     -25.121  -1.001 -14.354  1.00  0.00    -0.386 OA
HETATM   21  H   UNL     1     -25.207  -0.982 -13.380  1.00  0.00     0.210 HD
ENDBRANCH  18  20
ENDBRANCH  16  18
ENDBRANCH  15  16
ENDBRANCH  14  15
ENDBRANCH  13  14
ENDBRANCH  12  13
ENDBRANCH   1  12
TORSDOF 16
ENDMDL
