MODEL 1
REMARK VINA RESULT:      -7.2      0.000      0.000
REMARK  6 active torsions:
REMARK  status: ('A' for Active; 'I' for Inactive)
REMARK    1  A    between atoms: C6_4  and  N6_22 
REMARK    2  A    between atoms: N9_9  and  C1*_13 
REMARK    3  A    between atoms: C2*_14  and  O2*_21 
REMARK    4  A    between atoms: C3*_15  and  O3*_20 
REMARK    5  A    between atoms: C4*_16  and  C5*_18 
REMARK    6  A    between atoms: C5*_18  and  O5*_19 
ROOT
ATOM      1  C2    A A   1     -19.596  -5.323  -7.854  1.00  0.00     0.183 A 
ATOM      2  N1    A A   1     -19.938  -5.497  -6.558  1.00  0.00    -0.337 N 
ATOM      3  H1    A A   1     -19.251  -5.811  -5.872  1.00  0.00     0.168 HD
ATOM      4  C6    A A   1     -21.214  -5.244  -6.196  1.00  0.00     0.131 A 
ATOM      5  C5    A A   1     -22.099  -4.759  -7.171  1.00  0.00     0.122 A 
ATOM      6  C4    A A   1     -21.619  -4.647  -8.468  1.00  0.00     0.142 A 
ATOM      7  N3    A A   1     -20.371  -4.932  -8.890  1.00  0.00    -0.336 N 
ATOM      8  H3    A A   1     -20.055  -4.862  -9.858  1.00  0.00     0.168 HD
ATOM      9  N9    A A   1     -22.700  -4.254  -9.203  1.00  0.00    -0.297 N 
ATOM     10  C8    A A   1     -23.748  -4.080  -8.331  1.00  0.00     0.188 A 
ATOM     11  N7    A A   1     -23.420  -4.371  -7.093  1.00  0.00    -0.346 N 
ATOM     12  H7    A A   1     -24.008  -4.319  -6.261  1.00  0.00     0.167 HD
ENDROOT
BRANCH   9  13
ATOM     13  C1*   A A   1     -22.862  -4.236 -10.640  1.00  0.00     0.262 C 
ATOM     14  C2*   A A   1     -21.978  -3.222 -11.358  1.00  0.00     0.198 C 
ATOM     15  C3*   A A   1     -22.819  -2.794 -12.561  1.00  0.00     0.182 C 
ATOM     16  C4*   A A   1     -24.142  -3.567 -12.410  1.00  0.00     0.179 C 
ATOM     17  O4*   A A   1     -24.220  -3.974 -11.029  1.00  0.00    -0.353 OA
BRANCH  14  18
ATOM     18  O2*   A A   1     -20.749  -3.832 -11.764  1.00  0.00    -0.388 OA
ATOM     19  H2*   A A   1     -20.784  -4.744 -11.399  1.00  0.00     0.210 HD
ENDBRANCH  14  18
BRANCH  15  20
ATOM     20  O3*   A A   1     -22.075  -3.013 -13.762  1.00  0.00    -0.390 OA
ATOM     21  H3*   A A   1     -22.546  -2.574 -14.505  1.00  0.00     0.210 HD
ENDBRANCH  15  20
BRANCH  16  22
ATOM     22  C5*   A A   1     -24.261  -4.789 -13.333  1.00  0.00     0.198 C 
BRANCH  22  23
ATOM     23  O5*   A A   1     -24.204  -4.387 -14.700  1.00  0.00    -0.398 OA
ATOM     24  H5*   A A   1     -23.494  -4.904 -15.126  1.00  0.00     0.209 HD
ENDBRANCH  22  23
ENDBRANCH  16  22
ENDBRANCH   9  13
BRANCH   4  25
ATOM     25  N6    A A   1     -21.601  -5.489  -4.887  1.00  0.00    -0.383 N 
ATOM     26  H61   A A   1     -21.633  -4.658  -4.315  1.00  0.00     0.157 HD
ATOM     27  H62   A A   1     -22.349  -6.167  -4.803  1.00  0.00     0.157 HD
ENDBRANCH   4  25
TORSDOF 6
ENDMDL
MODEL 2
REMARK VINA RESULT:      -7.0      3.333      6.419
REMARK  6 active torsions:
REMARK  status: ('A' for Active; 'I' for Inactive)
REMARK    1  A    between atoms: C6_4  and  N6_22 
REMARK    2  A    between atoms: N9_9  and  C1*_13 
REMARK    3  A    between atoms: C2*_14  and  O2*_21 
REMARK    4  A    between atoms: C3*_15  and  O3*_20 
REMARK    5  A    between atoms: C4*_16  and  C5*_18 
REMARK    6  A    between atoms: C5*_18  and  O5*_19 
ROOT
ATOM      1  C2    A A   1     -24.396  -3.432 -10.823  1.00  0.00     0.183 A 
ATOM      2  N1    A A   1     -24.035  -3.151 -12.095  1.00  0.00    -0.337 N 
ATOM      3  H1    A A   1     -24.715  -2.794 -12.766  1.00  0.00     0.168 HD
ATOM      4  C6    A A   1     -22.749  -3.356 -12.452  1.00  0.00     0.131 A 
ATOM      5  C5    A A   1     -21.846  -3.793 -11.470  1.00  0.00     0.122 A 
ATOM      6  C4    A A   1     -22.358  -4.062 -10.209  1.00  0.00     0.142 A 
ATOM      7  N3    A A   1     -23.639  -3.920  -9.815  1.00  0.00    -0.336 N 
ATOM      8  H3    A A   1     -23.989  -4.150  -8.884  1.00  0.00     0.168 HD
ATOM      9  N9    A A   1     -21.296  -4.552  -9.504  1.00  0.00    -0.297 N 
ATOM     10  C8    A A   1     -20.196  -4.495 -10.327  1.00  0.00     0.188 A 
ATOM     11  N7    A A   1     -20.490  -4.036 -11.521  1.00  0.00    -0.346 N 
ATOM     12  H7    A A   1     -19.858  -3.891 -12.308  1.00  0.00     0.167 HD
ENDROOT
BRANCH   9  13
ATOM     13  C1*   A A   1     -21.292  -5.238  -8.232  1.00  0.00     0.262 C 
ATOM     14  C2*   A A   1     -21.669  -4.360  -7.044  1.00  0.00     0.198 C 
ATOM     15  C3*   A A   1     -20.853  -4.940  -5.889  1.00  0.00     0.182 C 
ATOM     16  C4*   A A   1     -20.036  -6.082  -6.520  1.00  0.00     0.179 C 
ATOM     17  O4*   A A   1     -20.016  -5.831  -7.940  1.00  0.00    -0.353 OA
BRANCH  14  18
ATOM     18  O2*   A A   1     -23.075  -4.441  -6.790  1.00  0.00    -0.388 OA
ATOM     19  H2*   A A   1     -23.420  -5.068  -7.463  1.00  0.00     0.210 HD
ENDBRANCH  14  18
BRANCH  15  20
ATOM     20  O3*   A A   1     -21.731  -5.290  -4.816  1.00  0.00    -0.390 OA
ATOM     21  H3*   A A   1     -22.193  -4.476  -4.514  1.00  0.00     0.210 HD
ENDBRANCH  15  20
BRANCH  16  22
ATOM     22  C5*   A A   1     -20.596  -7.484  -6.234  1.00  0.00     0.198 C 
BRANCH  22  23
ATOM     23  O5*   A A   1     -20.302  -7.874  -4.894  1.00  0.00    -0.398 OA
ATOM     24  H5*   A A   1     -19.842  -7.127  -4.468  1.00  0.00     0.209 HD
ENDBRANCH  22  23
ENDBRANCH  16  22
ENDBRANCH   9  13
BRANCH   4  25
ATOM     25  N6    A A   1     -22.378  -3.145 -13.771  1.00  0.00    -0.383 N 
ATOM     26  H61   A A   1     -23.143  -2.856 -14.363  1.00  0.00     0.157 HD
ATOM     27  H62   A A   1     -21.481  -2.684 -13.875  1.00  0.00     0.157 HD
ENDBRANCH   4  25
TORSDOF 6
ENDMDL
MODEL 3
REMARK VINA RESULT:      -6.5      3.995      6.856
REMARK  6 active torsions:
REMARK  status: ('A' for Active; 'I' for Inactive)
REMARK    1  A    between atoms: C6_4  and  N6_22 
REMARK    2  A    between atoms: N9_9  and  C1*_13 
REMARK    3  A    between atoms: C2*_14  and  O2*_21 
REMARK    4  A    between atoms: C3*_15  and  O3*_20 
REMARK    5  A    between atoms: C4*_16  and  C5*_18 
REMARK    6  A    between atoms: C5*_18  and  O5*_19 
ROOT
ATOM      1  C2    A A   1     -24.065  -3.864  -8.683  1.00  0.00     0.183 A 
ATOM      2  N1    A A   1     -23.647  -3.488  -9.912  1.00  0.00    -0.337 N 
ATOM      3  H1    A A   1     -24.305  -3.121 -10.600  1.00  0.00     0.168 HD
ATOM      4  C6    A A   1     -22.335  -3.611 -10.204  1.00  0.00     0.131 A 
ATOM      5  C5    A A   1     -21.468  -4.067  -9.199  1.00  0.00     0.122 A 
ATOM      6  C4    A A   1     -22.036  -4.438  -7.989  1.00  0.00     0.142 A 
ATOM      7  N3    A A   1     -23.342  -4.380  -7.663  1.00  0.00    -0.336 N 
ATOM      8  H3    A A   1     -23.733  -4.683  -6.770  1.00  0.00     0.168 HD
ATOM      9  N9    A A   1     -20.993  -4.922  -7.253  1.00  0.00    -0.297 N 
ATOM     10  C8    A A   1     -19.853  -4.764  -8.004  1.00  0.00     0.188 A 
ATOM     11  N7    A A   1     -20.101  -4.244  -9.184  1.00  0.00    -0.346 N 
ATOM     12  H7    A A   1     -19.433  -4.022  -9.922  1.00  0.00     0.167 HD
ENDROOT
BRANCH   9  13
ATOM     13  C1*   A A   1     -21.027  -5.686  -6.025  1.00  0.00     0.262 C 
ATOM     14  C2*   A A   1     -20.889  -7.192  -6.220  1.00  0.00     0.198 C 
ATOM     15  C3*   A A   1     -21.725  -7.783  -5.085  1.00  0.00     0.182 C 
ATOM     16  C4*   A A   1     -22.316  -6.563  -4.355  1.00  0.00     0.179 C 
ATOM     17  O4*   A A   1     -22.233  -5.458  -5.278  1.00  0.00    -0.353 OA
BRANCH  14  18
ATOM     18  O2*   A A   1     -19.516  -7.583  -6.121  1.00  0.00    -0.388 OA
ATOM     19  H2*   A A   1     -19.471  -8.161  -5.327  1.00  0.00     0.210 HD
ENDBRANCH  14  18
BRANCH  15  20
ATOM     20  O3*   A A   1     -20.916  -8.671  -4.310  1.00  0.00    -0.390 OA
ATOM     21  H3*   A A   1     -20.403  -8.138  -3.661  1.00  0.00     0.210 HD
ENDBRANCH  15  20
BRANCH  16  22
ATOM     22  C5*   A A   1     -21.602  -6.215  -3.041  1.00  0.00     0.198 C 
BRANCH  22  23
ATOM     23  O5*   A A   1     -22.548  -5.811  -2.053  1.00  0.00    -0.398 OA
ATOM     24  H5*   A A   1     -22.529  -4.836  -2.012  1.00  0.00     0.209 HD
ENDBRANCH  22  23
ENDBRANCH  16  22
ENDBRANCH   9  13
BRANCH   4  25
ATOM     25  N6    A A   1     -21.901  -3.301 -11.484  1.00  0.00    -0.383 N 
ATOM     26  H61   A A   1     -21.027  -2.798 -11.502  1.00  0.00     0.157 HD
ATOM     27  H62   A A   1     -22.047  -4.046 -12.157  1.00  0.00     0.157 HD
ENDBRANCH   4  25
TORSDOF 6
ENDMDL
MODEL 4
REMARK VINA RESULT:      -6.4      1.424      2.290
REMARK  6 active torsions:
REMARK  status: ('A' for Active; 'I' for Inactive)
REMARK    1  A    between atoms: C6_4  and  N6_22 
REMARK    2  A    between atoms: N9_9  and  C1*_13 
REMARK    3  A    between atoms: C2*_14  and  O2*_21 
REMARK    4  A    between atoms: C3*_15  and  O3*_20 
REMARK    5  A    between atoms: C4*_16  and  C5*_18 
REMARK    6  A    between atoms: C5*_18  and  O5*_19 
ROOT
ATOM      1  C2    A A   1     -19.287  -5.866  -7.711  1.00  0.00     0.183 A 
ATOM      2  N1    A A   1     -19.445  -6.552  -6.557  1.00  0.00    -0.337 N 
ATOM      3  H1    A A   1     -18.686  -7.116  -6.175  1.00  0.00     0.168 HD
ATOM      4  C6    A A   1     -20.635  -6.470  -5.924  1.00  0.00     0.131 A 
ATOM      5  C5    A A   1     -21.622  -5.632  -6.466  1.00  0.00     0.122 A 
ATOM      6  C4    A A   1     -21.332  -5.002  -7.668  1.00  0.00     0.142 A 
ATOM      7  N3    A A   1     -20.181  -5.088  -8.363  1.00  0.00    -0.336 N 
ATOM      8  H3    A A   1     -20.007  -4.631  -9.258  1.00  0.00     0.168 HD
ATOM      9  N9    A A   1     -22.483  -4.346  -7.999  1.00  0.00    -0.297 N 
ATOM     10  C8    A A   1     -23.377  -4.544  -6.974  1.00  0.00     0.188 A 
ATOM     11  N7    A A   1     -22.889  -5.312  -6.027  1.00  0.00    -0.346 N 
ATOM     12  H7    A A   1     -23.344  -5.604  -5.162  1.00  0.00     0.167 HD
ENDROOT
BRANCH   9  13
ATOM     13  C1*   A A   1     -22.853  -3.746  -9.261  1.00  0.00     0.262 C 
ATOM     14  C2*   A A   1     -24.316  -3.944  -9.645  1.00  0.00     0.198 C 
ATOM     15  C3*   A A   1     -24.284  -4.016 -11.171  1.00  0.00     0.182 C 
ATOM     16  C4*   A A   1     -22.794  -3.899 -11.540  1.00  0.00     0.179 C 
ATOM     17  O4*   A A   1     -22.053  -4.236 -10.350  1.00  0.00    -0.353 OA
BRANCH  14  18
ATOM     18  O2*   A A   1     -25.105  -2.843  -9.185  1.00  0.00    -0.388 OA
ATOM     19  H2*   A A   1     -25.637  -3.204  -8.441  1.00  0.00     0.210 HD
ENDBRANCH  14  18
BRANCH  15  20
ATOM     20  O3*   A A   1     -25.164  -3.028 -11.712  1.00  0.00    -0.390 OA
ATOM     21  H3*   A A   1     -24.694  -2.164 -11.723  1.00  0.00     0.210 HD
ENDBRANCH  15  20
BRANCH  16  22
ATOM     22  C5*   A A   1     -22.384  -2.508 -12.047  1.00  0.00     0.198 C 
BRANCH  22  23
ATOM     23  O5*   A A   1     -23.145  -2.155 -13.201  1.00  0.00    -0.398 OA
ATOM     24  H5*   A A   1     -23.527  -2.977 -13.560  1.00  0.00     0.209 HD
ENDBRANCH  22  23
ENDBRANCH  16  22
ENDBRANCH   9  13
BRANCH   4  25
ATOM     25  N6    A A   1     -20.839  -7.226  -4.780  1.00  0.00    -0.383 N 
ATOM     26  H61   A A   1     -21.813  -7.339  -4.540  1.00  0.00     0.157 HD
ATOM     27  H62   A A   1     -20.224  -8.028  -4.705  1.00  0.00     0.157 HD
ENDBRANCH   4  25
TORSDOF 6
ENDMDL
MODEL 5
REMARK VINA RESULT:      -6.4      3.852      5.904
REMARK  6 active torsions:
REMARK  status: ('A' for Active; 'I' for Inactive)
REMARK    1  A    between atoms: C6_4  and  N6_22 
REMARK    2  A    between atoms: N9_9  and  C1*_13 
REMARK    3  A    between atoms: C2*_14  and  O2*_21 
REMARK    4  A    between atoms: C3*_15  and  O3*_20 
REMARK    5  A    between atoms: C4*_16  and  C5*_18 
REMARK    6  A    between atoms: C5*_18  and  O5*_19 
ROOT
ATOM      1  C2    A A   1     -22.203  -6.262  -1.741  1.00  0.00     0.183 A 
ATOM      2  N1    A A   1     -21.869  -7.366  -1.035  1.00  0.00    -0.337 N 
ATOM      3  H1    A A   1     -21.945  -7.381  -0.019  1.00  0.00     0.168 HD
ATOM      4  C6    A A   1     -21.432  -8.448  -1.715  1.00  0.00     0.131 A 
ATOM      5  C5    A A   1     -21.404  -8.388  -3.117  1.00  0.00     0.122 A 
ATOM      6  C4    A A   1     -21.755  -7.184  -3.710  1.00  0.00     0.142 A 
ATOM      7  N3    A A   1     -22.152  -6.062  -3.077  1.00  0.00    -0.336 N 
ATOM      8  H3    A A   1     -22.381  -5.183  -3.542  1.00  0.00     0.168 HD
ATOM      9  N9    A A   1     -21.547  -7.383  -5.044  1.00  0.00    -0.297 N 
ATOM     10  C8    A A   1     -21.153  -8.690  -5.207  1.00  0.00     0.188 A 
ATOM     11  N7    A A   1     -21.062  -9.330  -4.064  1.00  0.00    -0.346 N 
ATOM     12  H7    A A   1     -20.798 -10.303  -3.912  1.00  0.00     0.167 HD
ENDROOT
BRANCH   9  13
ATOM     13  C1*   A A   1     -21.491  -6.407  -6.109  1.00  0.00     0.262 C 
ATOM     14  C2*   A A   1     -20.115  -5.784  -6.318  1.00  0.00     0.198 C 
ATOM     15  C3*   A A   1     -20.427  -4.364  -6.790  1.00  0.00     0.182 C 
ATOM     16  C4*   A A   1     -21.963  -4.271  -6.770  1.00  0.00     0.179 C 
ATOM     17  O4*   A A   1     -22.423  -5.331  -5.908  1.00  0.00    -0.353 OA
BRANCH  14  18
ATOM     18  O2*   A A   1     -19.381  -6.518  -7.303  1.00  0.00    -0.388 OA
ATOM     19  H2*   A A   1     -19.934  -6.481  -8.114  1.00  0.00     0.210 HD
ENDBRANCH  14  18
BRANCH  15  20
ATOM     20  O3*   A A   1     -19.780  -4.127  -8.043  1.00  0.00    -0.390 OA
ATOM     21  H3*   A A   1     -19.139  -4.855  -8.205  1.00  0.00     0.210 HD
ENDBRANCH  15  20
BRANCH  16  22
ATOM     22  C5*   A A   1     -22.615  -4.390  -8.156  1.00  0.00     0.198 C 
BRANCH  22  23
ATOM     23  O5*   A A   1     -23.993  -4.027  -8.091  1.00  0.00    -0.398 OA
ATOM     24  H5*   A A   1     -24.257  -4.055  -7.153  1.00  0.00     0.209 HD
ENDBRANCH  22  23
ENDBRANCH  16  22
ENDBRANCH   9  13
BRANCH   4  25
ATOM     25  N6    A A   1     -21.013  -9.562  -1.004  1.00  0.00    -0.383 N 
ATOM     26  H61   A A   1     -21.687 -10.313  -0.999  1.00  0.00     0.157 HD
ATOM     27  H62   A A   1     -20.034  -9.788  -1.138  1.00  0.00     0.157 HD
ENDBRANCH   4  25
TORSDOF 6
ENDMDL
MODEL 6
REMARK VINA RESULT:      -6.4      3.234      5.860
REMARK  6 active torsions:
REMARK  status: ('A' for Active; 'I' for Inactive)
REMARK    1  A    between atoms: C6_4  and  N6_22 
REMARK    2  A    between atoms: N9_9  and  C1*_13 
REMARK    3  A    between atoms: C2*_14  and  O2*_21 
REMARK    4  A    between atoms: C3*_15  and  O3*_20 
REMARK    5  A    between atoms: C4*_16  and  C5*_18 
REMARK    6  A    between atoms: C5*_18  and  O5*_19 
ROOT
ATOM      1  C2    A A   1     -21.058  -4.019 -12.204  1.00  0.00     0.183 A 
ATOM      2  N1    A A   1     -21.960  -3.325 -12.934  1.00  0.00    -0.337 N 
ATOM      3  H1    A A   1     -21.760  -3.058 -13.898  1.00  0.00     0.168 HD
ATOM      4  C6    A A   1     -23.132  -2.995 -12.352  1.00  0.00     0.131 A 
ATOM      5  C5    A A   1     -23.375  -3.440 -11.043  1.00  0.00     0.122 A 
ATOM      6  C4    A A   1     -22.353  -4.126 -10.404  1.00  0.00     0.142 A 
ATOM      7  N3    A A   1     -21.149  -4.439 -10.922  1.00  0.00    -0.336 N 
ATOM      8  H3    A A   1     -20.407  -4.925 -10.417  1.00  0.00     0.168 HD
ATOM      9  N9    A A   1     -22.822  -4.345  -9.141  1.00  0.00    -0.297 N 
ATOM     10  C8    A A   1     -24.105  -3.855  -9.089  1.00  0.00     0.188 A 
ATOM     11  N7    A A   1     -24.475  -3.306 -10.223  1.00  0.00    -0.346 N 
ATOM     12  H7    A A   1     -25.374  -2.878 -10.447  1.00  0.00     0.167 HD
ENDROOT
BRANCH   9  13
ATOM     13  C1*   A A   1     -22.097  -4.776  -7.967  1.00  0.00     0.262 C 
ATOM     14  C2*   A A   1     -20.992  -3.822  -7.526  1.00  0.00     0.198 C 
ATOM     15  C3*   A A   1     -19.933  -4.746  -6.925  1.00  0.00     0.182 C 
ATOM     16  C4*   A A   1     -20.498  -6.166  -7.111  1.00  0.00     0.179 C 
ATOM     17  O4*   A A   1     -21.501  -6.072  -8.142  1.00  0.00    -0.353 OA
BRANCH  14  18
ATOM     18  O2*   A A   1     -21.492  -2.893  -6.559  1.00  0.00    -0.388 OA
ATOM     19  H2*   A A   1     -20.738  -2.728  -5.950  1.00  0.00     0.210 HD
ENDBRANCH  14  18
BRANCH  15  20
ATOM     20  O3*   A A   1     -19.648  -4.334  -5.586  1.00  0.00    -0.390 OA
ATOM     21  H3*   A A   1     -19.604  -3.352  -5.565  1.00  0.00     0.210 HD
ENDBRANCH  15  20
BRANCH  16  22
ATOM     22  C5*   A A   1     -21.102  -6.771  -5.834  1.00  0.00     0.198 C 
BRANCH  22  23
ATOM     23  O5*   A A   1     -21.190  -8.190  -5.950  1.00  0.00    -0.398 OA
ATOM     24  H5*   A A   1     -21.654  -8.518  -5.157  1.00  0.00     0.209 HD
ENDBRANCH  22  23
ENDBRANCH  16  22
ENDBRANCH   9  13
BRANCH   4  25
ATOM     25  N6    A A   1     -24.037  -2.219 -13.060  1.00  0.00    -0.383 N 
ATOM     26  H61   A A   1     -24.317  -1.380 -12.573  1.00  0.00     0.157 HD
ATOM     27  H62   A A   1     -23.838  -2.161 -14.052  1.00  0.00     0.157 HD
ENDBRANCH   4  25
TORSDOF 6
ENDMDL
MODEL 7
REMARK VINA RESULT:      -6.4      3.628      6.558
REMARK  6 active torsions:
REMARK  status: ('A' for Active; 'I' for Inactive)
REMARK    1  A    between atoms: C6_4  and  N6_22 
REMARK    2  A    between atoms: N9_9  and  C1*_13 
REMARK    3  A    between atoms: C2*_14  and  O2*_21 
REMARK    4  A    between atoms: C3*_15  and  O3*_20 
REMARK    5  A    between atoms: C4*_16  and  C5*_18 
REMARK    6  A    between atoms: C5*_18  and  O5*_19 
ROOT
ATOM      1  C2    A A   1     -24.412  -3.351  -9.436  1.00  0.00     0.183 A 
ATOM      2  N1    A A   1     -24.050  -2.937 -10.671  1.00  0.00    -0.337 N 
ATOM      3  H1    A A   1     -24.700  -2.419 -11.261  1.00  0.00     0.168 HD
ATOM      4  C6    A A   1     -22.803  -3.229 -11.100  1.00  0.00     0.131 A 
ATOM      5  C5    A A   1     -21.934  -3.893 -10.222  1.00  0.00     0.122 A 
ATOM      6  C4    A A   1     -22.444  -4.278  -8.991  1.00  0.00     0.142 A 
ATOM      7  N3    A A   1     -23.692  -4.055  -8.533  1.00  0.00    -0.336 N 
ATOM      8  H3    A A   1     -24.045  -4.373  -7.630  1.00  0.00     0.168 HD
ATOM      9  N9    A A   1     -21.429  -4.973  -8.399  1.00  0.00    -0.297 N 
ATOM     10  C8    A A   1     -20.349  -4.923  -9.247  1.00  0.00     0.188 A 
ATOM     11  N7    A A   1     -20.615  -4.272 -10.356  1.00  0.00    -0.346 N 
ATOM     12  H7    A A   1     -19.988  -4.089 -11.139  1.00  0.00     0.167 HD
ENDROOT
BRANCH   9  13
ATOM     13  C1*   A A   1     -21.474  -5.827  -7.233  1.00  0.00     0.262 C 
ATOM     14  C2*   A A   1     -22.012  -5.147  -5.978  1.00  0.00     0.198 C 
ATOM     15  C3*   A A   1     -21.249  -5.826  -4.842  1.00  0.00     0.182 C 
ATOM     16  C4*   A A   1     -20.298  -6.814  -5.541  1.00  0.00     0.179 C 
ATOM     17  O4*   A A   1     -20.184  -6.369  -6.908  1.00  0.00    -0.353 OA
BRANCH  14  18
ATOM     18  O2*   A A   1     -23.423  -5.354  -5.865  1.00  0.00    -0.388 OA
ATOM     19  H2*   A A   1     -23.658  -5.028  -4.968  1.00  0.00     0.210 HD
ENDBRANCH  14  18
BRANCH  15  20
ATOM     20  O3*   A A   1     -22.181  -6.377  -3.907  1.00  0.00    -0.390 OA
ATOM     21  H3*   A A   1     -21.685  -6.926  -3.259  1.00  0.00     0.210 HD
ENDBRANCH  15  20
BRANCH  16  22
ATOM     22  C5*   A A   1     -20.769  -8.276  -5.494  1.00  0.00     0.198 C 
BRANCH  22  23
ATOM     23  O5*   A A   1     -19.663  -9.161  -5.658  1.00  0.00    -0.398 OA
ATOM     24  H5*   A A   1     -19.534  -9.290  -6.616  1.00  0.00     0.209 HD
ENDBRANCH  22  23
ENDBRANCH  16  22
ENDBRANCH   9  13
BRANCH   4  25
ATOM     25  N6    A A   1     -22.440  -2.877 -12.392  1.00  0.00    -0.383 N 
ATOM     26  H61   A A   1     -22.999  -3.325 -13.103  1.00  0.00     0.157 HD
ATOM     27  H62   A A   1     -22.212  -1.896 -12.500  1.00  0.00     0.157 HD
ENDBRANCH   4  25
TORSDOF 6
ENDMDL
MODEL 8
REMARK VINA RESULT:      -6.3      3.931      6.497
REMARK  6 active torsions:
REMARK  status: ('A' for Active; 'I' for Inactive)
REMARK    1  A    between atoms: C6_4  and  N6_22 
REMARK    2  A    between atoms: N9_9  and  C1*_13 
REMARK    3  A    between atoms: C2*_14  and  O2*_21 
REMARK    4  A    between atoms: C3*_15  and  O3*_20 
REMARK    5  A    between atoms: C4*_16  and  C5*_18 
REMARK    6  A    between atoms: C5*_18  and  O5*_19 
ROOT
ATOM      1  C2    A A   1     -19.872  -4.682 -10.266  1.00  0.00     0.183 A 
ATOM      2  N1    A A   1     -20.579  -3.847 -11.061  1.00  0.00    -0.337 N 
ATOM      3  H1    A A   1     -20.209  -3.543 -11.961  1.00  0.00     0.168 HD
ATOM      4  C6    A A   1     -21.788  -3.429 -10.629  1.00  0.00     0.131 A 
ATOM      5  C5    A A   1     -22.270  -3.927  -9.409  1.00  0.00     0.122 A 
ATOM      6  C4    A A   1     -21.430  -4.761  -8.686  1.00  0.00     0.142 A 
ATOM      7  N3    A A   1     -20.198  -5.170  -9.047  1.00  0.00    -0.336 N 
ATOM      8  H3    A A   1     -19.594  -5.766  -8.481  1.00  0.00     0.168 HD
ATOM      9  N9    A A   1     -22.105  -5.008  -7.526  1.00  0.00    -0.297 N 
ATOM     10  C8    A A   1     -23.327  -4.384  -7.621  1.00  0.00     0.188 A 
ATOM     11  N7    A A   1     -23.464  -3.727  -8.749  1.00  0.00    -0.346 N 
ATOM     12  H7    A A   1     -24.271  -3.189  -9.066  1.00  0.00     0.167 HD
ENDROOT
BRANCH   9  13
ATOM     13  C1*   A A   1     -21.614  -5.590  -6.297  1.00  0.00     0.262 C 
ATOM     14  C2*   A A   1     -20.927  -6.940  -6.473  1.00  0.00     0.198 C 
ATOM     15  C3*   A A   1     -21.243  -7.681  -5.174  1.00  0.00     0.182 C 
ATOM     16  C4*   A A   1     -22.129  -6.710  -4.373  1.00  0.00     0.179 C 
ATOM     17  O4*   A A   1     -22.657  -5.763  -5.323  1.00  0.00    -0.353 OA
BRANCH  14  18
ATOM     18  O2*   A A   1     -19.518  -6.763  -6.649  1.00  0.00    -0.388 OA
ATOM     19  H2*   A A   1     -19.192  -7.626  -6.987  1.00  0.00     0.210 HD
ENDBRANCH  14  18
BRANCH  15  20
ATOM     20  O3*   A A   1     -20.024  -8.103  -4.558  1.00  0.00    -0.390 OA
ATOM     21  H3*   A A   1     -19.618  -7.328  -4.109  1.00  0.00     0.210 HD
ENDBRANCH  15  20
BRANCH  16  22
ATOM     22  C5*   A A   1     -21.389  -5.976  -3.244  1.00  0.00     0.198 C 
BRANCH  22  23
ATOM     23  O5*   A A   1     -22.285  -5.674  -2.176  1.00  0.00    -0.398 OA
ATOM     24  H5*   A A   1     -23.179  -5.938  -2.463  1.00  0.00     0.209 HD
ENDBRANCH  22  23
ENDBRANCH  16  22
ENDBRANCH   9  13
BRANCH   4  25
ATOM     25  N6    A A   1     -22.493  -2.514 -11.397  1.00  0.00    -0.383 N 
ATOM     26  H61   A A   1     -23.493  -2.652 -11.371  1.00  0.00     0.157 HD
ATOM     27  H62   A A   1     -22.131  -1.569 -11.342  1.00  0.00     0.157 HD
ENDBRANCH   4  25
TORSDOF 6
ENDMDL
MODEL 9
REMARK VINA RESULT:      -5.6      3.610      5.475
REMARK  6 active torsions:
REMARK  status: ('A' for Active; 'I' for Inactive)
REMARK    1  A    between atoms: C6_4  and  N6_22 
REMARK    2  A    between atoms: N9_9  and  C1*_13 
REMARK    3  A    between atoms: C2*_14  and  O2*_21 
REMARK    4  A    between atoms: C3*_15  and  O3*_20 
REMARK    5  A    between atoms: C4*_16  and  C5*_18 
REMARK    6  A    between atoms: C5*_18  and  O5*_19 
ROOT
ATOM      1  C2    A A   1     -21.031 -10.279  -5.112  1.00  0.00     0.183 A 
ATOM      2  N1    A A   1     -21.283 -10.600  -3.824  1.00  0.00    -0.337 N 
ATOM      3  H1    A A   1     -21.283 -11.572  -3.516  1.00  0.00     0.168 HD
ATOM      4  C6    A A   1     -21.535  -9.597  -2.955  1.00  0.00     0.131 A 
ATOM      5  C5    A A   1     -21.463  -8.276  -3.423  1.00  0.00     0.122 A 
ATOM      6  C4    A A   1     -21.215  -8.092  -4.776  1.00  0.00     0.142 A 
ATOM      7  N3    A A   1     -21.004  -9.057  -5.692  1.00  0.00    -0.336 N 
ATOM      8  H3    A A   1     -20.847  -8.890  -6.686  1.00  0.00     0.168 HD
ATOM      9  N9    A A   1     -21.296  -6.742  -4.960  1.00  0.00    -0.297 N 
ATOM     10  C8    A A   1     -21.517  -6.172  -3.729  1.00  0.00     0.188 A 
ATOM     11  N7    A A   1     -21.617  -7.069  -2.775  1.00  0.00    -0.346 N 
ATOM     12  H7    A A   1     -21.773  -6.908  -1.780  1.00  0.00     0.167 HD
ENDROOT
BRANCH   9  13
ATOM     13  C1*   A A   1     -21.387  -6.000  -6.198  1.00  0.00     0.262 C 
ATOM     14  C2*   A A   1     -20.051  -5.483  -6.720  1.00  0.00     0.198 C 
ATOM     15  C3*   A A   1     -20.416  -4.175  -7.421  1.00  0.00     0.182 C 
ATOM     16  C4*   A A   1     -21.933  -4.023  -7.205  1.00  0.00     0.179 C 
ATOM     17  O4*   A A   1     -22.272  -4.872  -6.091  1.00  0.00    -0.353 OA
BRANCH  14  18
ATOM     18  O2*   A A   1     -19.473  -6.425  -7.629  1.00  0.00    -0.388 OA
ATOM     19  H2*   A A   1     -20.214  -7.016  -7.889  1.00  0.00     0.210 HD
ENDBRANCH  14  18
BRANCH  15  20
ATOM     20  O3*   A A   1     -19.957  -4.218  -8.775  1.00  0.00    -0.390 OA
ATOM     21  H3*   A A   1     -19.973  -3.304  -9.138  1.00  0.00     0.210 HD
ENDBRANCH  15  20
BRANCH  16  22
ATOM     22  C5*   A A   1     -22.780  -4.392  -8.433  1.00  0.00     0.198 C 
BRANCH  22  23
ATOM     23  O5*   A A   1     -24.091  -3.843  -8.317  1.00  0.00    -0.398 OA
ATOM     24  H5*   A A   1     -24.700  -4.581  -8.131  1.00  0.00     0.209 HD
ENDBRANCH  22  23
ENDBRANCH  16  22
ENDBRANCH   9  13
BRANCH   4  25
ATOM     25  N6    A A   1     -21.869  -9.912  -1.647  1.00  0.00    -0.383 N 
ATOM     26  H61   A A   1     -22.860 -10.037  -1.504  1.00  0.00     0.157 HD
ATOM     27  H62   A A   1     -21.228 -10.561  -1.206  1.00  0.00     0.157 HD
ENDBRANCH   4  25
TORSDOF 6
ENDMDL
