MODEL 1
REMARK VINA RESULT:      -5.0      0.000      0.000
REMARK  6 active torsions:
REMARK  status: ('A' for Active; 'I' for Inactive)
REMARK    1  A    between atoms: CB_1  and  CA_2 
REMARK    2  A    between atoms: CB_1  and  CG_7 
REMARK    3  A    between atoms: CA_2  and  C_3 
REMARK    4  A    between atoms: CA_2  and  N_6 
REMARK    5  A    between atoms: C_3  and  OXT_5 
REMARK    6  A    between atoms: CG_7  and  OD2_9 
ROOT
ATOM      1  CA  ASP A   1     -23.053  -3.783 -11.175  1.00  0.00     0.324 C 
ENDROOT
BRANCH   1   2
ATOM      2  CB  ASP A   1     -22.649  -2.576 -12.023  1.00  0.00     0.156 C 
BRANCH   2   3
ATOM      3  CG  ASP A   1     -23.319  -2.610 -13.370  1.00  0.00     0.141 C 
ATOM      4  OD1 ASP A   1     -22.745  -2.924 -14.406  1.00  0.00    -0.650 OA
BRANCH   3   5
ATOM      5  OD2 ASP A   1     -24.611  -2.237 -13.334  1.00  0.00    -0.776 OA
ATOM      6  HD2 ASP A   1     -25.170  -2.642 -14.025  1.00  0.00     0.167 HD
ENDBRANCH   3   5
ENDBRANCH   2   3
ENDBRANCH   1   2
BRANCH   1   7
ATOM      7  C   ASP A   1     -24.179  -3.446 -10.175  1.00  0.00     0.174 C 
ATOM      8  O   ASP A   1     -25.337  -3.237 -10.517  1.00  0.00    -0.648 OA
BRANCH   7   9
ATOM      9  OXT ASP A   1     -23.808  -3.417  -8.878  1.00  0.00    -0.775 OA
ATOM     10  HXT ASP A   1     -23.682  -4.303  -8.453  1.00  0.00     0.167 HD
ENDBRANCH   7   9
ENDBRANCH   1   7
BRANCH   1  11
ATOM     11  N   ASP A   1     -23.537  -4.840 -12.107  1.00  0.00     0.093 N 
ATOM     12  H1  ASP A   1     -24.175  -4.396 -12.778  1.00  0.00     0.314 HD
ATOM     13  H2  ASP A   1     -24.168  -5.452 -11.580  1.00  0.00     0.314 HD
ENDBRANCH   1  11
TORSDOF 6
ENDMDL
MODEL 2
REMARK VINA RESULT:      -4.9      1.320      3.808
REMARK  6 active torsions:
REMARK  status: ('A' for Active; 'I' for Inactive)
REMARK    1  A    between atoms: CB_1  and  CA_2 
REMARK    2  A    between atoms: CB_1  and  CG_7 
REMARK    3  A    between atoms: CA_2  and  C_3 
REMARK    4  A    between atoms: CA_2  and  N_6 
REMARK    5  A    between atoms: C_3  and  OXT_5 
REMARK    6  A    between atoms: CG_7  and  OD2_9 
ROOT
ATOM      1  CA  ASP A   1     -23.158  -3.421 -13.039  1.00  0.00     0.324 C 
ENDROOT
BRANCH   1   2
ATOM      2  CB  ASP A   1     -23.695  -2.728 -11.787  1.00  0.00     0.156 C 
BRANCH   2   3
ATOM      3  CG  ASP A   1     -24.287  -3.723 -10.826  1.00  0.00     0.141 C 
ATOM      4  OD1 ASP A   1     -23.863  -4.864 -10.683  1.00  0.00    -0.650 OA
BRANCH   3   5
ATOM      5  OD2 ASP A   1     -25.348  -3.248 -10.149  1.00  0.00    -0.776 OA
ATOM      6  HD2 ASP A   1     -25.754  -2.450 -10.540  1.00  0.00     0.167 HD
ENDBRANCH   3   5
ENDBRANCH   2   3
ENDBRANCH   1   2
BRANCH   1   7
ATOM      7  C   ASP A   1     -23.280  -2.535 -14.297  1.00  0.00     0.174 C 
ATOM      8  O   ASP A   1     -22.619  -2.721 -15.313  1.00  0.00    -0.648 OA
BRANCH   7   9
ATOM      9  OXT ASP A   1     -24.188  -1.541 -14.216  1.00  0.00    -0.775 OA
ATOM     10  HXT ASP A   1     -24.826  -1.486 -14.972  1.00  0.00     0.167 HD
ENDBRANCH   7   9
ENDBRANCH   1   7
BRANCH   1  11
ATOM     11  N   ASP A   1     -21.718  -3.721 -12.800  1.00  0.00     0.093 N 
ATOM     12  H1  ASP A   1     -21.340  -2.977 -12.201  1.00  0.00     0.314 HD
ATOM     13  H2  ASP A   1     -21.219  -3.566 -13.681  1.00  0.00     0.314 HD
ENDBRANCH   1  11
TORSDOF 6
ENDMDL
MODEL 3
REMARK VINA RESULT:      -4.8      1.851      3.826
REMARK  6 active torsions:
REMARK  status: ('A' for Active; 'I' for Inactive)
REMARK    1  A    between atoms: CB_1  and  CA_2 
REMARK    2  A    between atoms: CB_1  and  CG_7 
REMARK    3  A    between atoms: CA_2  and  C_3 
REMARK    4  A    between atoms: CA_2  and  N_6 
REMARK    5  A    between atoms: C_3  and  OXT_5 
REMARK    6  A    between atoms: CG_7  and  OD2_9 
ROOT
ATOM      1  CA  ASP A   1     -23.892  -2.908 -13.096  1.00  0.00     0.324 C 
ENDROOT
BRANCH   1   2
ATOM      2  CB  ASP A   1     -22.913  -2.581 -11.968  1.00  0.00     0.156 C 
BRANCH   2   3
ATOM      3  CG  ASP A   1     -22.073  -3.777 -11.612  1.00  0.00     0.141 C 
ATOM      4  OD1 ASP A   1     -22.256  -4.463 -10.614  1.00  0.00    -0.650 OA
BRANCH   3   5
ATOM      5  OD2 ASP A   1     -21.079  -4.012 -12.488  1.00  0.00    -0.776 OA
ATOM      6  HD2 ASP A   1     -21.079  -4.911 -12.871  1.00  0.00     0.167 HD
ENDBRANCH   3   5
ENDBRANCH   2   3
ENDBRANCH   1   2
BRANCH   1   7
ATOM      7  C   ASP A   1     -23.439  -2.329 -14.453  1.00  0.00     0.174 C 
ATOM      8  O   ASP A   1     -23.937  -1.325 -14.951  1.00  0.00    -0.648 OA
BRANCH   7   9
ATOM      9  OXT ASP A   1     -22.432  -2.994 -15.055  1.00  0.00    -0.775 OA
ATOM     10  HXT ASP A   1     -22.286  -3.921 -14.739  1.00  0.00     0.167 HD
ENDBRANCH   7   9
ENDBRANCH   1   7
BRANCH   1  11
ATOM     11  N   ASP A   1     -23.964  -4.392 -13.207  1.00  0.00     0.093 N 
ATOM     12  H1  ASP A   1     -23.357  -4.678 -13.985  1.00  0.00     0.314 HD
ATOM     13  H2  ASP A   1     -24.895  -4.633 -13.558  1.00  0.00     0.314 HD
ENDBRANCH   1  11
TORSDOF 6
ENDMDL
MODEL 4
REMARK VINA RESULT:      -4.7      6.716      7.712
REMARK  6 active torsions:
REMARK  status: ('A' for Active; 'I' for Inactive)
REMARK    1  A    between atoms: CB_1  and  CA_2 
REMARK    2  A    between atoms: CB_1  and  CG_7 
REMARK    3  A    between atoms: CA_2  and  C_3 
REMARK    4  A    between atoms: CA_2  and  N_6 
REMARK    5  A    between atoms: C_3  and  OXT_5 
REMARK    6  A    between atoms: CG_7  and  OD2_9 
ROOT
ATOM      1  CA  ASP A   1     -26.691  -6.270 -16.628  1.00  0.00     0.324 C 
ENDROOT
BRANCH   1   2
ATOM      2  CB  ASP A   1     -27.841  -6.961 -15.895  1.00  0.00     0.156 C 
BRANCH   2   3
ATOM      3  CG  ASP A   1     -29.076  -7.021 -16.754  1.00  0.00     0.141 C 
ATOM      4  OD1 ASP A   1     -29.797  -6.056 -16.974  1.00  0.00    -0.650 OA
BRANCH   3   5
ATOM      5  OD2 ASP A   1     -29.329  -8.250 -17.241  1.00  0.00    -0.776 OA
ATOM      6  HD2 ASP A   1     -30.266  -8.413 -17.464  1.00  0.00     0.167 HD
ENDBRANCH   3   5
ENDBRANCH   2   3
ENDBRANCH   1   2
BRANCH   1   7
ATOM      7  C   ASP A   1     -25.318  -6.872 -16.266  1.00  0.00     0.174 C 
ATOM      8  O   ASP A   1     -25.066  -7.350 -15.165  1.00  0.00    -0.648 OA
BRANCH   7   9
ATOM      9  OXT ASP A   1     -24.403  -6.859 -17.257  1.00  0.00    -0.775 OA
ATOM     10  HXT ASP A   1     -23.814  -7.654 -17.302  1.00  0.00     0.167 HD
ENDBRANCH   7   9
ENDBRANCH   1   7
BRANCH   1  11
ATOM     11  N   ASP A   1     -26.924  -6.448 -18.090  1.00  0.00     0.093 N 
ATOM     12  H1  ASP A   1     -26.056  -6.812 -18.502  1.00  0.00     0.314 HD
ATOM     13  H2  ASP A   1     -26.990  -5.516 -18.509  1.00  0.00     0.314 HD
ENDBRANCH   1  11
TORSDOF 6
ENDMDL
MODEL 5
REMARK VINA RESULT:      -4.6      1.401      3.681
REMARK  6 active torsions:
REMARK  status: ('A' for Active; 'I' for Inactive)
REMARK    1  A    between atoms: CB_1  and  CA_2 
REMARK    2  A    between atoms: CB_1  and  CG_7 
REMARK    3  A    between atoms: CA_2  and  C_3 
REMARK    4  A    between atoms: CA_2  and  N_6 
REMARK    5  A    between atoms: C_3  and  OXT_5 
REMARK    6  A    between atoms: CG_7  and  OD2_9 
ROOT
ATOM      1  CA  ASP A   1     -23.205  -4.121 -11.807  1.00  0.00     0.324 C 
ENDROOT
BRANCH   1   2
ATOM      2  CB  ASP A   1     -23.904  -4.724 -10.588  1.00  0.00     0.156 C 
BRANCH   2   3
ATOM      3  CG  ASP A   1     -23.850  -3.788  -9.412  1.00  0.00     0.141 C 
ATOM      4  OD1 ASP A   1     -23.031  -3.882  -8.506  1.00  0.00    -0.650 OA
BRANCH   3   5
ATOM      5  OD2 ASP A   1     -24.809  -2.844  -9.435  1.00  0.00    -0.776 OA
ATOM      6  HD2 ASP A   1     -25.408  -2.855  -8.664  1.00  0.00     0.167 HD
ENDBRANCH   3   5
ENDBRANCH   2   3
ENDBRANCH   1   2
BRANCH   1   7
ATOM      7  C   ASP A   1     -24.205  -3.562 -12.841  1.00  0.00     0.174 C 
ATOM      8  O   ASP A   1     -25.205  -2.926 -12.528  1.00  0.00    -0.648 OA
BRANCH   7   9
ATOM      9  OXT ASP A   1     -23.894  -3.803 -14.131  1.00  0.00    -0.775 OA
ATOM     10  HXT ASP A   1     -24.312  -3.193 -14.790  1.00  0.00     0.167 HD
ENDBRANCH   7   9
ENDBRANCH   1   7
BRANCH   1  11
ATOM     11  N   ASP A   1     -22.343  -3.007 -11.320  1.00  0.00     0.093 N 
ATOM     12  H1  ASP A   1     -22.942  -2.182 -11.192  1.00  0.00     0.314 HD
ATOM     13  H2  ASP A   1     -21.740  -2.719 -12.096  1.00  0.00     0.314 HD
ENDBRANCH   1  11
TORSDOF 6
ENDMDL
MODEL 6
REMARK VINA RESULT:      -4.6      2.155      2.826
REMARK  6 active torsions:
REMARK  status: ('A' for Active; 'I' for Inactive)
REMARK    1  A    between atoms: CB_1  and  CA_2 
REMARK    2  A    between atoms: CB_1  and  CG_7 
REMARK    3  A    between atoms: CA_2  and  C_3 
REMARK    4  A    between atoms: CA_2  and  N_6 
REMARK    5  A    between atoms: C_3  and  OXT_5 
REMARK    6  A    between atoms: CG_7  and  OD2_9 
ROOT
ATOM      1  CA  ASP A   1     -23.391  -4.487 -10.741  1.00  0.00     0.324 C 
ENDROOT
BRANCH   1   2
ATOM      2  CB  ASP A   1     -22.157  -4.048  -9.953  1.00  0.00     0.156 C 
BRANCH   2   3
ATOM      3  CG  ASP A   1     -20.959  -3.909 -10.852  1.00  0.00     0.141 C 
ATOM      4  OD1 ASP A   1     -20.026  -4.704 -10.868  1.00  0.00    -0.650 OA
BRANCH   3   5
ATOM      5  OD2 ASP A   1     -20.995  -2.809 -11.626  1.00  0.00    -0.776 OA
ATOM      6  HD2 ASP A   1     -21.581  -2.100 -11.296  1.00  0.00     0.167 HD
ENDBRANCH   3   5
ENDBRANCH   2   3
ENDBRANCH   1   2
BRANCH   1   7
ATOM      7  C   ASP A   1     -24.403  -3.337 -10.934  1.00  0.00     0.174 C 
ATOM      8  O   ASP A   1     -25.399  -3.198 -10.234  1.00  0.00    -0.648 OA
BRANCH   7   9
ATOM      9  OXT ASP A   1     -24.107  -2.471 -11.924  1.00  0.00    -0.775 OA
ATOM     10  HXT ASP A   1     -23.207  -2.059 -11.874  1.00  0.00     0.167 HD
ENDBRANCH   7   9
ENDBRANCH   1   7
BRANCH   1  11
ATOM     11  N   ASP A   1     -22.925  -4.947 -12.079  1.00  0.00     0.093 N 
ATOM     12  H1  ASP A   1     -22.680  -5.942 -12.000  1.00  0.00     0.314 HD
ATOM     13  H2  ASP A   1     -22.014  -4.513 -12.256  1.00  0.00     0.314 HD
ENDBRANCH   1  11
TORSDOF 6
ENDMDL
MODEL 7
REMARK VINA RESULT:      -4.6      1.758      2.373
REMARK  6 active torsions:
REMARK  status: ('A' for Active; 'I' for Inactive)
REMARK    1  A    between atoms: CB_1  and  CA_2 
REMARK    2  A    between atoms: CB_1  and  CG_7 
REMARK    3  A    between atoms: CA_2  and  C_3 
REMARK    4  A    between atoms: CA_2  and  N_6 
REMARK    5  A    between atoms: C_3  and  OXT_5 
REMARK    6  A    between atoms: CG_7  and  OD2_9 
ROOT
ATOM      1  CA  ASP A   1     -24.144  -4.018 -10.130  1.00  0.00     0.324 C 
ENDROOT
BRANCH   1   2
ATOM      2  CB  ASP A   1     -23.618  -3.083 -11.220  1.00  0.00     0.156 C 
BRANCH   2   3
ATOM      3  CG  ASP A   1     -24.371  -3.271 -12.509  1.00  0.00     0.141 C 
ATOM      4  OD1 ASP A   1     -25.497  -2.832 -12.709  1.00  0.00    -0.650 OA
BRANCH   3   5
ATOM      5  OD2 ASP A   1     -23.695  -3.994 -13.421  1.00  0.00    -0.776 OA
ATOM      6  HD2 ASP A   1     -24.142  -4.075 -14.286  1.00  0.00     0.167 HD
ENDBRANCH   3   5
ENDBRANCH   2   3
ENDBRANCH   1   2
BRANCH   1   7
ATOM      7  C   ASP A   1     -23.249  -4.015  -8.873  1.00  0.00     0.174 C 
ATOM      8  O   ASP A   1     -22.030  -3.894  -8.920  1.00  0.00    -0.648 OA
BRANCH   7   9
ATOM      9  OXT ASP A   1     -23.904  -4.136  -7.700  1.00  0.00    -0.775 OA
ATOM     10  HXT ASP A   1     -23.362  -3.959  -6.891  1.00  0.00     0.167 HD
ENDBRANCH   7   9
ENDBRANCH   1   7
BRANCH   1  11
ATOM     11  N   ASP A   1     -25.505  -3.541  -9.753  1.00  0.00     0.093 N 
ATOM     12  H1  ASP A   1     -26.185  -4.038 -10.341  1.00  0.00     0.314 HD
ATOM     13  H2  ASP A   1     -25.597  -2.575 -10.083  1.00  0.00     0.314 HD
ENDBRANCH   1  11
TORSDOF 6
ENDMDL
MODEL 8
REMARK VINA RESULT:      -4.5      2.088      3.759
REMARK  6 active torsions:
REMARK  status: ('A' for Active; 'I' for Inactive)
REMARK    1  A    between atoms: CB_1  and  CA_2 
REMARK    2  A    between atoms: CB_1  and  CG_7 
REMARK    3  A    between atoms: CA_2  and  C_3 
REMARK    4  A    between atoms: CA_2  and  N_6 
REMARK    5  A    between atoms: C_3  and  OXT_5 
REMARK    6  A    between atoms: CG_7  and  OD2_9 
ROOT
ATOM      1  CA  ASP A   1     -22.408  -3.422 -11.368  1.00  0.00     0.324 C 
ENDROOT
BRANCH   1   2
ATOM      2  CB  ASP A   1     -23.523  -4.366 -10.916  1.00  0.00     0.156 C 
BRANCH   2   3
ATOM      3  CG  ASP A   1     -24.422  -3.701  -9.909  1.00  0.00     0.141 C 
ATOM      4  OD1 ASP A   1     -25.483  -3.162 -10.199  1.00  0.00    -0.650 OA
BRANCH   3   5
ATOM      5  OD2 ASP A   1     -23.938  -3.735  -8.655  1.00  0.00    -0.776 OA
ATOM      6  HD2 ASP A   1     -22.968  -3.841  -8.597  1.00  0.00     0.167 HD
ENDBRANCH   3   5
ENDBRANCH   2   3
ENDBRANCH   1   2
BRANCH   1   7
ATOM      7  C   ASP A   1     -21.047  -3.775 -10.732  1.00  0.00     0.174 C 
ATOM      8  O   ASP A   1     -20.910  -4.021  -9.539  1.00  0.00    -0.648 OA
BRANCH   7   9
ATOM      9  OXT ASP A   1     -20.004  -3.816 -11.587  1.00  0.00    -0.775 OA
ATOM     10  HXT ASP A   1     -20.136  -4.383 -12.389  1.00  0.00     0.167 HD
ENDBRANCH   7   9
ENDBRANCH   1   7
BRANCH   1  11
ATOM     11  N   ASP A   1     -22.292  -3.547 -12.849  1.00  0.00     0.093 N 
ATOM     12  H1  ASP A   1     -21.360  -3.211 -13.120  1.00  0.00     0.314 HD
ATOM     13  H2  ASP A   1     -22.907  -2.843 -13.268  1.00  0.00     0.314 HD
ENDBRANCH   1  11
TORSDOF 6
ENDMDL
MODEL 9
REMARK VINA RESULT:      -4.4      1.907      3.916
REMARK  6 active torsions:
REMARK  status: ('A' for Active; 'I' for Inactive)
REMARK    1  A    between atoms: CB_1  and  CA_2 
REMARK    2  A    between atoms: CB_1  and  CG_7 
REMARK    3  A    between atoms: CA_2  and  C_3 
REMARK    4  A    between atoms: CA_2  and  N_6 
REMARK    5  A    between atoms: C_3  and  OXT_5 
REMARK    6  A    between atoms: CG_7  and  OD2_9 
ROOT
ATOM      1  CA  ASP A   1     -23.361  -4.380 -10.493  1.00  0.00     0.324 C 
ENDROOT
BRANCH   1   2
ATOM      2  CB  ASP A   1     -22.399  -3.763  -9.477  1.00  0.00     0.156 C 
BRANCH   2   3
ATOM      3  CG  ASP A   1     -22.525  -4.429  -8.134  1.00  0.00     0.141 C 
ATOM      4  OD1 ASP A   1     -21.657  -5.142  -7.645  1.00  0.00    -0.650 OA
BRANCH   3   5
ATOM      5  OD2 ASP A   1     -23.699  -4.184  -7.524  1.00  0.00    -0.776 OA
ATOM      6  HD2 ASP A   1     -23.659  -4.193  -6.548  1.00  0.00     0.167 HD
ENDBRANCH   3   5
ENDBRANCH   2   3
ENDBRANCH   1   2
BRANCH   1   7
ATOM      7  C   ASP A   1     -24.552  -3.452 -10.812  1.00  0.00     0.174 C 
ATOM      8  O   ASP A   1     -24.697  -2.899 -11.896  1.00  0.00    -0.648 OA
BRANCH   7   9
ATOM      9  OXT ASP A   1     -25.448  -3.300  -9.815  1.00  0.00    -0.775 OA
ATOM     10  HXT ASP A   1     -26.257  -3.868  -9.882  1.00  0.00     0.167 HD
ENDBRANCH   7   9
ENDBRANCH   1   7
BRANCH   1  11
ATOM     11  N   ASP A   1     -22.591  -4.623 -11.745  1.00  0.00     0.093 N 
ATOM     12  H1  ASP A   1     -21.593  -4.518 -11.525  1.00  0.00     0.314 HD
ATOM     13  H2  ASP A   1     -22.759  -3.829 -12.371  1.00  0.00     0.314 HD
ENDBRANCH   1  11
TORSDOF 6
ENDMDL
