MODEL 1
REMARK VINA RESULT:      -5.1      0.000      0.000
REMARK  14 active torsions:
REMARK  status: ('A' for Active; 'I' for Inactive)
REMARK    1  A    between atoms: O_2  and  C_3 
REMARK    2  A    between atoms: C_3  and  C_4 
REMARK    3  A    between atoms: C_4  and  O_5 
REMARK    4  A    between atoms: O_5  and  C_6 
REMARK    5  A    between atoms: C_6  and  C_7 
REMARK    6  A    between atoms: C_7  and  C_8 
REMARK    7  A    between atoms: C_7  and  O_14 
REMARK    8  A    between atoms: C_8  and  O_9 
REMARK    9  A    between atoms: O_9  and  C_10 
REMARK   10  A    between atoms: C_10  and  C_11 
REMARK   11  A    between atoms: C_11  and  O_12 
REMARK   12  A    between atoms: O_14  and  C_15 
REMARK   13  A    between atoms: C_15  and  C_16 
REMARK   14  A    between atoms: C_16  and  O_17 
ROOT
HETATM    1  C   UNL     1     -35.975  -1.511 -11.000  1.00  0.00     0.169 C 
ENDROOT
BRANCH   1   2
HETATM    2  C   UNL     1     -36.856  -0.984  -9.857  1.00  0.00     0.201 C 
BRANCH   2   3
HETATM    3  O   UNL     1     -36.185   0.040  -9.127  1.00  0.00    -0.386 OA
BRANCH   3   4
HETATM    4  C   UNL     1     -37.050   1.159  -8.922  1.00  0.00     0.193 C 
BRANCH   4   5
HETATM    5  C   UNL     1     -37.837   0.952  -7.636  1.00  0.00     0.193 C 
BRANCH   5   6
HETATM    6  O   UNL     1     -37.144   1.586  -6.562  1.00  0.00    -0.394 OA
HETATM    7  C   UNL     1     -37.167   0.785  -5.392  1.00  0.00     0.201 C 
ENDBRANCH   5   6
ENDBRANCH   4   5
ENDBRANCH   3   4
ENDBRANCH   2   3
ENDBRANCH   1   2
BRANCH   1   8
HETATM    8  C   UNL     1     -36.048  -0.560 -12.215  1.00  0.00     0.201 C 
BRANCH   8   9
HETATM    9  O   UNL     1     -34.911   0.308 -12.342  1.00  0.00    -0.386 OA
BRANCH   9  10
HETATM   10  C   UNL     1     -34.720   0.804 -13.664  1.00  0.00     0.193 C 
BRANCH  10  11
HETATM   11  C   UNL     1     -35.723   0.152 -14.608  1.00  0.00     0.193 C 
BRANCH  11  12
HETATM   12  O   UNL     1     -35.011  -0.508 -15.654  1.00  0.00    -0.394 OA
HETATM   13  C   UNL     1     -35.889  -1.004 -16.655  1.00  0.00     0.201 C 
ENDBRANCH  11  12
ENDBRANCH  10  11
ENDBRANCH   9  10
ENDBRANCH   8   9
ENDBRANCH   1   8
BRANCH   1  14
HETATM   14  O   UNL     1     -34.602  -1.622 -10.579  1.00  0.00    -0.380 OA
BRANCH  14  15
HETATM   15  C   UNL     1     -34.153  -2.975 -10.511  1.00  0.00     0.194 C 
BRANCH  15  16
HETATM   16  C   UNL     1     -33.029  -3.222 -11.508  1.00  0.00     0.193 C 
BRANCH  16  17
HETATM   17  O   UNL     1     -32.831  -4.631 -11.606  1.00  0.00    -0.394 OA
HETATM   18  C   UNL     1     -33.848  -5.360 -10.935  1.00  0.00     0.201 C 
ENDBRANCH  16  17
ENDBRANCH  15  16
ENDBRANCH  14  15
ENDBRANCH   1  14
TORSDOF 14
ENDMDL
MODEL 2
REMARK VINA RESULT:      -5.1      1.010      6.258
REMARK  14 active torsions:
REMARK  status: ('A' for Active; 'I' for Inactive)
REMARK    1  A    between atoms: O_2  and  C_3 
REMARK    2  A    between atoms: C_3  and  C_4 
REMARK    3  A    between atoms: C_4  and  O_5 
REMARK    4  A    between atoms: O_5  and  C_6 
REMARK    5  A    between atoms: C_6  and  C_7 
REMARK    6  A    between atoms: C_7  and  C_8 
REMARK    7  A    between atoms: C_7  and  O_14 
REMARK    8  A    between atoms: C_8  and  O_9 
REMARK    9  A    between atoms: O_9  and  C_10 
REMARK   10  A    between atoms: C_10  and  C_11 
REMARK   11  A    between atoms: C_11  and  O_12 
REMARK   12  A    between atoms: O_14  and  C_15 
REMARK   13  A    between atoms: C_15  and  C_16 
REMARK   14  A    between atoms: C_16  and  O_17 
ROOT
HETATM    1  C   UNL     1     -36.900  -0.900 -10.395  1.00  0.00     0.169 C 
ENDROOT
BRANCH   1   2
HETATM    2  C   UNL     1     -37.467  -0.186 -11.631  1.00  0.00     0.201 C 
BRANCH   2   3
HETATM    3  O   UNL     1     -37.175  -0.917 -12.820  1.00  0.00    -0.386 OA
BRANCH   3   4
HETATM    4  C   UNL     1     -36.982  -0.028 -13.921  1.00  0.00     0.193 C 
BRANCH   4   5
HETATM    5  C   UNL     1     -35.502   0.306 -14.042  1.00  0.00     0.193 C 
BRANCH   5   6
HETATM    6  O   UNL     1     -34.912  -0.552 -15.016  1.00  0.00    -0.394 OA
HETATM    7  C   UNL     1     -35.787  -0.765 -16.112  1.00  0.00     0.201 C 
ENDBRANCH   5   6
ENDBRANCH   4   5
ENDBRANCH   3   4
ENDBRANCH   2   3
ENDBRANCH   1   2
BRANCH   1   8
HETATM    8  C   UNL     1     -35.797  -1.900 -10.811  1.00  0.00     0.201 C 
BRANCH   8   9
HETATM    9  O   UNL     1     -34.476  -1.335 -10.822  1.00  0.00    -0.386 OA
BRANCH   9  10
HETATM   10  C   UNL     1     -33.441  -2.313 -10.787  1.00  0.00     0.193 C 
BRANCH  10  11
HETATM   11  C   UNL     1     -33.952  -3.623 -11.375  1.00  0.00     0.193 C 
BRANCH  11  12
HETATM   12  O   UNL     1     -33.682  -4.679 -10.452  1.00  0.00    -0.394 OA
HETATM   13  C   UNL     1     -34.371  -5.871 -10.804  1.00  0.00     0.201 C 
ENDBRANCH  11  12
ENDBRANCH  10  11
ENDBRANCH   9  10
ENDBRANCH   8   9
ENDBRANCH   1   8
BRANCH   1  14
HETATM   14  O   UNL     1     -36.340   0.050  -9.467  1.00  0.00    -0.380 OA
BRANCH  14  15
HETATM   15  C   UNL     1     -37.222   1.136  -9.190  1.00  0.00     0.194 C 
BRANCH  15  16
HETATM   16  C   UNL     1     -37.893   0.955  -7.835  1.00  0.00     0.193 C 
BRANCH  16  17
HETATM   17  O   UNL     1     -37.032   1.506  -6.841  1.00  0.00    -0.394 OA
HETATM   18  C   UNL     1     -37.225   0.899  -5.573  1.00  0.00     0.201 C 
ENDBRANCH  16  17
ENDBRANCH  15  16
ENDBRANCH  14  15
ENDBRANCH   1  14
TORSDOF 14
ENDMDL
MODEL 3
REMARK VINA RESULT:      -4.8      1.702      6.332
REMARK  14 active torsions:
REMARK  status: ('A' for Active; 'I' for Inactive)
REMARK    1  A    between atoms: O_2  and  C_3 
REMARK    2  A    between atoms: C_3  and  C_4 
REMARK    3  A    between atoms: C_4  and  O_5 
REMARK    4  A    between atoms: O_5  and  C_6 
REMARK    5  A    between atoms: C_6  and  C_7 
REMARK    6  A    between atoms: C_7  and  C_8 
REMARK    7  A    between atoms: C_7  and  O_14 
REMARK    8  A    between atoms: C_8  and  O_9 
REMARK    9  A    between atoms: O_9  and  C_10 
REMARK   10  A    between atoms: C_10  and  C_11 
REMARK   11  A    between atoms: C_11  and  O_12 
REMARK   12  A    between atoms: O_14  and  C_15 
REMARK   13  A    between atoms: C_15  and  C_16 
REMARK   14  A    between atoms: C_16  and  O_17 
ROOT
HETATM    1  C   UNL     1     -35.072  -2.469 -11.919  1.00  0.00     0.169 C 
ENDROOT
BRANCH   1   2
HETATM    2  C   UNL     1     -33.669  -2.867 -11.436  1.00  0.00     0.201 C 
BRANCH   2   3
HETATM    3  O   UNL     1     -33.742  -3.896 -10.452  1.00  0.00    -0.386 OA
BRANCH   3   4
HETATM    4  C   UNL     1     -34.685  -4.896 -10.841  1.00  0.00     0.193 C 
BRANCH   4   5
HETATM    5  C   UNL     1     -33.998  -6.253 -10.852  1.00  0.00     0.193 C 
BRANCH   5   6
HETATM    6  O   UNL     1     -34.857  -7.212 -10.237  1.00  0.00    -0.394 OA
HETATM    7  C   UNL     1     -34.170  -8.426  -9.977  1.00  0.00     0.201 C 
ENDBRANCH   5   6
ENDBRANCH   4   5
ENDBRANCH   3   4
ENDBRANCH   2   3
ENDBRANCH   1   2
BRANCH   1   8
HETATM    8  C   UNL     1     -35.631  -1.317 -11.054  1.00  0.00     0.201 C 
BRANCH   8   9
HETATM    9  O   UNL     1     -36.982  -1.526 -10.612  1.00  0.00    -0.386 OA
BRANCH   9  10
HETATM   10  C   UNL     1     -37.805  -0.370 -10.737  1.00  0.00     0.193 C 
BRANCH  10  11
HETATM   11  C   UNL     1     -37.440   0.641  -9.657  1.00  0.00     0.193 C 
BRANCH  11  12
HETATM   12  O   UNL     1     -37.245  -0.051  -8.424  1.00  0.00    -0.394 OA
HETATM   13  C   UNL     1     -36.692   0.798  -7.428  1.00  0.00     0.201 C 
ENDBRANCH  11  12
ENDBRANCH  10  11
ENDBRANCH   9  10
ENDBRANCH   8   9
ENDBRANCH   1   8
BRANCH   1  14
HETATM   14  O   UNL     1     -35.039  -2.042 -13.294  1.00  0.00    -0.380 OA
BRANCH  14  15
HETATM   15  C   UNL     1     -35.283  -0.645 -13.446  1.00  0.00     0.194 C 
BRANCH  15  16
HETATM   16  C   UNL     1     -35.049  -0.207 -14.885  1.00  0.00     0.193 C 
BRANCH  16  17
HETATM   17  O   UNL     1     -35.214  -1.349 -15.723  1.00  0.00    -0.394 OA
HETATM   18  C   UNL     1     -35.988  -1.055 -16.877  1.00  0.00     0.201 C 
ENDBRANCH  16  17
ENDBRANCH  15  16
ENDBRANCH  14  15
ENDBRANCH   1  14
TORSDOF 14
ENDMDL
MODEL 4
REMARK VINA RESULT:      -4.5      3.409      5.317
REMARK  14 active torsions:
REMARK  status: ('A' for Active; 'I' for Inactive)
REMARK    1  A    between atoms: O_2  and  C_3 
REMARK    2  A    between atoms: C_3  and  C_4 
REMARK    3  A    between atoms: C_4  and  O_5 
REMARK    4  A    between atoms: O_5  and  C_6 
REMARK    5  A    between atoms: C_6  and  C_7 
REMARK    6  A    between atoms: C_7  and  C_8 
REMARK    7  A    between atoms: C_7  and  O_14 
REMARK    8  A    between atoms: C_8  and  O_9 
REMARK    9  A    between atoms: O_9  and  C_10 
REMARK   10  A    between atoms: C_10  and  C_11 
REMARK   11  A    between atoms: C_11  and  O_12 
REMARK   12  A    between atoms: O_14  and  C_15 
REMARK   13  A    between atoms: C_15  and  C_16 
REMARK   14  A    between atoms: C_16  and  O_17 
ROOT
HETATM    1  C   UNL     1     -34.789  -2.782 -12.526  1.00  0.00     0.169 C 
ENDROOT
BRANCH   1   2
HETATM    2  C   UNL     1     -33.597  -3.029 -11.589  1.00  0.00     0.201 C 
BRANCH   2   3
HETATM    3  O   UNL     1     -33.926  -3.990 -10.589  1.00  0.00    -0.386 OA
BRANCH   3   4
HETATM    4  C   UNL     1     -33.541  -5.301 -11.006  1.00  0.00     0.193 C 
BRANCH   4   5
HETATM    5  C   UNL     1     -34.771  -6.050 -11.499  1.00  0.00     0.193 C 
BRANCH   5   6
HETATM    6  O   UNL     1     -34.771  -7.360 -10.935  1.00  0.00    -0.394 OA
HETATM    7  C   UNL     1     -34.868  -7.312  -9.521  1.00  0.00     0.201 C 
ENDBRANCH   5   6
ENDBRANCH   4   5
ENDBRANCH   3   4
ENDBRANCH   2   3
ENDBRANCH   1   2
BRANCH   1   8
HETATM    8  C   UNL     1     -35.428  -1.407 -12.229  1.00  0.00     0.201 C 
BRANCH   8   9
HETATM    9  O   UNL     1     -36.594  -1.126 -13.020  1.00  0.00    -0.386 OA
BRANCH   9  10
HETATM   10  C   UNL     1     -36.449   0.016 -13.859  1.00  0.00     0.193 C 
BRANCH  10  11
HETATM   11  C   UNL     1     -37.524   0.002 -14.938  1.00  0.00     0.193 C 
BRANCH  11  12
HETATM   12  O   UNL     1     -36.903   0.184 -16.211  1.00  0.00    -0.394 OA
HETATM   13  C   UNL     1     -36.026  -0.889 -16.524  1.00  0.00     0.201 C 
ENDBRANCH  11  12
ENDBRANCH  10  11
ENDBRANCH   9  10
ENDBRANCH   8   9
ENDBRANCH   1   8
BRANCH   1  14
HETATM   14  O   UNL     1     -34.371  -2.812 -13.905  1.00  0.00    -0.380 OA
BRANCH  14  15
HETATM   15  C   UNL     1     -34.240  -4.139 -14.413  1.00  0.00     0.194 C 
BRANCH  15  16
HETATM   16  C   UNL     1     -34.046  -4.123 -15.923  1.00  0.00     0.193 C 
BRANCH  16  17
HETATM   17  O   UNL     1     -32.644  -4.113 -16.185  1.00  0.00    -0.394 OA
HETATM   18  C   UNL     1     -32.351  -3.657 -17.497  1.00  0.00     0.201 C 
ENDBRANCH  16  17
ENDBRANCH  15  16
ENDBRANCH  14  15
ENDBRANCH   1  14
TORSDOF 14
ENDMDL
MODEL 5
REMARK VINA RESULT:      -4.3     14.321     17.656
REMARK  14 active torsions:
REMARK  status: ('A' for Active; 'I' for Inactive)
REMARK    1  A    between atoms: O_2  and  C_3 
REMARK    2  A    between atoms: C_3  and  C_4 
REMARK    3  A    between atoms: C_4  and  O_5 
REMARK    4  A    between atoms: O_5  and  C_6 
REMARK    5  A    between atoms: C_6  and  C_7 
REMARK    6  A    between atoms: C_7  and  C_8 
REMARK    7  A    between atoms: C_7  and  O_14 
REMARK    8  A    between atoms: C_8  and  O_9 
REMARK    9  A    between atoms: O_9  and  C_10 
REMARK   10  A    between atoms: C_10  and  C_11 
REMARK   11  A    between atoms: C_11  and  O_12 
REMARK   12  A    between atoms: O_14  and  C_15 
REMARK   13  A    between atoms: C_15  and  C_16 
REMARK   14  A    between atoms: C_16  and  O_17 
ROOT
HETATM    1  C   UNL     1     -20.489  -6.914  -5.302  1.00  0.00     0.169 C 
ENDROOT
BRANCH   1   2
HETATM    2  C   UNL     1     -20.094  -5.836  -6.323  1.00  0.00     0.201 C 
BRANCH   2   3
HETATM    3  O   UNL     1     -20.679  -6.103  -7.596  1.00  0.00    -0.386 OA
BRANCH   3   4
HETATM    4  C   UNL     1     -20.844  -4.892  -8.336  1.00  0.00     0.193 C 
BRANCH   4   5
HETATM    5  C   UNL     1     -21.694  -3.924  -7.527  1.00  0.00     0.193 C 
BRANCH   5   6
HETATM    6  O   UNL     1     -23.060  -4.330  -7.606  1.00  0.00    -0.394 OA
HETATM    7  C   UNL     1     -23.621  -4.002  -8.867  1.00  0.00     0.201 C 
ENDBRANCH   5   6
ENDBRANCH   4   5
ENDBRANCH   3   4
ENDBRANCH   2   3
ENDBRANCH   1   2
BRANCH   1   8
HETATM    8  C   UNL     1     -21.971  -6.752  -4.896  1.00  0.00     0.201 C 
BRANCH   8   9
HETATM    9  O   UNL     1     -22.158  -6.111  -3.624  1.00  0.00    -0.386 OA
BRANCH   9  10
HETATM   10  C   UNL     1     -21.502  -6.780  -2.551  1.00  0.00     0.193 C 
BRANCH  10  11
HETATM   11  C   UNL     1     -22.332  -6.650  -1.279  1.00  0.00     0.193 C 
BRANCH  11  12
HETATM   12  O   UNL     1     -21.911  -7.649  -0.350  1.00  0.00    -0.394 OA
HETATM   13  C   UNL     1     -22.990  -8.104   0.455  1.00  0.00     0.201 C 
ENDBRANCH  11  12
ENDBRANCH  10  11
ENDBRANCH   9  10
ENDBRANCH   8   9
ENDBRANCH   1   8
BRANCH   1  14
HETATM   14  O   UNL     1     -20.298  -8.233  -5.848  1.00  0.00    -0.380 OA
BRANCH  14  15
HETATM   15  C   UNL     1     -19.646  -9.118  -4.940  1.00  0.00     0.194 C 
BRANCH  15  16
HETATM   16  C   UNL     1     -18.311  -9.585  -5.503  1.00  0.00     0.193 C 
BRANCH  16  17
HETATM   17  O   UNL     1     -18.578 -10.513  -6.553  1.00  0.00    -0.394 OA
HETATM   18  C   UNL     1     -19.322 -11.633  -6.098  1.00  0.00     0.201 C 
ENDBRANCH  16  17
ENDBRANCH  15  16
ENDBRANCH  14  15
ENDBRANCH   1  14
TORSDOF 14
ENDMDL
MODEL 6
REMARK VINA RESULT:      -4.3     11.946     15.354
REMARK  14 active torsions:
REMARK  status: ('A' for Active; 'I' for Inactive)
REMARK    1  A    between atoms: O_2  and  C_3 
REMARK    2  A    between atoms: C_3  and  C_4 
REMARK    3  A    between atoms: C_4  and  O_5 
REMARK    4  A    between atoms: O_5  and  C_6 
REMARK    5  A    between atoms: C_6  and  C_7 
REMARK    6  A    between atoms: C_7  and  C_8 
REMARK    7  A    between atoms: C_7  and  O_14 
REMARK    8  A    between atoms: C_8  and  O_9 
REMARK    9  A    between atoms: O_9  and  C_10 
REMARK   10  A    between atoms: C_10  and  C_11 
REMARK   11  A    between atoms: C_11  and  O_12 
REMARK   12  A    between atoms: O_14  and  C_15 
REMARK   13  A    between atoms: C_15  and  C_16 
REMARK   14  A    between atoms: C_16  and  O_17 
ROOT
HETATM    1  C   UNL     1     -23.348  -3.709  -8.324  1.00  0.00     0.169 C 
ENDROOT
BRANCH   1   2
HETATM    2  C   UNL     1     -24.203  -4.172  -9.514  1.00  0.00     0.201 C 
BRANCH   2   3
HETATM    3  O   UNL     1     -24.459  -3.091 -10.408  1.00  0.00    -0.386 OA
BRANCH   3   4
HETATM    4  C   UNL     1     -24.319  -3.518 -11.764  1.00  0.00     0.193 C 
BRANCH   4   5
HETATM    5  C   UNL     1     -23.319  -2.616 -12.472  1.00  0.00     0.193 C 
BRANCH   5   6
HETATM    6  O   UNL     1     -23.838  -2.267 -13.754  1.00  0.00    -0.394 OA
HETATM    7  C   UNL     1     -22.935  -2.620 -14.788  1.00  0.00     0.201 C 
ENDBRANCH   5   6
ENDBRANCH   4   5
ENDBRANCH   3   4
ENDBRANCH   2   3
ENDBRANCH   1   2
BRANCH   1   8
HETATM    8  C   UNL     1     -23.366  -4.774  -7.204  1.00  0.00     0.201 C 
BRANCH   8   9
HETATM    9  O   UNL     1     -22.167  -4.805  -6.413  1.00  0.00    -0.386 OA
BRANCH   9  10
HETATM   10  C   UNL     1     -21.633  -6.115  -6.245  1.00  0.00     0.193 C 
BRANCH  10  11
HETATM   11  C   UNL     1     -20.893  -6.202  -4.916  1.00  0.00     0.193 C 
BRANCH  11  12
HETATM   12  O   UNL     1     -21.815  -5.939  -3.857  1.00  0.00    -0.394 OA
HETATM   13  C   UNL     1     -21.538  -6.734  -2.712  1.00  0.00     0.201 C 
ENDBRANCH  11  12
ENDBRANCH  10  11
ENDBRANCH   9  10
ENDBRANCH   8   9
ENDBRANCH   1   8
BRANCH   1  14
HETATM   14  O   UNL     1     -21.984  -3.486  -8.730  1.00  0.00    -0.380 OA
BRANCH  14  15
HETATM   15  C   UNL     1     -21.485  -4.517  -9.581  1.00  0.00     0.194 C 
BRANCH  15  16
HETATM   16  C   UNL     1     -19.971  -4.632  -9.460  1.00  0.00     0.193 C 
BRANCH  16  17
HETATM   17  O   UNL     1     -19.552  -3.796  -8.384  1.00  0.00    -0.394 OA
HETATM   18  C   UNL     1     -18.702  -4.481  -7.477  1.00  0.00     0.201 C 
ENDBRANCH  16  17
ENDBRANCH  15  16
ENDBRANCH  14  15
ENDBRANCH   1  14
TORSDOF 14
ENDMDL
MODEL 7
REMARK VINA RESULT:      -4.3     13.618     16.087
REMARK  14 active torsions:
REMARK  status: ('A' for Active; 'I' for Inactive)
REMARK    1  A    between atoms: O_2  and  C_3 
REMARK    2  A    between atoms: C_3  and  C_4 
REMARK    3  A    between atoms: C_4  and  O_5 
REMARK    4  A    between atoms: O_5  and  C_6 
REMARK    5  A    between atoms: C_6  and  C_7 
REMARK    6  A    between atoms: C_7  and  C_8 
REMARK    7  A    between atoms: C_7  and  O_14 
REMARK    8  A    between atoms: C_8  and  O_9 
REMARK    9  A    between atoms: O_9  and  C_10 
REMARK   10  A    between atoms: C_10  and  C_11 
REMARK   11  A    between atoms: C_11  and  O_12 
REMARK   12  A    between atoms: O_14  and  C_15 
REMARK   13  A    between atoms: C_15  and  C_16 
REMARK   14  A    between atoms: C_16  and  O_17 
ROOT
HETATM    1  C   UNL     1     -21.751  -6.332  -5.503  1.00  0.00     0.169 C 
ENDROOT
BRANCH   1   2
HETATM    2  C   UNL     1     -21.356  -6.068  -4.041  1.00  0.00     0.201 C 
BRANCH   2   3
HETATM    3  O   UNL     1     -22.499  -6.105  -3.190  1.00  0.00    -0.386 OA
BRANCH   3   4
HETATM    4  C   UNL     1     -22.104  -6.255  -1.826  1.00  0.00     0.193 C 
BRANCH   4   5
HETATM    5  C   UNL     1     -21.319  -7.549  -1.671  1.00  0.00     0.193 C 
BRANCH   5   6
HETATM    6  O   UNL     1     -21.433  -8.001  -0.323  1.00  0.00    -0.394 OA
HETATM    7  C   UNL     1     -22.770  -7.905   0.141  1.00  0.00     0.201 C 
ENDBRANCH   5   6
ENDBRANCH   4   5
ENDBRANCH   3   4
ENDBRANCH   2   3
ENDBRANCH   1   2
BRANCH   1   8
HETATM    8  C   UNL     1     -21.247  -5.187  -6.410  1.00  0.00     0.201 C 
BRANCH   8   9
HETATM    9  O   UNL     1     -22.227  -4.718  -7.349  1.00  0.00    -0.386 OA
BRANCH   9  10
HETATM   10  C   UNL     1     -21.683  -4.407  -8.629  1.00  0.00     0.193 C 
BRANCH  10  11
HETATM   11  C   UNL     1     -22.741  -4.625  -9.704  1.00  0.00     0.193 C 
BRANCH  11  12
HETATM   12  O   UNL     1     -23.662  -3.534  -9.672  1.00  0.00    -0.394 OA
HETATM   13  C   UNL     1     -24.280  -3.333 -10.935  1.00  0.00     0.201 C 
ENDBRANCH  11  12
ENDBRANCH  10  11
ENDBRANCH   9  10
ENDBRANCH   8   9
ENDBRANCH   1   8
BRANCH   1  14
HETATM   14  O   UNL     1     -21.190  -7.575  -5.968  1.00  0.00    -0.380 OA
BRANCH  14  15
HETATM   15  C   UNL     1     -20.121  -8.041  -5.146  1.00  0.00     0.194 C 
BRANCH  15  16
HETATM   16  C   UNL     1     -20.292  -9.519  -4.822  1.00  0.00     0.193 C 
BRANCH  16  17
HETATM   17  O   UNL     1     -20.277 -10.242  -6.051  1.00  0.00    -0.394 OA
HETATM   18  C   UNL     1     -21.247 -11.278  -6.072  1.00  0.00     0.201 C 
ENDBRANCH  16  17
ENDBRANCH  15  16
ENDBRANCH  14  15
ENDBRANCH   1  14
TORSDOF 14
ENDMDL
MODEL 8
REMARK VINA RESULT:      -4.2     14.470     17.584
REMARK  14 active torsions:
REMARK  status: ('A' for Active; 'I' for Inactive)
REMARK    1  A    between atoms: O_2  and  C_3 
REMARK    2  A    between atoms: C_3  and  C_4 
REMARK    3  A    between atoms: C_4  and  O_5 
REMARK    4  A    between atoms: O_5  and  C_6 
REMARK    5  A    between atoms: C_6  and  C_7 
REMARK    6  A    between atoms: C_7  and  C_8 
REMARK    7  A    between atoms: C_7  and  O_14 
REMARK    8  A    between atoms: C_8  and  O_9 
REMARK    9  A    between atoms: O_9  and  C_10 
REMARK   10  A    between atoms: C_10  and  C_11 
REMARK   11  A    between atoms: C_11  and  O_12 
REMARK   12  A    between atoms: O_14  and  C_15 
REMARK   13  A    between atoms: C_15  and  C_16 
REMARK   14  A    between atoms: C_16  and  O_17 
ROOT
HETATM    1  C   UNL     1     -20.655  -7.034  -5.552  1.00  0.00     0.169 C 
ENDROOT
BRANCH   1   2
HETATM    2  C   UNL     1     -21.090  -5.876  -4.641  1.00  0.00     0.201 C 
BRANCH   2   3
HETATM    3  O   UNL     1     -22.110  -6.293  -3.737  1.00  0.00    -0.386 OA
BRANCH   3   4
HETATM    4  C   UNL     1     -21.736  -6.004  -2.390  1.00  0.00     0.193 C 
BRANCH   4   5
HETATM    5  C   UNL     1     -21.891  -7.260  -1.546  1.00  0.00     0.193 C 
BRANCH   5   6
HETATM    6  O   UNL     1     -22.866  -7.020  -0.532  1.00  0.00    -0.394 OA
HETATM    7  C   UNL     1     -22.986  -8.132   0.340  1.00  0.00     0.201 C 
ENDBRANCH   5   6
ENDBRANCH   4   5
ENDBRANCH   3   4
ENDBRANCH   2   3
ENDBRANCH   1   2
BRANCH   1   8
HETATM    8  C   UNL     1     -21.435  -8.320  -5.194  1.00  0.00     0.201 C 
BRANCH   8   9
HETATM    9  O   UNL     1     -20.908  -9.507  -5.807  1.00  0.00    -0.386 OA
BRANCH   9  10
HETATM   10  C   UNL     1     -20.032 -10.243  -4.958  1.00  0.00     0.193 C 
BRANCH  10  11
HETATM   11  C   UNL     1     -18.592 -10.060  -5.421  1.00  0.00     0.193 C 
BRANCH  11  12
HETATM   12  O   UNL     1     -18.476 -10.533  -6.763  1.00  0.00    -0.394 OA
HETATM   13  C   UNL     1     -18.437 -11.952  -6.817  1.00  0.00     0.201 C 
ENDBRANCH  11  12
ENDBRANCH  10  11
ENDBRANCH   9  10
ENDBRANCH   8   9
ENDBRANCH   1   8
BRANCH   1  14
HETATM   14  O   UNL     1     -20.895  -6.716  -6.936  1.00  0.00    -0.380 OA
BRANCH  14  15
HETATM   15  C   UNL     1     -20.092  -5.631  -7.400  1.00  0.00     0.194 C 
BRANCH  15  16
HETATM   16  C   UNL     1     -20.825  -4.836  -8.471  1.00  0.00     0.193 C 
BRANCH  16  17
HETATM   17  O   UNL     1     -21.870  -4.102  -7.836  1.00  0.00    -0.394 OA
HETATM   18  C   UNL     1     -23.053  -4.073  -8.619  1.00  0.00     0.201 C 
ENDBRANCH  16  17
ENDBRANCH  15  16
ENDBRANCH  14  15
ENDBRANCH   1  14
TORSDOF 14
ENDMDL
MODEL 9
REMARK VINA RESULT:      -4.1     14.760     18.500
REMARK  14 active torsions:
REMARK  status: ('A' for Active; 'I' for Inactive)
REMARK    1  A    between atoms: O_2  and  C_3 
REMARK    2  A    between atoms: C_3  and  C_4 
REMARK    3  A    between atoms: C_4  and  O_5 
REMARK    4  A    between atoms: O_5  and  C_6 
REMARK    5  A    between atoms: C_6  and  C_7 
REMARK    6  A    between atoms: C_7  and  C_8 
REMARK    7  A    between atoms: C_7  and  O_14 
REMARK    8  A    between atoms: C_8  and  O_9 
REMARK    9  A    between atoms: O_9  and  C_10 
REMARK   10  A    between atoms: C_10  and  C_11 
REMARK   11  A    between atoms: C_11  and  O_12 
REMARK   12  A    between atoms: O_14  and  C_15 
REMARK   13  A    between atoms: C_15  and  C_16 
REMARK   14  A    between atoms: C_16  and  O_17 
ROOT
HETATM    1  C   UNL     1     -21.729  -6.677  -5.314  1.00  0.00     0.169 C 
ENDROOT
BRANCH   1   2
HETATM    2  C   UNL     1     -21.374  -8.171  -5.288  1.00  0.00     0.201 C 
BRANCH   2   3
HETATM    3  O   UNL     1     -19.998  -8.374  -5.600  1.00  0.00    -0.386 OA
BRANCH   3   4
HETATM    4  C   UNL     1     -19.408  -9.301  -4.687  1.00  0.00     0.193 C 
BRANCH   4   5
HETATM    5  C   UNL     1     -19.031 -10.570  -5.437  1.00  0.00     0.193 C 
BRANCH   5   6
HETATM    6  O   UNL     1     -18.084 -10.244  -6.452  1.00  0.00    -0.394 OA
HETATM    7  C   UNL     1     -16.805  -9.982  -5.898  1.00  0.00     0.201 C 
ENDBRANCH   5   6
ENDBRANCH   4   5
ENDBRANCH   3   4
ENDBRANCH   2   3
ENDBRANCH   1   2
BRANCH   1   8
HETATM    8  C   UNL     1     -21.155  -5.967  -4.067  1.00  0.00     0.201 C 
BRANCH   8   9
HETATM    9  O   UNL     1     -21.283  -6.729  -2.856  1.00  0.00    -0.386 OA
BRANCH   9  10
HETATM   10  C   UNL     1     -22.192  -6.157  -1.920  1.00  0.00     0.193 C 
BRANCH  10  11
HETATM   11  C   UNL     1     -22.383  -7.106  -0.743  1.00  0.00     0.193 C 
BRANCH  11  12
HETATM   12  O   UNL     1     -21.203  -7.895  -0.590  1.00  0.00    -0.394 OA
HETATM   13  C   UNL     1     -21.261  -8.704   0.576  1.00  0.00     0.201 C 
ENDBRANCH  11  12
ENDBRANCH  10  11
ENDBRANCH   9  10
ENDBRANCH   8   9
ENDBRANCH   1   8
BRANCH   1  14
HETATM   14  O   UNL     1     -21.198  -6.045  -6.494  1.00  0.00    -0.380 OA
BRANCH  14  15
HETATM   15  C   UNL     1     -20.657  -4.751  -6.232  1.00  0.00     0.194 C 
BRANCH  15  16
HETATM   16  C   UNL     1     -21.265  -3.712  -7.164  1.00  0.00     0.193 C 
BRANCH  16  17
HETATM   17  O   UNL     1     -22.584  -4.139  -7.497  1.00  0.00    -0.394 OA
HETATM   18  C   UNL     1     -22.887  -3.913  -8.865  1.00  0.00     0.201 C 
ENDBRANCH  16  17
ENDBRANCH  15  16
ENDBRANCH  14  15
ENDBRANCH   1  14
TORSDOF 14
ENDMDL
