MODEL 1
REMARK VINA RESULT:      -1.3      0.000      0.000
REMARK  1 active torsions:
REMARK  status: ('A' for Active; 'I' for Inactive)
REMARK    1  A    between atoms: C_1  and  O_3 
ROOT
HETATM    1  H   UNL     1     -24.706  -1.214 -14.738  1.00  0.00     0.271 HD
HETATM    2  H   UNL     1     -24.944  -0.186 -15.951  1.00  0.00     0.271 HD
HETATM    3  H   UNL     1     -23.460  -0.379 -15.315  1.00  0.00     0.271 HD
HETATM    4  H   UNL     1     -24.632   0.498 -14.396  1.00  0.00     0.271 HD
HETATM    5  N   UNL     2     -24.467  -0.252 -15.052  1.00  0.00    -0.084 N 
ENDROOT
TORSDOF 1
ENDMDL
MODEL 2
REMARK VINA RESULT:      -1.2     13.500     13.500
REMARK  1 active torsions:
REMARK  status: ('A' for Active; 'I' for Inactive)
REMARK    1  A    between atoms: C_1  and  O_3 
ROOT
HETATM    1  H   UNL     1     -33.662  -8.228 -10.783  1.00  0.00     0.271 HD
HETATM    2  H   UNL     1     -32.536  -9.348 -10.534  1.00  0.00     0.271 HD
HETATM    3  H   UNL     1     -34.100  -9.771 -10.679  1.00  0.00     0.271 HD
HETATM    4  H   UNL     1     -33.598  -8.999  -9.216  1.00  0.00     0.271 HD
HETATM    5  N   UNL     2     -33.466  -9.076 -10.215  1.00  0.00    -0.084 N 
ENDROOT
TORSDOF 1
ENDMDL
MODEL 3
REMARK VINA RESULT:      -1.1      7.757      7.757
REMARK  1 active torsions:
REMARK  status: ('A' for Active; 'I' for Inactive)
REMARK    1  A    between atoms: C_1  and  O_3 
ROOT
HETATM    1  H   UNL     1     -25.212  -7.545 -16.987  1.00  0.00     0.271 HD
HETATM    2  H   UNL     1     -24.092  -8.100 -17.998  1.00  0.00     0.271 HD
HETATM    3  H   UNL     1     -24.128  -8.604 -16.453  1.00  0.00     0.271 HD
HETATM    4  H   UNL     1     -23.565  -7.001 -16.774  1.00  0.00     0.271 HD
HETATM    5  N   UNL     2     -24.193  -7.743 -17.048  1.00  0.00    -0.084 N 
ENDROOT
TORSDOF 1
ENDMDL
MODEL 4
REMARK VINA RESULT:      -1.1      9.677      9.677
REMARK  1 active torsions:
REMARK  status: ('A' for Active; 'I' for Inactive)
REMARK    1  A    between atoms: C_1  and  O_3 
ROOT
HETATM    1  H   UNL     1     -32.361  -3.347 -17.575  1.00  0.00     0.271 HD
HETATM    2  H   UNL     1     -33.435  -2.199 -17.913  1.00  0.00     0.271 HD
HETATM    3  H   UNL     1     -33.460  -2.951 -16.471  1.00  0.00     0.271 HD
HETATM    4  H   UNL     1     -34.019  -3.823 -17.855  1.00  0.00     0.271 HD
HETATM    5  N   UNL     2     -33.376  -3.130 -17.501  1.00  0.00    -0.084 N 
ENDROOT
TORSDOF 1
ENDMDL
MODEL 5
REMARK VINA RESULT:      -1.1      6.391      6.391
REMARK  1 active torsions:
REMARK  status: ('A' for Active; 'I' for Inactive)
REMARK    1  A    between atoms: C_1  and  O_3 
ROOT
HETATM    1  H   UNL     1     -24.480  -3.352  -9.749  1.00  0.00     0.271 HD
HETATM    2  H   UNL     1     -25.840  -3.277 -10.603  1.00  0.00     0.271 HD
HETATM    3  H   UNL     1     -25.823  -2.826  -9.041  1.00  0.00     0.271 HD
HETATM    4  H   UNL     1     -25.739  -4.514  -9.402  1.00  0.00     0.271 HD
HETATM    5  N   UNL     2     -25.494  -3.579  -9.692  1.00  0.00    -0.084 N 
ENDROOT
TORSDOF 1
ENDMDL
MODEL 6
REMARK VINA RESULT:      -1.0     13.694     13.694
REMARK  1 active torsions:
REMARK  status: ('A' for Active; 'I' for Inactive)
REMARK    1  A    between atoms: C_1  and  O_3 
ROOT
HETATM    1  H   UNL     1     -35.788  -7.398 -13.426  1.00  0.00     0.271 HD
HETATM    2  H   UNL     1     -36.839  -8.055 -14.450  1.00  0.00     0.271 HD
HETATM    3  H   UNL     1     -35.406  -8.770 -14.170  1.00  0.00     0.271 HD
HETATM    4  H   UNL     1     -35.425  -7.337 -15.135  1.00  0.00     0.271 HD
HETATM    5  N   UNL     2     -35.846  -7.839 -14.366  1.00  0.00    -0.084 N 
ENDROOT
TORSDOF 1
ENDMDL
MODEL 7
REMARK VINA RESULT:      -1.0     14.328     14.328
REMARK  1 active torsions:
REMARK  status: ('A' for Active; 'I' for Inactive)
REMARK    1  A    between atoms: C_1  and  O_3 
ROOT
HETATM    1  H   UNL     1     -12.378   5.919 -13.758  1.00  0.00     0.271 HD
HETATM    2  H   UNL     1     -10.774   5.822 -13.807  1.00  0.00     0.271 HD
HETATM    3  H   UNL     1     -11.650   4.625 -13.142  1.00  0.00     0.271 HD
HETATM    4  H   UNL     1     -11.493   6.104 -12.262  1.00  0.00     0.271 HD
HETATM    5  N   UNL     2     -11.556   5.669 -13.171  1.00  0.00    -0.084 N 
ENDROOT
TORSDOF 1
ENDMDL
MODEL 8
REMARK VINA RESULT:      -1.0     17.888     17.888
REMARK  1 active torsions:
REMARK  status: ('A' for Active; 'I' for Inactive)
REMARK    1  A    between atoms: C_1  and  O_3 
ROOT
HETATM    1  H   UNL     1     -33.890  -6.158  -1.764  1.00  0.00     0.271 HD
HETATM    2  H   UNL     1     -33.934  -4.621  -1.296  1.00  0.00     0.271 HD
HETATM    3  H   UNL     1     -34.065  -5.818  -0.204  1.00  0.00     0.271 HD
HETATM    4  H   UNL     1     -35.419  -5.501  -1.231  1.00  0.00     0.271 HD
HETATM    5  N   UNL     2     -34.413  -5.508  -1.143  1.00  0.00    -0.084 N 
ENDROOT
TORSDOF 1
ENDMDL
MODEL 9
REMARK VINA RESULT:      -1.0      4.072      4.072
REMARK  1 active torsions:
REMARK  status: ('A' for Active; 'I' for Inactive)
REMARK    1  A    between atoms: C_1  and  O_3 
ROOT
HETATM    1  H   UNL     1     -22.376  -2.317 -13.176  1.00  0.00     0.271 HD
HETATM    2  H   UNL     1     -23.214  -3.565 -13.744  1.00  0.00     0.271 HD
HETATM    3  H   UNL     1     -22.104  -3.783 -12.576  1.00  0.00     0.271 HD
HETATM    4  H   UNL     1     -21.545  -3.479 -14.183  1.00  0.00     0.271 HD
HETATM    5  N   UNL     2     -22.262  -3.300 -13.494  1.00  0.00    -0.084 N 
ENDROOT
TORSDOF 1
ENDMDL
