MODEL 1
REMARK VINA RESULT:      -6.5      0.000      0.000
REMARK  20 active torsions:
REMARK  status: ('A' for Active; 'I' for Inactive)
REMARK    1  A    between atoms: C_2  and  C_3 
REMARK    2  A    between atoms: C_3  and  C_4 
REMARK    3  A    between atoms: C_4  and  C_5 
REMARK    4  A    between atoms: C_5  and  C_6 
REMARK    5  A    between atoms: C_6  and  C_7 
REMARK    6  A    between atoms: C_7  and  C_8 
REMARK    7  A    between atoms: C_8  and  C_9 
REMARK    8  A    between atoms: C_9  and  C_10 
REMARK    9  A    between atoms: C_10  and  C_11 
REMARK   10  A    between atoms: C_11  and  C_12 
REMARK   11  A    between atoms: C_12  and  C_13 
REMARK   12  A    between atoms: C_13  and  C_14 
REMARK   13  A    between atoms: C_14  and  C_15 
REMARK   14  A    between atoms: C_15  and  C_16 
REMARK   15  A    between atoms: C_16  and  C_17 
REMARK   16  A    between atoms: C_17  and  C_18 
REMARK   17  A    between atoms: C_18  and  O_20 
REMARK   18  A    between atoms: O_20  and  C_21 
REMARK   19  A    between atoms: C_21  and  C_22 
REMARK   20  A    between atoms: C_22  and  C_23 
ROOT
HETATM    1  C   UNL     1     -21.204  -6.720  -2.697  1.00  0.00     0.000 C 
ENDROOT
BRANCH   1   2
HETATM    2  C   UNL     1     -22.281  -6.285  -1.717  1.00  0.00     0.000 C 
BRANCH   2   3
HETATM    3  C   UNL     1     -22.429  -7.318  -0.612  1.00  0.00     0.000 C 
BRANCH   3   4
HETATM    4  C   UNL     1     -21.189  -8.193  -0.551  1.00  0.00     0.000 C 
BRANCH   4   5
HETATM    5  C   UNL     1     -21.577  -9.621  -0.212  1.00  0.00     0.000 C 
BRANCH   5   6
HETATM    6  C   UNL     1     -22.850 -10.003  -0.947  1.00  0.00     0.000 C 
BRANCH   6   7
HETATM    7  C   UNL     1     -23.729 -10.859  -0.053  1.00  0.00     0.000 C 
BRANCH   7   8
HETATM    8  C   UNL     1     -23.290 -12.311  -0.125  1.00  0.00     0.000 C 
BRANCH   8   9
HETATM    9  C   UNL     1     -23.513 -12.992   1.217  1.00  0.00     0.000 C 
BRANCH   9  10
HETATM   10  C   UNL     1     -22.282 -13.793   1.610  1.00  0.00    -0.000 C 
BRANCH  10  11
HETATM   11  C   UNL     1     -22.498 -14.488   2.948  1.00  0.00    -0.005 C 
HETATM   12  C   UNL     1     -23.968 -14.798   3.156  1.00  0.00     0.005 C 
ENDBRANCH  10  11
ENDBRANCH   9  10
ENDBRANCH   8   9
ENDBRANCH   7   8
ENDBRANCH   6   7
ENDBRANCH   5   6
ENDBRANCH   4   5
ENDBRANCH   3   4
ENDBRANCH   2   3
ENDBRANCH   1   2
BRANCH   1  13
HETATM   13  C   UNL     1     -21.544  -6.232  -4.097  1.00  0.00     0.000 C 
BRANCH  13  14
HETATM   14  C   UNL     1     -20.900  -7.129  -5.144  1.00  0.00     0.000 C 
BRANCH  14  15
HETATM   15  C   UNL     1     -20.185  -6.296  -6.203  1.00  0.00     0.000 C 
BRANCH  15  16
HETATM   16  C   UNL     1     -20.433  -4.813  -5.960  1.00  0.00     0.010 C 
BRANCH  16  17
HETATM   17  C   UNL     1     -20.880  -4.081  -7.222  1.00  0.00     0.111 C 
BRANCH  17  18
HETATM   18  C   UNL     1     -22.312  -4.449  -7.555  1.00  0.00     0.258 C 
HETATM   19  O   UNL     1     -23.219  -4.542  -6.752  1.00  0.00    -0.265 OA
BRANCH  18  20
HETATM   20  O   UNL     1     -22.416  -4.730  -8.887  1.00  0.00    -0.321 OA
BRANCH  20  21
HETATM   21  C   UNL     1     -23.757  -4.615  -9.384  1.00  0.00     0.178 C 
BRANCH  21  22
HETATM   22  C   UNL     1     -23.770  -4.136 -10.830  1.00  0.00     0.026 C 
BRANCH  22  23
HETATM   23  C   UNL     1     -22.364  -4.146 -11.431  1.00  0.00    -0.002 C 
HETATM   24  C   UNL     1     -21.881  -2.737 -11.736  1.00  0.00     0.005 C 
ENDBRANCH  22  23
ENDBRANCH  21  22
ENDBRANCH  20  21
ENDBRANCH  18  20
ENDBRANCH  17  18
ENDBRANCH  16  17
ENDBRANCH  15  16
ENDBRANCH  14  15
ENDBRANCH  13  14
ENDBRANCH   1  13
TORSDOF 20
ENDMDL
MODEL 2
REMARK VINA RESULT:      -6.4      2.110      3.282
REMARK  20 active torsions:
REMARK  status: ('A' for Active; 'I' for Inactive)
REMARK    1  A    between atoms: C_2  and  C_3 
REMARK    2  A    between atoms: C_3  and  C_4 
REMARK    3  A    between atoms: C_4  and  C_5 
REMARK    4  A    between atoms: C_5  and  C_6 
REMARK    5  A    between atoms: C_6  and  C_7 
REMARK    6  A    between atoms: C_7  and  C_8 
REMARK    7  A    between atoms: C_8  and  C_9 
REMARK    8  A    between atoms: C_9  and  C_10 
REMARK    9  A    between atoms: C_10  and  C_11 
REMARK   10  A    between atoms: C_11  and  C_12 
REMARK   11  A    between atoms: C_12  and  C_13 
REMARK   12  A    between atoms: C_13  and  C_14 
REMARK   13  A    between atoms: C_14  and  C_15 
REMARK   14  A    between atoms: C_15  and  C_16 
REMARK   15  A    between atoms: C_16  and  C_17 
REMARK   16  A    between atoms: C_17  and  C_18 
REMARK   17  A    between atoms: C_18  and  O_20 
REMARK   18  A    between atoms: O_20  and  C_21 
REMARK   19  A    between atoms: C_21  and  C_22 
REMARK   20  A    between atoms: C_22  and  C_23 
ROOT
HETATM    1  C   UNL     1     -20.471  -7.117  -5.654  1.00  0.00     0.000 C 
ENDROOT
BRANCH   1   2
HETATM    2  C   UNL     1     -21.287  -7.654  -4.489  1.00  0.00     0.000 C 
BRANCH   2   3
HETATM    3  C   UNL     1     -21.287  -6.653  -3.346  1.00  0.00     0.000 C 
BRANCH   3   4
HETATM    4  C   UNL     1     -21.250  -7.385  -2.016  1.00  0.00     0.000 C 
BRANCH   4   5
HETATM    5  C   UNL     1     -22.340  -6.857  -1.102  1.00  0.00     0.000 C 
BRANCH   5   6
HETATM    6  C   UNL     1     -22.520  -7.789   0.084  1.00  0.00     0.000 C 
BRANCH   6   7
HETATM    7  C   UNL     1     -21.457  -8.874   0.059  1.00  0.00     0.000 C 
BRANCH   7   8
HETATM    8  C   UNL     1     -22.092 -10.232   0.303  1.00  0.00     0.000 C 
BRANCH   8   9
HETATM    9  C   UNL     1     -23.414 -10.332  -0.443  1.00  0.00     0.000 C 
BRANCH   9  10
HETATM   10  C   UNL     1     -23.339 -11.418  -1.505  1.00  0.00    -0.000 C 
BRANCH  10  11
HETATM   11  C   UNL     1     -22.934 -10.828  -2.849  1.00  0.00    -0.005 C 
HETATM   12  C   UNL     1     -21.466 -11.091  -3.126  1.00  0.00     0.005 C 
ENDBRANCH  10  11
ENDBRANCH   9  10
ENDBRANCH   8   9
ENDBRANCH   7   8
ENDBRANCH   6   7
ENDBRANCH   5   6
ENDBRANCH   4   5
ENDBRANCH   3   4
ENDBRANCH   2   3
ENDBRANCH   1   2
BRANCH   1  13
HETATM   13  C   UNL     1     -21.202  -5.956  -6.313  1.00  0.00     0.000 C 
BRANCH  13  14
HETATM   14  C   UNL     1     -20.373  -4.684  -6.217  1.00  0.00     0.000 C 
BRANCH  14  15
HETATM   15  C   UNL     1     -20.088  -4.119  -7.606  1.00  0.00     0.000 C 
BRANCH  15  16
HETATM   16  C   UNL     1     -20.671  -5.035  -8.675  1.00  0.00     0.010 C 
BRANCH  16  17
HETATM   17  C   UNL     1     -21.521  -4.278  -9.691  1.00  0.00     0.111 C 
BRANCH  17  18
HETATM   18  C   UNL     1     -22.991  -4.431  -9.356  1.00  0.00     0.258 C 
HETATM   19  O   UNL     1     -23.537  -3.977  -8.371  1.00  0.00    -0.265 OA
BRANCH  18  20
HETATM   20  O   UNL     1     -23.595  -5.217 -10.294  1.00  0.00    -0.321 OA
BRANCH  20  21
HETATM   21  C   UNL     1     -23.354  -4.776 -11.639  1.00  0.00     0.178 C 
BRANCH  21  22
HETATM   22  C   UNL     1     -24.099  -3.480 -11.935  1.00  0.00     0.026 C 
BRANCH  22  23
HETATM   23  C   UNL     1     -23.171  -2.436 -12.555  1.00  0.00    -0.002 C 
HETATM   24  C   UNL     1     -23.441  -2.265 -14.042  1.00  0.00     0.005 C 
ENDBRANCH  22  23
ENDBRANCH  21  22
ENDBRANCH  20  21
ENDBRANCH  18  20
ENDBRANCH  17  18
ENDBRANCH  16  17
ENDBRANCH  15  16
ENDBRANCH  14  15
ENDBRANCH  13  14
ENDBRANCH   1  13
TORSDOF 20
ENDMDL
MODEL 3
REMARK VINA RESULT:      -6.3      3.364     11.282
REMARK  20 active torsions:
REMARK  status: ('A' for Active; 'I' for Inactive)
REMARK    1  A    between atoms: C_2  and  C_3 
REMARK    2  A    between atoms: C_3  and  C_4 
REMARK    3  A    between atoms: C_4  and  C_5 
REMARK    4  A    between atoms: C_5  and  C_6 
REMARK    5  A    between atoms: C_6  and  C_7 
REMARK    6  A    between atoms: C_7  and  C_8 
REMARK    7  A    between atoms: C_8  and  C_9 
REMARK    8  A    between atoms: C_9  and  C_10 
REMARK    9  A    between atoms: C_10  and  C_11 
REMARK   10  A    between atoms: C_11  and  C_12 
REMARK   11  A    between atoms: C_12  and  C_13 
REMARK   12  A    between atoms: C_13  and  C_14 
REMARK   13  A    between atoms: C_14  and  C_15 
REMARK   14  A    between atoms: C_15  and  C_16 
REMARK   15  A    between atoms: C_16  and  C_17 
REMARK   16  A    between atoms: C_17  and  C_18 
REMARK   17  A    between atoms: C_18  and  O_20 
REMARK   18  A    between atoms: O_20  and  C_21 
REMARK   19  A    between atoms: C_21  and  C_22 
REMARK   20  A    between atoms: C_22  and  C_23 
ROOT
HETATM    1  C   UNL     1     -21.647  -6.064  -4.578  1.00  0.00     0.000 C 
ENDROOT
BRANCH   1   2
HETATM    2  C   UNL     1     -20.465  -5.745  -5.479  1.00  0.00     0.000 C 
BRANCH   2   3
HETATM    3  C   UNL     1     -20.873  -4.737  -6.540  1.00  0.00     0.000 C 
BRANCH   3   4
HETATM    4  C   UNL     1     -20.576  -5.291  -7.923  1.00  0.00     0.000 C 
BRANCH   4   5
HETATM    5  C   UNL     1     -20.337  -4.154  -8.899  1.00  0.00     0.000 C 
BRANCH   5   6
HETATM    6  C   UNL     1     -20.238  -4.696 -10.315  1.00  0.00     0.000 C 
BRANCH   6   7
HETATM    7  C   UNL     1     -20.265  -3.551 -11.312  1.00  0.00     0.000 C 
BRANCH   7   8
HETATM    8  C   UNL     1     -21.653  -2.936 -11.365  1.00  0.00     0.000 C 
BRANCH   8   9
HETATM    9  C   UNL     1     -22.631  -3.913 -11.999  1.00  0.00     0.000 C 
BRANCH   9  10
HETATM   10  C   UNL     1     -23.986  -3.819 -11.314  1.00  0.00    -0.000 C 
BRANCH  10  11
HETATM   11  C   UNL     1     -24.050  -4.762 -10.119  1.00  0.00    -0.005 C 
HETATM   12  C   UNL     1     -23.916  -3.987  -8.822  1.00  0.00     0.005 C 
ENDBRANCH  10  11
ENDBRANCH   9  10
ENDBRANCH   8   9
ENDBRANCH   7   8
ENDBRANCH   6   7
ENDBRANCH   5   6
ENDBRANCH   4   5
ENDBRANCH   3   4
ENDBRANCH   2   3
ENDBRANCH   1   2
BRANCH   1  13
HETATM   13  C   UNL     1     -21.155  -6.565  -3.229  1.00  0.00     0.000 C 
BRANCH  13  14
HETATM   14  C   UNL     1     -22.133  -6.178  -2.130  1.00  0.00     0.000 C 
BRANCH  14  15
HETATM   15  C   UNL     1     -22.148  -7.231  -1.025  1.00  0.00     0.000 C 
BRANCH  15  16
HETATM   16  C   UNL     1     -20.811  -7.959  -0.976  1.00  0.00     0.010 C 
BRANCH  16  17
HETATM   17  C   UNL     1     -20.974  -9.476  -0.932  1.00  0.00     0.111 C 
BRANCH  17  18
HETATM   18  C   UNL     1     -20.743  -9.982   0.478  1.00  0.00     0.258 C 
HETATM   19  O   UNL     1     -20.921  -9.339   1.493  1.00  0.00    -0.265 OA
BRANCH  18  20
HETATM   20  O   UNL     1     -20.235 -11.248   0.432  1.00  0.00    -0.321 OA
BRANCH  20  21
HETATM   21  C   UNL     1     -21.130 -12.192  -0.176  1.00  0.00     0.178 C 
BRANCH  21  22
HETATM   22  C   UNL     1     -22.371 -12.406   0.682  1.00  0.00     0.026 C 
BRANCH  22  23
HETATM   23  C   UNL     1     -23.648 -12.277  -0.147  1.00  0.00    -0.002 C 
HETATM   24  C   UNL     1     -24.242 -10.881  -0.038  1.00  0.00     0.005 C 
ENDBRANCH  22  23
ENDBRANCH  21  22
ENDBRANCH  20  21
ENDBRANCH  18  20
ENDBRANCH  17  18
ENDBRANCH  16  17
ENDBRANCH  15  16
ENDBRANCH  14  15
ENDBRANCH  13  14
ENDBRANCH   1  13
TORSDOF 20
ENDMDL
MODEL 4
REMARK VINA RESULT:      -6.3      2.134      3.456
REMARK  20 active torsions:
REMARK  status: ('A' for Active; 'I' for Inactive)
REMARK    1  A    between atoms: C_2  and  C_3 
REMARK    2  A    between atoms: C_3  and  C_4 
REMARK    3  A    between atoms: C_4  and  C_5 
REMARK    4  A    between atoms: C_5  and  C_6 
REMARK    5  A    between atoms: C_6  and  C_7 
REMARK    6  A    between atoms: C_7  and  C_8 
REMARK    7  A    between atoms: C_8  and  C_9 
REMARK    8  A    between atoms: C_9  and  C_10 
REMARK    9  A    between atoms: C_10  and  C_11 
REMARK   10  A    between atoms: C_11  and  C_12 
REMARK   11  A    between atoms: C_12  and  C_13 
REMARK   12  A    between atoms: C_13  and  C_14 
REMARK   13  A    between atoms: C_14  and  C_15 
REMARK   14  A    between atoms: C_15  and  C_16 
REMARK   15  A    between atoms: C_16  and  C_17 
REMARK   16  A    between atoms: C_17  and  C_18 
REMARK   17  A    between atoms: C_18  and  O_20 
REMARK   18  A    between atoms: O_20  and  C_21 
REMARK   19  A    between atoms: C_21  and  C_22 
REMARK   20  A    between atoms: C_22  and  C_23 
ROOT
HETATM    1  C   UNL     1     -21.155  -5.947  -3.420  1.00  0.00     0.000 C 
ENDROOT
BRANCH   1   2
HETATM    2  C   UNL     1     -21.184  -7.038  -2.362  1.00  0.00     0.000 C 
BRANCH   2   3
HETATM    3  C   UNL     1     -22.326  -6.795  -1.391  1.00  0.00     0.000 C 
BRANCH   3   4
HETATM    4  C   UNL     1     -22.032  -7.474  -0.064  1.00  0.00     0.000 C 
BRANCH   4   5
HETATM    5  C   UNL     1     -23.235  -8.286   0.382  1.00  0.00     0.000 C 
BRANCH   5   6
HETATM    6  C   UNL     1     -23.084  -9.729  -0.067  1.00  0.00     0.000 C 
BRANCH   6   7
HETATM    7  C   UNL     1     -21.707 -10.249   0.305  1.00  0.00     0.000 C 
BRANCH   7   8
HETATM    8  C   UNL     1     -21.305 -11.377  -0.629  1.00  0.00     0.000 C 
BRANCH   8   9
HETATM    9  C   UNL     1     -20.822 -10.809  -1.955  1.00  0.00     0.000 C 
BRANCH   9  10
HETATM   10  C   UNL     1     -21.720 -11.283  -3.088  1.00  0.00    -0.000 C 
BRANCH  10  11
HETATM   11  C   UNL     1     -22.017 -10.142  -4.052  1.00  0.00    -0.005 C 
HETATM   12  C   UNL     1     -20.812  -9.861  -4.930  1.00  0.00     0.005 C 
ENDBRANCH  10  11
ENDBRANCH   9  10
ENDBRANCH   8   9
ENDBRANCH   7   8
ENDBRANCH   6   7
ENDBRANCH   5   6
ENDBRANCH   4   5
ENDBRANCH   3   4
ENDBRANCH   2   3
ENDBRANCH   1   2
BRANCH   1  13
HETATM   13  C   UNL     1     -21.986  -6.365  -4.624  1.00  0.00     0.000 C 
BRANCH  13  14
HETATM   14  C   UNL     1     -21.203  -6.150  -5.910  1.00  0.00     0.000 C 
BRANCH  14  15
HETATM   15  C   UNL     1     -20.665  -4.724  -5.984  1.00  0.00     0.000 C 
BRANCH  15  16
HETATM   16  C   UNL     1     -21.166  -4.039  -7.248  1.00  0.00     0.010 C 
BRANCH  16  17
HETATM   17  C   UNL     1     -22.582  -4.468  -7.622  1.00  0.00     0.111 C 
BRANCH  17  18
HETATM   18  C   UNL     1     -23.008  -3.788  -8.907  1.00  0.00     0.258 C 
HETATM   19  O   UNL     1     -24.142  -3.449  -9.181  1.00  0.00    -0.265 OA
BRANCH  18  20
HETATM   20  O   UNL     1     -21.935  -3.678  -9.744  1.00  0.00    -0.321 OA
BRANCH  20  21
HETATM   21  C   UNL     1     -22.131  -4.342 -11.002  1.00  0.00     0.178 C 
BRANCH  21  22
HETATM   22  C   UNL     1     -21.816  -3.416 -12.170  1.00  0.00     0.026 C 
BRANCH  22  23
HETATM   23  C   UNL     1     -23.084  -2.761 -12.717  1.00  0.00    -0.002 C 
HETATM   24  C   UNL     1     -23.093  -2.751 -14.237  1.00  0.00     0.005 C 
ENDBRANCH  22  23
ENDBRANCH  21  22
ENDBRANCH  20  21
ENDBRANCH  18  20
ENDBRANCH  17  18
ENDBRANCH  16  17
ENDBRANCH  15  16
ENDBRANCH  14  15
ENDBRANCH  13  14
ENDBRANCH   1  13
TORSDOF 20
ENDMDL
MODEL 5
REMARK VINA RESULT:      -6.2      3.463     10.502
REMARK  20 active torsions:
REMARK  status: ('A' for Active; 'I' for Inactive)
REMARK    1  A    between atoms: C_2  and  C_3 
REMARK    2  A    between atoms: C_3  and  C_4 
REMARK    3  A    between atoms: C_4  and  C_5 
REMARK    4  A    between atoms: C_5  and  C_6 
REMARK    5  A    between atoms: C_6  and  C_7 
REMARK    6  A    between atoms: C_7  and  C_8 
REMARK    7  A    between atoms: C_8  and  C_9 
REMARK    8  A    between atoms: C_9  and  C_10 
REMARK    9  A    between atoms: C_10  and  C_11 
REMARK   10  A    between atoms: C_11  and  C_12 
REMARK   11  A    between atoms: C_12  and  C_13 
REMARK   12  A    between atoms: C_13  and  C_14 
REMARK   13  A    between atoms: C_14  and  C_15 
REMARK   14  A    between atoms: C_15  and  C_16 
REMARK   15  A    between atoms: C_16  and  C_17 
REMARK   16  A    between atoms: C_17  and  C_18 
REMARK   17  A    between atoms: C_18  and  O_20 
REMARK   18  A    between atoms: O_20  and  C_21 
REMARK   19  A    between atoms: C_21  and  C_22 
REMARK   20  A    between atoms: C_22  and  C_23 
ROOT
HETATM    1  C   UNL     1     -21.913  -6.721  -3.586  1.00  0.00     0.000 C 
ENDROOT
BRANCH   1   2
HETATM    2  C   UNL     1     -21.048  -5.782  -4.412  1.00  0.00     0.000 C 
BRANCH   2   3
HETATM    3  C   UNL     1     -21.242  -6.061  -5.893  1.00  0.00     0.000 C 
BRANCH   3   4
HETATM    4  C   UNL     1     -20.001  -5.645  -6.664  1.00  0.00     0.000 C 
BRANCH   4   5
HETATM    5  C   UNL     1     -20.399  -4.896  -7.923  1.00  0.00     0.000 C 
BRANCH   5   6
HETATM    6  C   UNL     1     -21.749  -4.229  -7.727  1.00  0.00     0.000 C 
BRANCH   6   7
HETATM    7  C   UNL     1     -22.724  -4.708  -8.788  1.00  0.00     0.000 C 
BRANCH   7   8
HETATM    8  C   UNL     1     -23.777  -3.644  -9.048  1.00  0.00     0.000 C 
BRANCH   8   9
HETATM    9  C   UNL     1     -23.936  -3.423 -10.544  1.00  0.00     0.000 C 
BRANCH   9  10
HETATM   10  C   UNL     1     -22.931  -4.268 -11.311  1.00  0.00    -0.000 C 
BRANCH  10  11
HETATM   11  C   UNL     1     -21.942  -3.382 -12.057  1.00  0.00    -0.005 C 
HETATM   12  C   UNL     1     -20.609  -3.347 -11.334  1.00  0.00     0.005 C 
ENDBRANCH  10  11
ENDBRANCH   9  10
ENDBRANCH   8   9
ENDBRANCH   7   8
ENDBRANCH   6   7
ENDBRANCH   5   6
ENDBRANCH   4   5
ENDBRANCH   3   4
ENDBRANCH   2   3
ENDBRANCH   1   2
BRANCH   1  13
HETATM   13  C   UNL     1     -22.007  -6.219  -2.153  1.00  0.00     0.000 C 
BRANCH  13  14
HETATM   14  C   UNL     1     -21.706  -7.345  -1.175  1.00  0.00     0.000 C 
BRANCH  14  15
HETATM   15  C   UNL     1     -22.760  -7.401  -0.073  1.00  0.00     0.000 C 
BRANCH  15  16
HETATM   16  C   UNL     1     -23.018  -8.845   0.334  1.00  0.00     0.010 C 
BRANCH  16  17
HETATM   17  C   UNL     1     -22.713  -9.831  -0.790  1.00  0.00     0.111 C 
BRANCH  17  18
HETATM   18  C   UNL     1     -21.670 -10.832  -0.333  1.00  0.00     0.258 C 
HETATM   19  O   UNL     1     -21.245 -10.936   0.800  1.00  0.00    -0.265 OA
BRANCH  18  20
HETATM   20  O   UNL     1     -21.228 -11.553  -1.404  1.00  0.00    -0.321 OA
BRANCH  20  21
HETATM   21  C   UNL     1     -20.756 -10.730  -2.482  1.00  0.00     0.178 C 
BRANCH  21  22
HETATM   22  C   UNL     1     -19.307 -10.314  -2.264  1.00  0.00     0.026 C 
BRANCH  22  23
HETATM   23  C   UNL     1     -18.978  -9.029  -3.025  1.00  0.00    -0.002 C 
HETATM   24  C   UNL     1     -19.248  -9.181  -4.513  1.00  0.00     0.005 C 
ENDBRANCH  22  23
ENDBRANCH  21  22
ENDBRANCH  20  21
ENDBRANCH  18  20
ENDBRANCH  17  18
ENDBRANCH  16  17
ENDBRANCH  15  16
ENDBRANCH  14  15
ENDBRANCH  13  14
ENDBRANCH   1  13
TORSDOF 20
ENDMDL
MODEL 6
REMARK VINA RESULT:      -6.0      3.348     10.332
REMARK  20 active torsions:
REMARK  status: ('A' for Active; 'I' for Inactive)
REMARK    1  A    between atoms: C_2  and  C_3 
REMARK    2  A    between atoms: C_3  and  C_4 
REMARK    3  A    between atoms: C_4  and  C_5 
REMARK    4  A    between atoms: C_5  and  C_6 
REMARK    5  A    between atoms: C_6  and  C_7 
REMARK    6  A    between atoms: C_7  and  C_8 
REMARK    7  A    between atoms: C_8  and  C_9 
REMARK    8  A    between atoms: C_9  and  C_10 
REMARK    9  A    between atoms: C_10  and  C_11 
REMARK   10  A    between atoms: C_11  and  C_12 
REMARK   11  A    between atoms: C_12  and  C_13 
REMARK   12  A    between atoms: C_13  and  C_14 
REMARK   13  A    between atoms: C_14  and  C_15 
REMARK   14  A    between atoms: C_15  and  C_16 
REMARK   15  A    between atoms: C_16  and  C_17 
REMARK   16  A    between atoms: C_17  and  C_18 
REMARK   17  A    between atoms: C_18  and  O_20 
REMARK   18  A    between atoms: O_20  and  C_21 
REMARK   19  A    between atoms: C_21  and  C_22 
REMARK   20  A    between atoms: C_22  and  C_23 
ROOT
HETATM    1  C   UNL     1     -21.527  -6.264  -2.771  1.00  0.00     0.000 C 
ENDROOT
BRANCH   1   2
HETATM    2  C   UNL     1     -21.952  -6.795  -4.131  1.00  0.00     0.000 C 
BRANCH   2   3
HETATM    3  C   UNL     1     -21.443  -5.880  -5.231  1.00  0.00     0.000 C 
BRANCH   3   4
HETATM    4  C   UNL     1     -20.277  -6.535  -5.952  1.00  0.00     0.000 C 
BRANCH   4   5
HETATM    5  C   UNL     1     -20.047  -5.857  -7.290  1.00  0.00     0.000 C 
BRANCH   5   6
HETATM    6  C   UNL     1     -21.117  -4.807  -7.533  1.00  0.00     0.000 C 
BRANCH   6   7
HETATM    7  C   UNL     1     -20.556  -3.678  -8.380  1.00  0.00     0.000 C 
BRANCH   7   8
HETATM    8  C   UNL     1     -20.370  -4.144  -9.814  1.00  0.00     0.000 C 
BRANCH   8   9
HETATM    9  C   UNL     1     -21.723  -4.411 -10.455  1.00  0.00     0.000 C 
BRANCH   9  10
HETATM   10  C   UNL     1     -21.804  -3.734 -11.814  1.00  0.00    -0.000 C 
BRANCH  10  11
HETATM   11  C   UNL     1     -23.045  -2.856 -11.904  1.00  0.00    -0.005 C 
HETATM   12  C   UNL     1     -24.066  -3.269 -10.861  1.00  0.00     0.005 C 
ENDBRANCH  10  11
ENDBRANCH   9  10
ENDBRANCH   8   9
ENDBRANCH   7   8
ENDBRANCH   6   7
ENDBRANCH   5   6
ENDBRANCH   4   5
ENDBRANCH   3   4
ENDBRANCH   2   3
ENDBRANCH   1   2
BRANCH   1  13
HETATM   13  C   UNL     1     -21.493  -7.396  -1.755  1.00  0.00     0.000 C 
BRANCH  13  14
HETATM   14  C   UNL     1     -22.459  -7.115  -0.614  1.00  0.00     0.000 C 
BRANCH  14  15
HETATM   15  C   UNL     1     -22.405  -8.230   0.427  1.00  0.00     0.000 C 
BRANCH  15  16
HETATM   16  C   UNL     1     -22.906  -9.536  -0.177  1.00  0.00     0.010 C 
BRANCH  16  17
HETATM   17  C   UNL     1     -22.005 -10.719   0.163  1.00  0.00     0.111 C 
BRANCH  17  18
HETATM   18  C   UNL     1     -21.164 -11.094  -1.040  1.00  0.00     0.258 C 
HETATM   19  O   UNL     1     -19.976 -10.874  -1.164  1.00  0.00    -0.265 OA
BRANCH  18  20
HETATM   20  O   UNL     1     -21.960 -11.656  -1.997  1.00  0.00    -0.321 OA
BRANCH  20  21
HETATM   21  C   UNL     1     -21.339 -11.699  -3.291  1.00  0.00     0.178 C 
BRANCH  21  22
HETATM   22  C   UNL     1     -21.817 -10.551  -4.171  1.00  0.00     0.026 C 
BRANCH  22  23
HETATM   23  C   UNL     1     -20.729 -10.111  -5.150  1.00  0.00    -0.002 C 
HETATM   24  C   UNL     1     -19.446  -9.739  -4.425  1.00  0.00     0.005 C 
ENDBRANCH  22  23
ENDBRANCH  21  22
ENDBRANCH  20  21
ENDBRANCH  18  20
ENDBRANCH  17  18
ENDBRANCH  16  17
ENDBRANCH  15  16
ENDBRANCH  14  15
ENDBRANCH  13  14
ENDBRANCH   1  13
TORSDOF 20
ENDMDL
MODEL 7
REMARK VINA RESULT:      -6.0      2.489      4.685
REMARK  20 active torsions:
REMARK  status: ('A' for Active; 'I' for Inactive)
REMARK    1  A    between atoms: C_2  and  C_3 
REMARK    2  A    between atoms: C_3  and  C_4 
REMARK    3  A    between atoms: C_4  and  C_5 
REMARK    4  A    between atoms: C_5  and  C_6 
REMARK    5  A    between atoms: C_6  and  C_7 
REMARK    6  A    between atoms: C_7  and  C_8 
REMARK    7  A    between atoms: C_8  and  C_9 
REMARK    8  A    between atoms: C_9  and  C_10 
REMARK    9  A    between atoms: C_10  and  C_11 
REMARK   10  A    between atoms: C_11  and  C_12 
REMARK   11  A    between atoms: C_12  and  C_13 
REMARK   12  A    between atoms: C_13  and  C_14 
REMARK   13  A    between atoms: C_14  and  C_15 
REMARK   14  A    between atoms: C_15  and  C_16 
REMARK   15  A    between atoms: C_16  and  C_17 
REMARK   16  A    between atoms: C_17  and  C_18 
REMARK   17  A    between atoms: C_18  and  O_20 
REMARK   18  A    between atoms: O_20  and  C_21 
REMARK   19  A    between atoms: C_21  and  C_22 
REMARK   20  A    between atoms: C_22  and  C_23 
ROOT
HETATM    1  C   UNL     1     -21.069  -8.959  -0.108  1.00  0.00     0.000 C 
ENDROOT
BRANCH   1   2
HETATM    2  C   UNL     1     -21.151 -10.170   0.807  1.00  0.00     0.000 C 
BRANCH   2   3
HETATM    3  C   UNL     1     -21.558 -11.399   0.013  1.00  0.00     0.000 C 
BRANCH   3   4
HETATM    4  C   UNL     1     -23.070 -11.545   0.023  1.00  0.00     0.000 C 
BRANCH   4   5
HETATM    5  C   UNL     1     -23.639 -11.167  -1.331  1.00  0.00     0.000 C 
BRANCH   5   6
HETATM    6  C   UNL     1     -22.715 -11.648  -2.437  1.00  0.00     0.000 C 
BRANCH   6   7
HETATM    7  C   UNL     1     -22.564 -10.569  -3.495  1.00  0.00     0.000 C 
BRANCH   7   8
HETATM    8  C   UNL     1     -21.249 -10.742  -4.234  1.00  0.00     0.000 C 
BRANCH   8   9
HETATM    9  C   UNL     1     -20.102 -10.206  -3.391  1.00  0.00     0.000 C 
BRANCH   9  10
HETATM   10  C   UNL     1     -19.093 -11.310  -3.113  1.00  0.00    -0.000 C 
BRANCH  10  11
HETATM   11  C   UNL     1     -18.340 -11.036  -1.818  1.00  0.00    -0.005 C 
HETATM   12  C   UNL     1     -16.870 -11.375  -1.976  1.00  0.00     0.005 C 
ENDBRANCH  10  11
ENDBRANCH   9  10
ENDBRANCH   8   9
ENDBRANCH   7   8
ENDBRANCH   6   7
ENDBRANCH   5   6
ENDBRANCH   4   5
ENDBRANCH   3   4
ENDBRANCH   2   3
ENDBRANCH   1   2
BRANCH   1  13
HETATM   13  C   UNL     1     -22.166  -7.965   0.240  1.00  0.00     0.000 C 
BRANCH  13  14
HETATM   14  C   UNL     1     -22.375  -6.982  -0.903  1.00  0.00     0.000 C 
BRANCH  14  15
HETATM   15  C   UNL     1     -21.316  -7.178  -1.984  1.00  0.00     0.000 C 
BRANCH  15  16
HETATM   16  C   UNL     1     -21.554  -6.206  -3.133  1.00  0.00     0.010 C 
BRANCH  16  17
HETATM   17  C   UNL     1     -21.879  -6.919  -4.442  1.00  0.00     0.111 C 
BRANCH  17  18
HETATM   18  C   UNL     1     -20.777  -6.674  -5.453  1.00  0.00     0.258 C 
HETATM   19  O   UNL     1     -20.139  -7.539  -6.020  1.00  0.00    -0.265 OA
BRANCH  18  20
HETATM   20  O   UNL     1     -20.561  -5.332  -5.579  1.00  0.00    -0.321 OA
BRANCH  20  21
HETATM   21  C   UNL     1     -21.293  -4.743  -6.665  1.00  0.00     0.178 C 
BRANCH  21  22
HETATM   22  C   UNL     1     -20.368  -3.978  -7.603  1.00  0.00     0.026 C 
BRANCH  22  23
HETATM   23  C   UNL     1     -20.023  -4.807  -8.840  1.00  0.00    -0.002 C 
HETATM   24  C   UNL     1     -20.678  -4.238 -10.089  1.00  0.00     0.005 C 
ENDBRANCH  22  23
ENDBRANCH  21  22
ENDBRANCH  20  21
ENDBRANCH  18  20
ENDBRANCH  17  18
ENDBRANCH  16  17
ENDBRANCH  15  16
ENDBRANCH  14  15
ENDBRANCH  13  14
ENDBRANCH   1  13
TORSDOF 20
ENDMDL
MODEL 8
REMARK VINA RESULT:      -6.0      3.024      9.902
REMARK  20 active torsions:
REMARK  status: ('A' for Active; 'I' for Inactive)
REMARK    1  A    between atoms: C_2  and  C_3 
REMARK    2  A    between atoms: C_3  and  C_4 
REMARK    3  A    between atoms: C_4  and  C_5 
REMARK    4  A    between atoms: C_5  and  C_6 
REMARK    5  A    between atoms: C_6  and  C_7 
REMARK    6  A    between atoms: C_7  and  C_8 
REMARK    7  A    between atoms: C_8  and  C_9 
REMARK    8  A    between atoms: C_9  and  C_10 
REMARK    9  A    between atoms: C_10  and  C_11 
REMARK   10  A    between atoms: C_11  and  C_12 
REMARK   11  A    between atoms: C_12  and  C_13 
REMARK   12  A    between atoms: C_13  and  C_14 
REMARK   13  A    between atoms: C_14  and  C_15 
REMARK   14  A    between atoms: C_15  and  C_16 
REMARK   15  A    between atoms: C_16  and  C_17 
REMARK   16  A    between atoms: C_17  and  C_18 
REMARK   17  A    between atoms: C_18  and  O_20 
REMARK   18  A    between atoms: O_20  and  C_21 
REMARK   19  A    between atoms: C_21  and  C_22 
REMARK   20  A    between atoms: C_22  and  C_23 
ROOT
HETATM    1  C   UNL     1     -21.829  -7.487  -1.604  1.00  0.00     0.000 C 
ENDROOT
BRANCH   1   2
HETATM    2  C   UNL     1     -22.108  -6.177  -2.323  1.00  0.00     0.000 C 
BRANCH   2   3
HETATM    3  C   UNL     1     -21.261  -6.082  -3.581  1.00  0.00     0.000 C 
BRANCH   3   4
HETATM    4  C   UNL     1     -22.069  -6.537  -4.785  1.00  0.00     0.000 C 
BRANCH   4   5
HETATM    5  C   UNL     1     -21.345  -6.169  -6.066  1.00  0.00     0.000 C 
BRANCH   5   6
HETATM    6  C   UNL     1     -20.225  -5.186  -5.768  1.00  0.00     0.000 C 
BRANCH   6   7
HETATM    7  C   UNL     1     -19.654  -4.639  -7.064  1.00  0.00     0.000 C 
BRANCH   7   8
HETATM    8  C   UNL     1     -20.724  -4.631  -8.143  1.00  0.00     0.000 C 
BRANCH   8   9
HETATM    9  C   UNL     1     -20.080  -4.726  -9.517  1.00  0.00     0.000 C 
BRANCH   9  10
HETATM   10  C   UNL     1     -20.700  -3.707 -10.461  1.00  0.00    -0.000 C 
BRANCH  10  11
HETATM   11  C   UNL     1     -21.547  -4.400 -11.519  1.00  0.00    -0.005 C 
HETATM   12  C   UNL     1     -23.021  -4.298 -11.172  1.00  0.00     0.005 C 
ENDBRANCH  10  11
ENDBRANCH   9  10
ENDBRANCH   8   9
ENDBRANCH   7   8
ENDBRANCH   6   7
ENDBRANCH   5   6
ENDBRANCH   4   5
ENDBRANCH   3   4
ENDBRANCH   2   3
ENDBRANCH   1   2
BRANCH   1  13
HETATM   13  C   UNL     1     -22.206  -7.367  -0.135  1.00  0.00     0.000 C 
BRANCH  13  14
HETATM   14  C   UNL     1     -23.111  -8.517   0.278  1.00  0.00     0.000 C 
BRANCH  14  15
HETATM   15  C   UNL     1     -22.358  -9.843   0.225  1.00  0.00     0.000 C 
BRANCH  15  16
HETATM   16  C   UNL     1     -22.981 -10.760  -0.820  1.00  0.00     0.010 C 
BRANCH  16  17
HETATM   17  C   UNL     1     -21.935 -11.543  -1.607  1.00  0.00     0.111 C 
BRANCH  17  18
HETATM   18  C   UNL     1     -21.802 -10.972  -3.004  1.00  0.00     0.258 C 
HETATM   19  O   UNL     1     -22.725 -10.606  -3.705  1.00  0.00    -0.265 OA
BRANCH  18  20
HETATM   20  O   UNL     1     -20.492 -10.995  -3.386  1.00  0.00    -0.321 OA
BRANCH  20  21
HETATM   21  C   UNL     1     -19.985  -9.699  -3.740  1.00  0.00     0.178 C 
BRANCH  21  22
HETATM   22  C   UNL     1     -18.750  -9.347  -2.921  1.00  0.00     0.026 C 
BRANCH  22  23
HETATM   23  C   UNL     1     -17.466  -9.641  -3.698  1.00  0.00    -0.002 C 
HETATM   24  C   UNL     1     -16.238  -9.505  -2.813  1.00  0.00     0.005 C 
ENDBRANCH  22  23
ENDBRANCH  21  22
ENDBRANCH  20  21
ENDBRANCH  18  20
ENDBRANCH  17  18
ENDBRANCH  16  17
ENDBRANCH  15  16
ENDBRANCH  14  15
ENDBRANCH  13  14
ENDBRANCH   1  13
TORSDOF 20
ENDMDL
MODEL 9
REMARK VINA RESULT:      -5.9      3.158     11.686
REMARK  20 active torsions:
REMARK  status: ('A' for Active; 'I' for Inactive)
REMARK    1  A    between atoms: C_2  and  C_3 
REMARK    2  A    between atoms: C_3  and  C_4 
REMARK    3  A    between atoms: C_4  and  C_5 
REMARK    4  A    between atoms: C_5  and  C_6 
REMARK    5  A    between atoms: C_6  and  C_7 
REMARK    6  A    between atoms: C_7  and  C_8 
REMARK    7  A    between atoms: C_8  and  C_9 
REMARK    8  A    between atoms: C_9  and  C_10 
REMARK    9  A    between atoms: C_10  and  C_11 
REMARK   10  A    between atoms: C_11  and  C_12 
REMARK   11  A    between atoms: C_12  and  C_13 
REMARK   12  A    between atoms: C_13  and  C_14 
REMARK   13  A    between atoms: C_14  and  C_15 
REMARK   14  A    between atoms: C_15  and  C_16 
REMARK   15  A    between atoms: C_16  and  C_17 
REMARK   16  A    between atoms: C_17  and  C_18 
REMARK   17  A    between atoms: C_18  and  O_20 
REMARK   18  A    between atoms: O_20  and  C_21 
REMARK   19  A    between atoms: C_21  and  C_22 
REMARK   20  A    between atoms: C_22  and  C_23 
ROOT
HETATM    1  C   UNL     1     -20.868  -6.633  -6.410  1.00  0.00     0.000 C 
ENDROOT
BRANCH   1   2
HETATM    2  C   UNL     1     -20.049  -5.471  -5.873  1.00  0.00     0.000 C 
BRANCH   2   3
HETATM    3  C   UNL     1     -19.666  -4.533  -7.005  1.00  0.00     0.000 C 
BRANCH   3   4
HETATM    4  C   UNL     1     -20.879  -3.730  -7.444  1.00  0.00     0.000 C 
BRANCH   4   5
HETATM    5  C   UNL     1     -21.455  -4.314  -8.720  1.00  0.00     0.000 C 
BRANCH   5   6
HETATM    6  C   UNL     1     -20.334  -4.781  -9.632  1.00  0.00     0.000 C 
BRANCH   6   7
HETATM    7  C   UNL     1     -20.230  -3.866 -10.840  1.00  0.00     0.000 C 
BRANCH   7   8
HETATM    8  C   UNL     1     -21.465  -4.012 -11.712  1.00  0.00     0.000 C 
BRANCH   8   9
HETATM    9  C   UNL     1     -22.079  -2.646 -11.978  1.00  0.00     0.000 C 
BRANCH   9  10
HETATM   10  C   UNL     1     -23.592  -2.764 -12.090  1.00  0.00    -0.000 C 
BRANCH  10  11
HETATM   11  C   UNL     1     -23.992  -3.250 -13.477  1.00  0.00    -0.005 C 
HETATM   12  C   UNL     1     -23.042  -2.706 -14.527  1.00  0.00     0.005 C 
ENDBRANCH  10  11
ENDBRANCH   9  10
ENDBRANCH   8   9
ENDBRANCH   7   8
ENDBRANCH   6   7
ENDBRANCH   5   6
ENDBRANCH   4   5
ENDBRANCH   3   4
ENDBRANCH   2   3
ENDBRANCH   1   2
BRANCH   1  13
HETATM   13  C   UNL     1     -21.471  -7.424  -5.259  1.00  0.00     0.000 C 
BRANCH  13  14
HETATM   14  C   UNL     1     -22.258  -6.505  -4.338  1.00  0.00     0.000 C 
BRANCH  14  15
HETATM   15  C   UNL     1     -21.799  -6.668  -2.891  1.00  0.00     0.000 C 
BRANCH  15  16
HETATM   16  C   UNL     1     -21.184  -8.047  -2.688  1.00  0.00     0.010 C 
BRANCH  16  17
HETATM   17  C   UNL     1     -20.263  -8.102  -1.474  1.00  0.00     0.111 C 
BRANCH  17  18
HETATM   18  C   UNL     1     -20.943  -8.840  -0.339  1.00  0.00     0.258 C 
HETATM   19  O   UNL     1     -21.511  -8.317   0.599  1.00  0.00    -0.265 OA
BRANCH  18  20
HETATM   20  O   UNL     1     -20.761 -10.184  -0.492  1.00  0.00    -0.321 OA
BRANCH  20  21
HETATM   21  C   UNL     1     -20.838 -10.907   0.746  1.00  0.00     0.178 C 
BRANCH  21  22
HETATM   22  C   UNL     1     -21.907 -11.991   0.685  1.00  0.00     0.026 C 
BRANCH  22  23
HETATM   23  C   UNL     1     -22.800 -11.822  -0.543  1.00  0.00    -0.002 C 
HETATM   24  C   UNL     1     -24.060 -11.039  -0.210  1.00  0.00     0.005 C 
ENDBRANCH  22  23
ENDBRANCH  21  22
ENDBRANCH  20  21
ENDBRANCH  18  20
ENDBRANCH  17  18
ENDBRANCH  16  17
ENDBRANCH  15  16
ENDBRANCH  14  15
ENDBRANCH  13  14
ENDBRANCH   1  13
TORSDOF 20
ENDMDL
