MODEL 1
REMARK VINA RESULT:      -5.2      0.000      0.000
REMARK  2 active torsions:
REMARK  status: ('A' for Active; 'I' for Inactive)
REMARK    1  A    between atoms: O_2  and  C_3 
REMARK    2  A    between atoms: C_10  and  O_11 
ROOT
HETATM    1  C   UNL     1     -33.865  -3.464 -11.515  1.00  0.00     0.176 C 
HETATM    2  C   UNL     1     -33.300  -2.256 -10.776  1.00  0.00     0.203 C 
HETATM    3  O   UNL     1     -34.419  -1.469 -10.327  1.00  0.00    -0.378 OA
HETATM    4  C   UNL     1     -35.568  -1.839 -11.122  1.00  0.00     0.184 C 
HETATM    5  C   UNL     1     -35.106  -2.860 -12.153  1.00  0.00     0.184 C 
HETATM    6  O   UNL     1     -34.752  -2.139 -13.355  1.00  0.00    -0.378 OA
HETATM    7  C   UNL     1     -35.047  -0.747 -13.140  1.00  0.00     0.203 C 
HETATM    8  C   UNL     1     -36.020  -0.663 -11.969  1.00  0.00     0.176 C 
ENDROOT
BRANCH   1   9
HETATM    9  O   UNL     1     -34.269  -4.518 -10.632  1.00  0.00    -0.386 OA
HETATM   10  C   UNL     1     -33.746  -5.788 -11.002  1.00  0.00     0.202 C 
ENDBRANCH   1   9
BRANCH   8  11
HETATM   11  O   UNL     1     -37.383  -0.871 -12.363  1.00  0.00    -0.386 OA
HETATM   12  C   UNL     1     -37.734  -0.173 -13.553  1.00  0.00     0.202 C 
ENDBRANCH   8  11
TORSDOF 2
ENDMDL
MODEL 2
REMARK VINA RESULT:      -5.2      0.188      4.340
REMARK  2 active torsions:
REMARK  status: ('A' for Active; 'I' for Inactive)
REMARK    1  A    between atoms: O_2  and  C_3 
REMARK    2  A    between atoms: C_10  and  O_11 
ROOT
HETATM    1  C   UNL     1     -36.019  -0.666 -11.931  1.00  0.00     0.176 C 
HETATM    2  C   UNL     1     -35.057  -0.775 -13.109  1.00  0.00     0.203 C 
HETATM    3  O   UNL     1     -34.770  -2.173 -13.297  1.00  0.00    -0.378 OA
HETATM    4  C   UNL     1     -35.094  -2.862 -12.068  1.00  0.00     0.184 C 
HETATM    5  C   UNL     1     -35.539  -1.814 -11.057  1.00  0.00     0.184 C 
HETATM    6  O   UNL     1     -34.376  -1.414 -10.298  1.00  0.00    -0.378 OA
HETATM    7  C   UNL     1     -33.263  -2.216 -10.737  1.00  0.00     0.203 C 
HETATM    8  C   UNL     1     -33.836  -3.440 -11.445  1.00  0.00     0.176 C 
ENDROOT
BRANCH   1   9
HETATM    9  O   UNL     1     -37.382  -0.909 -12.301  1.00  0.00    -0.386 OA
HETATM   10  C   UNL     1     -37.797  -0.155 -13.434  1.00  0.00     0.202 C 
ENDBRANCH   1   9
BRANCH   8  11
HETATM   11  O   UNL     1     -34.206  -4.485 -10.536  1.00  0.00    -0.386 OA
HETATM   12  C   UNL     1     -34.314  -5.759 -11.163  1.00  0.00     0.202 C 
ENDBRANCH   8  11
TORSDOF 2
ENDMDL
MODEL 3
REMARK VINA RESULT:      -5.0      1.549      4.453
REMARK  2 active torsions:
REMARK  status: ('A' for Active; 'I' for Inactive)
REMARK    1  A    between atoms: O_2  and  C_3 
REMARK    2  A    between atoms: C_10  and  O_11 
ROOT
HETATM    1  C   UNL     1     -34.445  -1.506 -11.272  1.00  0.00     0.176 C 
HETATM    2  C   UNL     1     -34.942  -1.951 -12.643  1.00  0.00     0.203 C 
HETATM    3  O   UNL     1     -35.458  -3.287 -12.497  1.00  0.00    -0.378 OA
HETATM    4  C   UNL     1     -34.897  -3.849 -11.289  1.00  0.00     0.184 C 
HETATM    5  C   UNL     1     -33.937  -2.822 -10.706  1.00  0.00     0.184 C 
HETATM    6  O   UNL     1     -32.618  -3.113 -11.221  1.00  0.00    -0.378 OA
HETATM    7  C   UNL     1     -32.708  -4.305 -12.022  1.00  0.00     0.203 C 
HETATM    8  C   UNL     1     -33.995  -5.022 -11.628  1.00  0.00     0.176 C 
ENDROOT
BRANCH   1   9
HETATM    9  O   UNL     1     -35.498  -1.020 -10.429  1.00  0.00    -0.386 OA
HETATM   10  C   UNL     1     -36.463  -0.244 -11.131  1.00  0.00     0.202 C 
ENDBRANCH   1   9
BRANCH   8  11
HETATM   11  O   UNL     1     -33.840  -5.840 -10.461  1.00  0.00    -0.386 OA
HETATM   12  C   UNL     1     -34.710  -6.968 -10.448  1.00  0.00     0.202 C 
ENDBRANCH   8  11
TORSDOF 2
ENDMDL
MODEL 4
REMARK VINA RESULT:      -5.0      1.901      3.125
REMARK  2 active torsions:
REMARK  status: ('A' for Active; 'I' for Inactive)
REMARK    1  A    between atoms: O_2  and  C_3 
REMARK    2  A    between atoms: C_10  and  O_11 
ROOT
HETATM    1  C   UNL     1     -35.995  -1.203 -11.141  1.00  0.00     0.176 C 
HETATM    2  C   UNL     1     -37.150  -0.241 -11.396  1.00  0.00     0.203 C 
HETATM    3  O   UNL     1     -37.475  -0.325 -12.796  1.00  0.00    -0.378 OA
HETATM    4  C   UNL     1     -36.333  -0.887 -13.483  1.00  0.00     0.184 C 
HETATM    5  C   UNL     1     -35.232  -1.095 -12.452  1.00  0.00     0.184 C 
HETATM    6  O   UNL     1     -34.403   0.090 -12.453  1.00  0.00    -0.378 OA
HETATM    7  C   UNL     1     -34.891   0.972 -13.480  1.00  0.00     0.203 C 
HETATM    8  C   UNL     1     -35.739   0.136 -14.433  1.00  0.00     0.176 C 
ENDROOT
BRANCH   1   9
HETATM    9  O   UNL     1     -36.427  -2.560 -10.973  1.00  0.00    -0.386 OA
HETATM   10  C   UNL     1     -35.355  -3.495 -11.006  1.00  0.00     0.202 C 
ENDBRANCH   1   9
BRANCH   8  11
HETATM   11  O   UNL     1     -34.954  -0.548 -15.420  1.00  0.00    -0.386 OA
HETATM   12  C   UNL     1     -35.728  -1.031 -16.513  1.00  0.00     0.202 C 
ENDBRANCH   8  11
TORSDOF 2
ENDMDL
MODEL 5
REMARK VINA RESULT:      -5.0      1.516      2.296
REMARK  2 active torsions:
REMARK  status: ('A' for Active; 'I' for Inactive)
REMARK    1  A    between atoms: O_2  and  C_3 
REMARK    2  A    between atoms: C_10  and  O_11 
ROOT
HETATM    1  C   UNL     1     -33.962  -3.312 -10.689  1.00  0.00     0.176 C 
HETATM    2  C   UNL     1     -35.189  -3.854 -11.413  1.00  0.00     0.203 C 
HETATM    3  O   UNL     1     -35.437  -2.990 -12.538  1.00  0.00    -0.378 OA
HETATM    4  C   UNL     1     -34.767  -1.733 -12.288  1.00  0.00     0.184 C 
HETATM    5  C   UNL     1     -34.133  -1.816 -10.906  1.00  0.00     0.184 C 
HETATM    6  O   UNL     1     -35.080  -1.277  -9.956  1.00  0.00    -0.378 OA
HETATM    7  C   UNL     1     -36.222  -0.799 -10.691  1.00  0.00     0.203 C 
HETATM    8  C   UNL     1     -35.786  -0.618 -12.141  1.00  0.00     0.176 C 
ENDROOT
BRANCH   1   9
HETATM    9  O   UNL     1     -32.730  -3.725 -11.294  1.00  0.00    -0.386 OA
HETATM   10  C   UNL     1     -32.732  -5.092 -11.689  1.00  0.00     0.202 C 
ENDBRANCH   1   9
BRANCH   8  11
HETATM   11  O   UNL     1     -35.135   0.639 -12.372  1.00  0.00    -0.386 OA
HETATM   12  C   UNL     1     -34.825   0.864 -13.744  1.00  0.00     0.202 C 
ENDBRANCH   8  11
TORSDOF 2
ENDMDL
MODEL 6
REMARK VINA RESULT:      -4.9      1.514      4.266
REMARK  2 active torsions:
REMARK  status: ('A' for Active; 'I' for Inactive)
REMARK    1  A    between atoms: O_2  and  C_3 
REMARK    2  A    between atoms: C_10  and  O_11 
ROOT
HETATM    1  C   UNL     1     -36.039  -0.787 -12.209  1.00  0.00     0.176 C 
HETATM    2  C   UNL     1     -36.370  -1.008 -10.737  1.00  0.00     0.203 C 
HETATM    3  O   UNL     1     -35.134  -1.304 -10.061  1.00  0.00    -0.378 OA
HETATM    4  C   UNL     1     -34.178  -1.737 -11.055  1.00  0.00     0.184 C 
HETATM    5  C   UNL     1     -34.893  -1.768 -12.399  1.00  0.00     0.184 C 
HETATM    6  O   UNL     1     -35.405  -3.106 -12.592  1.00  0.00    -0.378 OA
HETATM    7  C   UNL     1     -34.975  -3.911 -11.479  1.00  0.00     0.203 C 
HETATM    8  C   UNL     1     -33.802  -3.189 -10.822  1.00  0.00     0.176 C 
ENDROOT
BRANCH   1   9
HETATM    9  O   UNL     1     -35.560   0.536 -12.479  1.00  0.00    -0.386 OA
HETATM   10  C   UNL     1     -34.986   0.669 -13.774  1.00  0.00     0.202 C 
ENDBRANCH   1   9
BRANCH   8  11
HETATM   11  O   UNL     1     -32.553  -3.455 -11.473  1.00  0.00    -0.386 OA
HETATM   12  C   UNL     1     -32.461  -4.780 -11.989  1.00  0.00     0.202 C 
ENDBRANCH   8  11
TORSDOF 2
ENDMDL
MODEL 7
REMARK VINA RESULT:      -4.8     11.802     13.133
REMARK  2 active torsions:
REMARK  status: ('A' for Active; 'I' for Inactive)
REMARK    1  A    between atoms: O_2  and  C_3 
REMARK    2  A    between atoms: C_10  and  O_11 
ROOT
HETATM    1  C   UNL     1     -22.435  -4.436  -8.421  1.00  0.00     0.176 C 
HETATM    2  C   UNL     1     -21.349  -5.224  -9.145  1.00  0.00     0.203 C 
HETATM    3  O   UNL     1     -20.887  -4.409 -10.238  1.00  0.00    -0.378 OA
HETATM    4  C   UNL     1     -21.905  -3.420 -10.515  1.00  0.00     0.184 C 
HETATM    5  C   UNL     1     -23.077  -3.692  -9.582  1.00  0.00     0.184 C 
HETATM    6  O   UNL     1     -24.002  -4.556 -10.280  1.00  0.00    -0.378 OA
HETATM    7  C   UNL     1     -23.498  -4.761 -11.613  1.00  0.00     0.203 C 
HETATM    8  C   UNL     1     -22.494  -3.647 -11.896  1.00  0.00     0.176 C 
ENDROOT
BRANCH   1   9
HETATM    9  O   UNL     1     -21.905  -3.476  -7.498  1.00  0.00    -0.386 OA
HETATM   10  C   UNL     1     -20.855  -3.997  -6.691  1.00  0.00     0.202 C 
ENDBRANCH   1   9
BRANCH   8  11
HETATM   11  O   UNL     1     -23.119  -2.436 -12.338  1.00  0.00    -0.386 OA
HETATM   12  C   UNL     1     -23.469  -2.459 -13.719  1.00  0.00     0.202 C 
ENDBRANCH   8  11
TORSDOF 2
ENDMDL
MODEL 8
REMARK VINA RESULT:      -4.5     12.498     14.003
REMARK  2 active torsions:
REMARK  status: ('A' for Active; 'I' for Inactive)
REMARK    1  A    between atoms: O_2  and  C_3 
REMARK    2  A    between atoms: C_10  and  O_11 
ROOT
HETATM    1  C   UNL     1     -20.071  -4.768  -8.639  1.00  0.00     0.176 C 
HETATM    2  C   UNL     1     -20.773  -3.595  -7.963  1.00  0.00     0.203 C 
HETATM    3  O   UNL     1     -22.160  -3.653  -8.341  1.00  0.00    -0.378 OA
HETATM    4  C   UNL     1     -22.261  -4.460  -9.537  1.00  0.00     0.184 C 
HETATM    5  C   UNL     1     -20.849  -4.860  -9.942  1.00  0.00     0.184 C 
HETATM    6  O   UNL     1     -20.368  -3.874 -10.884  1.00  0.00    -0.378 OA
HETATM    7  C   UNL     1     -21.435  -2.941 -11.134  1.00  0.00     0.203 C 
HETATM    8  C   UNL     1     -22.736  -3.612 -10.703  1.00  0.00     0.176 C 
ENDROOT
BRANCH   1   9
HETATM    9  O   UNL     1     -20.228  -5.999  -7.923  1.00  0.00    -0.386 OA
HETATM   10  C   UNL     1     -20.057  -5.854  -6.518  1.00  0.00     0.202 C 
ENDBRANCH   1   9
BRANCH   8  11
HETATM   11  O   UNL     1     -23.277  -4.473 -11.713  1.00  0.00    -0.386 OA
HETATM   12  C   UNL     1     -23.893  -3.763 -12.782  1.00  0.00     0.202 C 
ENDBRANCH   8  11
TORSDOF 2
ENDMDL
MODEL 9
REMARK VINA RESULT:      -4.5      2.003      4.471
REMARK  2 active torsions:
REMARK  status: ('A' for Active; 'I' for Inactive)
REMARK    1  A    between atoms: O_2  and  C_3 
REMARK    2  A    between atoms: C_10  and  O_11 
ROOT
HETATM    1  C   UNL     1     -35.158  -0.095 -13.830  1.00  0.00     0.176 C 
HETATM    2  C   UNL     1     -36.515  -0.763 -14.024  1.00  0.00     0.203 C 
HETATM    3  O   UNL     1     -37.312  -0.455 -12.865  1.00  0.00    -0.378 OA
HETATM    4  C   UNL     1     -36.414  -0.066 -11.801  1.00  0.00     0.184 C 
HETATM    5  C   UNL     1     -34.991  -0.209 -12.323  1.00  0.00     0.184 C 
HETATM    6  O   UNL     1     -34.525  -1.531 -11.969  1.00  0.00    -0.378 OA
HETATM    7  C   UNL     1     -35.554  -2.171 -11.193  1.00  0.00     0.203 C 
HETATM    8  C   UNL     1     -36.476  -1.075 -10.668  1.00  0.00     0.176 C 
ENDROOT
BRANCH   1   9
HETATM    9  O   UNL     1     -35.164   1.293 -14.188  1.00  0.00    -0.386 OA
HETATM   10  C   UNL     1     -35.718   1.536 -15.476  1.00  0.00     0.202 C 
ENDBRANCH   1   9
BRANCH   8  11
HETATM   11  O   UNL     1     -35.982  -0.460  -9.471  1.00  0.00    -0.386 OA
HETATM   12  C   UNL     1     -37.016  -0.102  -8.559  1.00  0.00     0.202 C 
ENDBRANCH   8  11
TORSDOF 2
ENDMDL
