MODEL 1
REMARK VINA RESULT:      -6.6      0.000      0.000
REMARK  8 active torsions:
REMARK  status: ('A' for Active; 'I' for Inactive)
REMARK    1  A    between atoms: CG_2  and  CB_7 
REMARK    2  A    between atoms: CB_7  and  CA_8 
REMARK    3  A    between atoms: CA_8  and  C_9 
REMARK    4  A    between atoms: CA_8  and  N_12 
REMARK    5  A    between atoms: C_9  and  OXT_11 
REMARK       I    between atoms: N_12  and  C_16 
REMARK    6  A    between atoms: C_16  and  C_18 
REMARK    7  A    between atoms: C_18  and  C_19 
REMARK    8  A    between atoms: C_19  and  N_20 
ROOT
ATOM      1  CA  HIS A   1     -23.164  -3.631 -10.392  1.00  0.00     0.188 C 
ENDROOT
BRANCH   1   2
ATOM      2  CB  HIS A   1     -23.410  -4.298 -11.754  1.00  0.00     0.094 C 
BRANCH   2   3
ATOM      3  CG  HIS A   1     -23.401  -3.342 -12.910  1.00  0.00     0.028 A 
ATOM      4  CD2 HIS A   1     -24.234  -2.286 -13.215  1.00  0.00     0.114 A 
ATOM      5  NE2 HIS A   1     -23.882  -1.708 -14.405  1.00  0.00    -0.360 N 
ATOM      6  CE1 HIS A   1     -22.833  -2.377 -14.820  1.00  0.00     0.180 A 
ATOM      7  HE2 HIS A   1     -24.339  -0.924 -14.870  1.00  0.00     0.166 HD
ATOM      8  ND1 HIS A   1     -22.476  -3.348 -13.929  1.00  0.00    -0.354 N 
ATOM      9  HD1 HIS A   1     -21.688  -3.972 -14.035  1.00  0.00     0.166 HD
ENDBRANCH   2   3
ENDBRANCH   1   2
BRANCH   1  10
ATOM     10  C   HIS A   1     -24.454  -3.541  -9.573  1.00  0.00     0.163 C 
ATOM     11  O   HIS A   1     -25.529  -3.151  -9.998  1.00  0.00    -0.648 OA
BRANCH  10  12
ATOM     12  OXT HIS A   1     -24.281  -3.884  -8.269  1.00  0.00    -0.775 OA
ATOM     13  HXT HIS A   1     -25.023  -3.583  -7.695  1.00  0.00     0.167 HD
ENDBRANCH  10  12
ENDBRANCH   1  10
BRANCH   1  14
ATOM     14  N   HIS A   1     -22.126  -4.319  -9.613  1.00  0.00    -0.346 N 
HETATM   15  C   UNK A   0     -20.792  -4.134  -9.876  1.00  0.00     0.220 C 
HETATM   16  O   UNK A   0     -20.435  -3.331 -10.734  1.00  0.00    -0.274 OA
ATOM     17  H   HIS A   1     -22.393  -4.729  -8.723  1.00  0.00     0.163 HD
BRANCH  15  18
HETATM   18  C   UNK A   0     -19.855  -4.930  -8.998  1.00  0.00     0.132 C 
BRANCH  18  19
HETATM   19  C   UNK A   0     -20.401  -5.027  -7.577  1.00  0.00     0.276 C 
BRANCH  19  20
HETATM   20  N   UNK A   0     -20.465  -6.417  -7.132  1.00  0.00     0.078 N 
HETATM   21  H   UNK A   0     -20.872  -6.465  -6.198  1.00  0.00     0.312 HD
HETATM   22  H   UNK A   0     -19.516  -6.780  -7.037  1.00  0.00     0.312 HD
ENDBRANCH  19  20
ENDBRANCH  18  19
ENDBRANCH  15  18
ENDBRANCH   1  14
TORSDOF 8
ENDMDL
MODEL 2
REMARK VINA RESULT:      -6.4      1.509      1.683
REMARK  8 active torsions:
REMARK  status: ('A' for Active; 'I' for Inactive)
REMARK    1  A    between atoms: CG_2  and  CB_7 
REMARK    2  A    between atoms: CB_7  and  CA_8 
REMARK    3  A    between atoms: CA_8  and  C_9 
REMARK    4  A    between atoms: CA_8  and  N_12 
REMARK    5  A    between atoms: C_9  and  OXT_11 
REMARK       I    between atoms: N_12  and  C_16 
REMARK    6  A    between atoms: C_16  and  C_18 
REMARK    7  A    between atoms: C_18  and  C_19 
REMARK    8  A    between atoms: C_19  and  N_20 
ROOT
ATOM      1  CA  HIS A   1     -22.353  -4.082  -9.935  1.00  0.00     0.188 C 
ENDROOT
BRANCH   1   2
ATOM      2  CB  HIS A   1     -22.085  -4.461 -11.400  1.00  0.00     0.094 C 
BRANCH   2   3
ATOM      3  CG  HIS A   1     -22.688  -3.511 -12.393  1.00  0.00     0.028 A 
ATOM      4  CD2 HIS A   1     -23.744  -2.632 -12.276  1.00  0.00     0.114 A 
ATOM      5  NE2 HIS A   1     -23.982  -1.987 -13.460  1.00  0.00    -0.360 N 
ATOM      6  CE1 HIS A   1     -23.073  -2.439 -14.291  1.00  0.00     0.180 A 
ATOM      7  HE2 HIS A   1     -24.711  -1.302 -13.655  1.00  0.00     0.166 HD
ATOM      8  ND1 HIS A   1     -22.238  -3.331 -13.681  1.00  0.00    -0.354 N 
ATOM      9  HD1 HIS A   1     -21.456  -3.792 -14.126  1.00  0.00     0.166 HD
ENDBRANCH   2   3
ENDBRANCH   1   2
BRANCH   1  10
ATOM     10  C   HIS A   1     -23.817  -4.319  -9.555  1.00  0.00     0.163 C 
ATOM     11  O   HIS A   1     -24.528  -5.196 -10.015  1.00  0.00    -0.648 OA
BRANCH  10  12
ATOM     12  OXT HIS A   1     -24.294  -3.398  -8.676  1.00  0.00    -0.775 OA
ATOM     13  HXT HIS A   1     -24.423  -2.511  -9.087  1.00  0.00     0.167 HD
ENDBRANCH  10  12
ENDBRANCH   1  10
BRANCH   1  14
ATOM     14  N   HIS A   1     -21.474  -4.801  -9.003  1.00  0.00    -0.346 N 
HETATM   15  C   UNK A   0     -21.126  -4.265  -7.789  1.00  0.00     0.220 C 
HETATM   16  O   UNK A   0     -21.600  -3.192  -7.427  1.00  0.00    -0.274 OA
ATOM     17  H   HIS A   1     -21.335  -5.796  -9.152  1.00  0.00     0.163 HD
BRANCH  15  18
HETATM   18  C   UNK A   0     -20.199  -5.123  -6.959  1.00  0.00     0.132 C 
BRANCH  18  19
HETATM   19  C   UNK A   0     -20.790  -5.371  -5.575  1.00  0.00     0.276 C 
BRANCH  19  20
HETATM   20  N   UNK A   0     -22.223  -5.646  -5.657  1.00  0.00     0.078 N 
HETATM   21  H   UNK A   0     -22.512  -5.699  -6.634  1.00  0.00     0.312 HD
HETATM   22  H   UNK A   0     -22.737  -4.858  -5.260  1.00  0.00     0.312 HD
ENDBRANCH  19  20
ENDBRANCH  18  19
ENDBRANCH  15  18
ENDBRANCH   1  14
TORSDOF 8
ENDMDL
MODEL 3
REMARK VINA RESULT:      -6.2      7.509      9.828
REMARK  8 active torsions:
REMARK  status: ('A' for Active; 'I' for Inactive)
REMARK    1  A    between atoms: CG_2  and  CB_7 
REMARK    2  A    between atoms: CB_7  and  CA_8 
REMARK    3  A    between atoms: CA_8  and  C_9 
REMARK    4  A    between atoms: CA_8  and  N_12 
REMARK    5  A    between atoms: C_9  and  OXT_11 
REMARK       I    between atoms: N_12  and  C_16 
REMARK    6  A    between atoms: C_16  and  C_18 
REMARK    7  A    between atoms: C_18  and  C_19 
REMARK    8  A    between atoms: C_19  and  N_20 
ROOT
ATOM      1  CA  HIS A   1     -26.627  -6.364 -16.589  1.00  0.00     0.188 C 
ENDROOT
BRANCH   1   2
ATOM      2  CB  HIS A   1     -27.767  -7.225 -16.025  1.00  0.00     0.094 C 
BRANCH   2   3
ATOM      3  CG  HIS A   1     -29.137  -6.702 -16.342  1.00  0.00     0.028 A 
ATOM      4  CD2 HIS A   1     -29.865  -5.675 -15.778  1.00  0.00     0.114 A 
ATOM      5  NE2 HIS A   1     -31.103  -5.573 -16.355  1.00  0.00    -0.360 N 
ATOM      6  CE1 HIS A   1     -31.134  -6.505 -17.278  1.00  0.00     0.180 A 
ATOM      7  HE2 HIS A   1     -31.843  -4.914 -16.117  1.00  0.00     0.166 HD
ATOM      8  ND1 HIS A   1     -29.953  -7.187 -17.340  1.00  0.00    -0.354 N 
ATOM      9  HD1 HIS A   1     -29.747  -7.935 -17.987  1.00  0.00     0.166 HD
ENDBRANCH   2   3
ENDBRANCH   1   2
BRANCH   1  10
ATOM     10  C   HIS A   1     -25.362  -6.480 -15.734  1.00  0.00     0.163 C 
ATOM     11  O   HIS A   1     -24.933  -7.517 -15.254  1.00  0.00    -0.648 OA
BRANCH  10  12
ATOM     12  OXT HIS A   1     -24.771  -5.280 -15.493  1.00  0.00    -0.775 OA
ATOM     13  HXT HIS A   1     -24.089  -5.328 -14.782  1.00  0.00     0.167 HD
ENDBRANCH  10  12
ENDBRANCH   1  10
BRANCH   1  14
ATOM     14  N   HIS A   1     -26.315  -6.695 -17.986  1.00  0.00    -0.346 N 
HETATM   15  C   UNK A   0     -27.058  -6.192 -19.024  1.00  0.00     0.220 C 
HETATM   16  O   UNK A   0     -27.967  -5.395 -18.807  1.00  0.00    -0.274 OA
ATOM     17  H   HIS A   1     -25.401  -7.087 -18.189  1.00  0.00     0.163 HD
BRANCH  15  18
HETATM   18  C   UNK A   0     -26.619  -6.646 -20.397  1.00  0.00     0.132 C 
BRANCH  18  19
HETATM   19  C   UNK A   0     -25.201  -7.206 -20.351  1.00  0.00     0.276 C 
BRANCH  19  20
HETATM   20  N   UNK A   0     -25.027  -8.277 -21.329  1.00  0.00     0.078 N 
HETATM   21  H   UNK A   0     -24.136  -8.165 -21.813  1.00  0.00     0.312 HD
HETATM   22  H   UNK A   0     -25.744  -8.190 -22.051  1.00  0.00     0.312 HD
ENDBRANCH  19  20
ENDBRANCH  18  19
ENDBRANCH  15  18
ENDBRANCH   1  14
TORSDOF 8
ENDMDL
MODEL 4
REMARK VINA RESULT:      -5.9      7.951      9.782
REMARK  8 active torsions:
REMARK  status: ('A' for Active; 'I' for Inactive)
REMARK    1  A    between atoms: CG_2  and  CB_7 
REMARK    2  A    between atoms: CB_7  and  CA_8 
REMARK    3  A    between atoms: CA_8  and  C_9 
REMARK    4  A    between atoms: CA_8  and  N_12 
REMARK    5  A    between atoms: C_9  and  OXT_11 
REMARK       I    between atoms: N_12  and  C_16 
REMARK    6  A    between atoms: C_16  and  C_18 
REMARK    7  A    between atoms: C_18  and  C_19 
REMARK    8  A    between atoms: C_19  and  N_20 
ROOT
ATOM      1  CA  HIS A   1     -28.655  -6.341 -18.262  1.00  0.00     0.188 C 
ENDROOT
BRANCH   1   2
ATOM      2  CB  HIS A   1     -28.213  -5.923 -19.672  1.00  0.00     0.094 C 
BRANCH   2   3
ATOM      3  CG  HIS A   1     -27.004  -6.657 -20.173  1.00  0.00     0.028 A 
ATOM      4  CD2 HIS A   1     -25.672  -6.301 -20.187  1.00  0.00     0.114 A 
ATOM      5  NE2 HIS A   1     -24.909  -7.267 -20.787  1.00  0.00    -0.360 N 
ATOM      6  CE1 HIS A   1     -25.750  -8.219 -21.117  1.00  0.00     0.180 A 
ATOM      7  HE2 HIS A   1     -23.902  -7.250 -20.944  1.00  0.00     0.166 HD
ATOM      8  ND1 HIS A   1     -27.023  -7.917 -20.728  1.00  0.00    -0.354 N 
ATOM      9  HD1 HIS A   1     -27.828  -8.513 -20.864  1.00  0.00     0.166 HD
ENDBRANCH   2   3
ENDBRANCH   1   2
BRANCH   1  10
ATOM     10  C   HIS A   1     -29.784  -7.375 -18.314  1.00  0.00     0.163 C 
ATOM     11  O   HIS A   1     -30.904  -7.214 -17.858  1.00  0.00    -0.648 OA
BRANCH  10  12
ATOM     12  OXT HIS A   1     -29.401  -8.553 -18.873  1.00  0.00    -0.775 OA
ATOM     13  HXT HIS A   1     -28.875  -8.429 -19.698  1.00  0.00     0.167 HD
ENDBRANCH  10  12
ENDBRANCH   1  10
BRANCH   1  14
ATOM     14  N   HIS A   1     -27.541  -6.860 -17.458  1.00  0.00    -0.346 N 
HETATM   15  C   UNK A   0     -27.403  -6.536 -16.132  1.00  0.00     0.220 C 
HETATM   16  O   UNK A   0     -28.254  -5.852 -15.569  1.00  0.00    -0.274 OA
ATOM     17  H   HIS A   1     -27.023  -7.655 -17.820  1.00  0.00     0.163 HD
BRANCH  15  18
HETATM   18  C   UNK A   0     -26.192  -7.135 -15.455  1.00  0.00     0.132 C 
BRANCH  18  19
HETATM   19  C   UNK A   0     -24.917  -6.762 -16.203  1.00  0.00     0.276 C 
BRANCH  19  20
HETATM   20  N   UNK A   0     -24.241  -7.951 -16.716  1.00  0.00     0.078 N 
HETATM   21  H   UNK A   0     -23.526  -8.257 -16.055  1.00  0.00     0.312 HD
HETATM   22  H   UNK A   0     -23.739  -7.707 -17.570  1.00  0.00     0.312 HD
ENDBRANCH  19  20
ENDBRANCH  18  19
ENDBRANCH  15  18
ENDBRANCH   1  14
TORSDOF 8
ENDMDL
MODEL 5
REMARK VINA RESULT:      -5.9      8.760     10.843
REMARK  8 active torsions:
REMARK  status: ('A' for Active; 'I' for Inactive)
REMARK    1  A    between atoms: CG_2  and  CB_7 
REMARK    2  A    between atoms: CB_7  and  CA_8 
REMARK    3  A    between atoms: CA_8  and  C_9 
REMARK    4  A    between atoms: CA_8  and  N_12 
REMARK    5  A    between atoms: C_9  and  OXT_11 
REMARK       I    between atoms: N_12  and  C_16 
REMARK    6  A    between atoms: C_16  and  C_18 
REMARK    7  A    between atoms: C_18  and  C_19 
REMARK    8  A    between atoms: C_19  and  N_20 
ROOT
ATOM      1  CA  HIS A   1     -27.847  -6.683 -18.022  1.00  0.00     0.188 C 
ENDROOT
BRANCH   1   2
ATOM      2  CB  HIS A   1     -27.459  -6.108 -19.393  1.00  0.00     0.094 C 
BRANCH   2   3
ATOM      3  CG  HIS A   1     -26.442  -6.927 -20.130  1.00  0.00     0.028 A 
ATOM      4  CD2 HIS A   1     -26.594  -7.965 -21.026  1.00  0.00     0.114 A 
ATOM      5  NE2 HIS A   1     -25.379  -8.456 -21.422  1.00  0.00    -0.360 N 
ATOM      6  CE1 HIS A   1     -24.487  -7.720 -20.803  1.00  0.00     0.180 A 
ATOM      7  HE2 HIS A   1     -25.204  -9.231 -22.062  1.00  0.00     0.166 HD
ATOM      8  ND1 HIS A   1     -25.079  -6.752 -20.044  1.00  0.00    -0.354 N 
ATOM      9  HD1 HIS A   1     -24.585  -6.062 -19.495  1.00  0.00     0.166 HD
ENDBRANCH   2   3
ENDBRANCH   1   2
BRANCH   1  10
ATOM     10  C   HIS A   1     -26.849  -6.266 -16.938  1.00  0.00     0.163 C 
ATOM     11  O   HIS A   1     -25.637  -6.243 -17.073  1.00  0.00    -0.648 OA
BRANCH  10  12
ATOM     12  OXT HIS A   1     -27.444  -5.972 -15.753  1.00  0.00    -0.775 OA
ATOM     13  HXT HIS A   1     -27.285  -5.042 -15.467  1.00  0.00     0.167 HD
ENDBRANCH  10  12
ENDBRANCH   1  10
BRANCH   1  14
ATOM     14  N   HIS A   1     -29.207  -6.301 -17.621  1.00  0.00    -0.346 N 
HETATM   15  C   UNK A   0     -30.286  -7.105 -17.889  1.00  0.00     0.220 C 
HETATM   16  O   UNK A   0     -30.125  -8.202 -18.417  1.00  0.00    -0.274 OA
ATOM     17  H   HIS A   1     -29.309  -5.567 -16.925  1.00  0.00     0.163 HD
BRANCH  15  18
HETATM   18  C   UNK A   0     -31.617  -6.557 -17.428  1.00  0.00     0.132 C 
BRANCH  18  19
HETATM   19  C   UNK A   0     -31.461  -5.133 -16.905  1.00  0.00     0.276 C 
BRANCH  19  20
HETATM   20  N   UNK A   0     -32.758  -4.549 -16.574  1.00  0.00     0.078 N 
HETATM   21  H   UNK A   0     -33.272  -5.173 -15.952  1.00  0.00     0.312 HD
HETATM   22  H   UNK A   0     -33.320  -4.482 -17.423  1.00  0.00     0.312 HD
ENDBRANCH  19  20
ENDBRANCH  18  19
ENDBRANCH  15  18
ENDBRANCH   1  14
TORSDOF 8
ENDMDL
MODEL 6
REMARK VINA RESULT:      -5.7      2.093      6.620
REMARK  8 active torsions:
REMARK  status: ('A' for Active; 'I' for Inactive)
REMARK    1  A    between atoms: CG_2  and  CB_7 
REMARK    2  A    between atoms: CB_7  and  CA_8 
REMARK    3  A    between atoms: CA_8  and  C_9 
REMARK    4  A    between atoms: CA_8  and  N_12 
REMARK    5  A    between atoms: C_9  and  OXT_11 
REMARK       I    between atoms: N_12  and  C_16 
REMARK    6  A    between atoms: C_16  and  C_18 
REMARK    7  A    between atoms: C_18  and  C_19 
REMARK    8  A    between atoms: C_19  and  N_20 
ROOT
ATOM      1  CA  HIS A   1     -21.536  -5.091  -8.381  1.00  0.00     0.188 C 
ENDROOT
BRANCH   1   2
ATOM      2  CB  HIS A   1     -20.330  -5.706  -7.654  1.00  0.00     0.094 C 
BRANCH   2   3
ATOM      3  CG  HIS A   1     -20.679  -6.379  -6.360  1.00  0.00     0.028 A 
ATOM      4  CD2 HIS A   1     -20.625  -5.921  -5.060  1.00  0.00     0.114 A 
ATOM      5  NE2 HIS A   1     -20.998  -6.899  -4.177  1.00  0.00    -0.360 N 
ATOM      6  CE1 HIS A   1     -21.303  -7.938  -4.917  1.00  0.00     0.180 A 
ATOM      7  HE2 HIS A   1     -21.031  -6.834  -3.160  1.00  0.00     0.166 HD
ATOM      8  ND1 HIS A   1     -21.169  -7.661  -6.247  1.00  0.00    -0.354 N 
ATOM      9  HD1 HIS A   1     -21.366  -8.308  -6.998  1.00  0.00     0.166 HD
ENDBRANCH   2   3
ENDBRANCH   1   2
BRANCH   1  10
ATOM     10  C   HIS A   1     -22.211  -4.011  -7.531  1.00  0.00     0.163 C 
ATOM     11  O   HIS A   1     -21.631  -3.092  -6.975  1.00  0.00    -0.648 OA
BRANCH  10  12
ATOM     12  OXT HIS A   1     -23.548  -4.204  -7.390  1.00  0.00    -0.775 OA
ATOM     13  HXT HIS A   1     -23.999  -3.444  -6.954  1.00  0.00     0.167 HD
ENDBRANCH  10  12
ENDBRANCH   1  10
BRANCH   1  14
ATOM     14  N   HIS A   1     -21.174  -4.538  -9.693  1.00  0.00    -0.346 N 
HETATM   15  C   UNK A   0     -22.107  -4.386 -10.688  1.00  0.00     0.220 C 
HETATM   16  O   UNK A   0     -23.287  -4.651 -10.476  1.00  0.00    -0.274 OA
ATOM     17  H   HIS A   1     -20.294  -4.037  -9.772  1.00  0.00     0.163 HD
BRANCH  15  18
HETATM   18  C   UNK A   0     -21.568  -3.823 -11.983  1.00  0.00     0.132 C 
BRANCH  18  19
HETATM   19  C   UNK A   0     -22.649  -3.041 -12.721  1.00  0.00     0.276 C 
BRANCH  19  20
HETATM   20  N   UNK A   0     -22.477  -3.143 -14.168  1.00  0.00     0.078 N 
HETATM   21  H   UNK A   0     -23.388  -3.179 -14.625  1.00  0.00     0.312 HD
HETATM   22  H   UNK A   0     -22.024  -4.031 -14.388  1.00  0.00     0.312 HD
ENDBRANCH  19  20
ENDBRANCH  18  19
ENDBRANCH  15  18
ENDBRANCH   1  14
TORSDOF 8
ENDMDL
MODEL 7
REMARK VINA RESULT:      -5.6      8.512     10.368
REMARK  8 active torsions:
REMARK  status: ('A' for Active; 'I' for Inactive)
REMARK    1  A    between atoms: CG_2  and  CB_7 
REMARK    2  A    between atoms: CB_7  and  CA_8 
REMARK    3  A    between atoms: CA_8  and  C_9 
REMARK    4  A    between atoms: CA_8  and  N_12 
REMARK    5  A    between atoms: C_9  and  OXT_11 
REMARK       I    between atoms: N_12  and  C_16 
REMARK    6  A    between atoms: C_16  and  C_18 
REMARK    7  A    between atoms: C_18  and  C_19 
REMARK    8  A    between atoms: C_19  and  N_20 
ROOT
ATOM      1  CA  HIS A   1     -29.732  -6.796 -17.466  1.00  0.00     0.188 C 
ENDROOT
BRANCH   1   2
ATOM      2  CB  HIS A   1     -30.022  -5.370 -17.959  1.00  0.00     0.094 C 
BRANCH   2   3
ATOM      3  CG  HIS A   1     -31.326  -4.812 -17.472  1.00  0.00     0.028 A 
ATOM      4  CD2 HIS A   1     -31.902  -3.572 -17.654  1.00  0.00     0.114 A 
ATOM      5  NE2 HIS A   1     -33.094  -3.480 -16.987  1.00  0.00    -0.360 N 
ATOM      6  CE1 HIS A   1     -33.269  -4.651 -16.421  1.00  0.00     0.180 A 
ATOM      7  HE2 HIS A   1     -33.715  -2.672 -16.939  1.00  0.00     0.166 HD
ATOM      8  ND1 HIS A   1     -32.248  -5.506 -16.721  1.00  0.00    -0.354 N 
ATOM      9  HD1 HIS A   1     -32.183  -6.465 -16.408  1.00  0.00     0.166 HD
ENDBRANCH   2   3
ENDBRANCH   1   2
BRANCH   1  10
ATOM     10  C   HIS A   1     -30.213  -7.845 -18.473  1.00  0.00     0.163 C 
ATOM     11  O   HIS A   1     -31.377  -8.031 -18.789  1.00  0.00    -0.648 OA
BRANCH  10  12
ATOM     12  OXT HIS A   1     -29.207  -8.619 -18.956  1.00  0.00    -0.775 OA
ATOM     13  HXT HIS A   1     -29.275  -8.770 -19.928  1.00  0.00     0.167 HD
ENDBRANCH  10  12
ENDBRANCH   1  10
BRANCH   1  14
ATOM     14  N   HIS A   1     -28.309  -7.007 -17.170  1.00  0.00    -0.346 N 
HETATM   15  C   UNK A   0     -27.809  -6.840 -15.903  1.00  0.00     0.220 C 
HETATM   16  O   UNK A   0     -28.561  -6.573 -14.970  1.00  0.00    -0.274 OA
ATOM     17  H   HIS A   1     -27.753  -7.519 -17.848  1.00  0.00     0.163 HD
BRANCH  15  18
HETATM   18  C   UNK A   0     -26.322  -7.075 -15.772  1.00  0.00     0.132 C 
BRANCH  18  19
HETATM   19  C   UNK A   0     -25.593  -6.631 -17.035  1.00  0.00     0.276 C 
BRANCH  19  20
HETATM   20  N   UNK A   0     -24.419  -7.464 -17.286  1.00  0.00     0.078 N 
HETATM   21  H   UNK A   0     -24.554  -8.387 -16.875  1.00  0.00     0.312 HD
HETATM   22  H   UNK A   0     -23.615  -7.061 -16.802  1.00  0.00     0.312 HD
ENDBRANCH  19  20
ENDBRANCH  18  19
ENDBRANCH  15  18
ENDBRANCH   1  14
TORSDOF 8
ENDMDL
MODEL 8
REMARK VINA RESULT:      -5.6      3.611      5.635
REMARK  8 active torsions:
REMARK  status: ('A' for Active; 'I' for Inactive)
REMARK    1  A    between atoms: CG_2  and  CB_7 
REMARK    2  A    between atoms: CB_7  and  CA_8 
REMARK    3  A    between atoms: CA_8  and  C_9 
REMARK    4  A    between atoms: CA_8  and  N_12 
REMARK    5  A    between atoms: C_9  and  OXT_11 
REMARK       I    between atoms: N_12  and  C_16 
REMARK    6  A    between atoms: C_16  and  C_18 
REMARK    7  A    between atoms: C_18  and  C_19 
REMARK    8  A    between atoms: C_19  and  N_20 
ROOT
ATOM      1  CA  HIS A   1     -21.360  -5.350  -6.594  1.00  0.00     0.188 C 
ENDROOT
BRANCH   1   2
ATOM      2  CB  HIS A   1     -21.873  -4.029  -7.188  1.00  0.00     0.094 C 
BRANCH   2   3
ATOM      3  CG  HIS A   1     -22.759  -4.204  -8.385  1.00  0.00     0.028 A 
ATOM      4  CD2 HIS A   1     -22.502  -4.745  -9.628  1.00  0.00     0.114 A 
ATOM      5  NE2 HIS A   1     -23.601  -4.659 -10.440  1.00  0.00    -0.360 N 
ATOM      6  CE1 HIS A   1     -24.533  -4.099  -9.706  1.00  0.00     0.180 A 
ATOM      7  HE2 HIS A   1     -23.679  -4.966 -11.409  1.00  0.00     0.166 HD
ATOM      8  ND1 HIS A   1     -24.087  -3.845  -8.441  1.00  0.00    -0.354 N 
ATOM      9  HD1 HIS A   1     -24.640  -3.433  -7.702  1.00  0.00     0.166 HD
ENDBRANCH   2   3
ENDBRANCH   1   2
BRANCH   1  10
ATOM     10  C   HIS A   1     -19.980  -5.714  -7.148  1.00  0.00     0.163 C 
ATOM     11  O   HIS A   1     -19.467  -6.819  -7.082  1.00  0.00    -0.648 OA
BRANCH  10  12
ATOM     12  OXT HIS A   1     -19.324  -4.651  -7.683  1.00  0.00    -0.775 OA
ATOM     13  HXT HIS A   1     -18.685  -4.912  -8.386  1.00  0.00     0.167 HD
ENDBRANCH  10  12
ENDBRANCH   1  10
BRANCH   1  14
ATOM     14  N   HIS A   1     -21.316  -5.323  -5.126  1.00  0.00    -0.346 N 
HETATM   15  C   UNK A   0     -21.692  -6.410  -4.378  1.00  0.00     0.220 C 
HETATM   16  O   UNK A   0     -22.012  -7.460  -4.927  1.00  0.00    -0.274 OA
ATOM     17  H   HIS A   1     -20.770  -4.591  -4.680  1.00  0.00     0.163 HD
BRANCH  15  18
HETATM   18  C   UNK A   0     -21.607  -6.210  -2.882  1.00  0.00     0.132 C 
BRANCH  18  19
HETATM   19  C   UNK A   0     -21.582  -7.554  -2.160  1.00  0.00     0.276 C 
BRANCH  19  20
HETATM   20  N   UNK A   0     -20.323  -8.255  -2.399  1.00  0.00     0.078 N 
HETATM   21  H   UNK A   0     -20.248  -8.511  -3.384  1.00  0.00     0.312 HD
HETATM   22  H   UNK A   0     -20.330  -9.137  -1.885  1.00  0.00     0.312 HD
ENDBRANCH  19  20
ENDBRANCH  18  19
ENDBRANCH  15  18
ENDBRANCH   1  14
TORSDOF 8
ENDMDL
MODEL 9
REMARK VINA RESULT:      -5.5      1.704      5.812
REMARK  8 active torsions:
REMARK  status: ('A' for Active; 'I' for Inactive)
REMARK    1  A    between atoms: CG_2  and  CB_7 
REMARK    2  A    between atoms: CB_7  and  CA_8 
REMARK    3  A    between atoms: CA_8  and  C_9 
REMARK    4  A    between atoms: CA_8  and  N_12 
REMARK    5  A    between atoms: C_9  and  OXT_11 
REMARK       I    between atoms: N_12  and  C_16 
REMARK    6  A    between atoms: C_16  and  C_18 
REMARK    7  A    between atoms: C_18  and  C_19 
REMARK    8  A    between atoms: C_19  and  N_20 
ROOT
ATOM      1  CA  HIS A   1     -23.042  -3.908  -9.824  1.00  0.00     0.188 C 
ENDROOT
BRANCH   1   2
ATOM      2  CB  HIS A   1     -22.232  -3.398  -8.622  1.00  0.00     0.094 C 
BRANCH   2   3
ATOM      3  CG  HIS A   1     -21.548  -4.483  -7.845  1.00  0.00     0.028 A 
ATOM      4  CD2 HIS A   1     -21.934  -5.160  -6.707  1.00  0.00     0.114 A 
ATOM      5  NE2 HIS A   1     -20.970  -6.049  -6.312  1.00  0.00    -0.360 N 
ATOM      6  CE1 HIS A   1     -20.013  -5.944  -7.204  1.00  0.00     0.180 A 
ATOM      7  HE2 HIS A   1     -20.991  -6.661  -5.497  1.00  0.00     0.166 HD
ATOM      8  ND1 HIS A   1     -20.334  -5.042  -8.177  1.00  0.00    -0.354 N 
ATOM      9  HD1 HIS A   1     -19.753  -4.814  -8.972  1.00  0.00     0.166 HD
ENDBRANCH   2   3
ENDBRANCH   1   2
BRANCH   1  10
ATOM     10  C   HIS A   1     -24.547  -3.754  -9.591  1.00  0.00     0.163 C 
ATOM     11  O   HIS A   1     -25.133  -2.690  -9.473  1.00  0.00    -0.648 OA
BRANCH  10  12
ATOM     12  OXT HIS A   1     -25.189  -4.944  -9.459  1.00  0.00    -0.775 OA
ATOM     13  HXT HIS A   1     -26.133  -4.901  -9.740  1.00  0.00     0.167 HD
ENDBRANCH  10  12
ENDBRANCH   1  10
BRANCH   1  14
ATOM     14  N   HIS A   1     -22.661  -3.242 -11.077  1.00  0.00    -0.346 N 
HETATM   15  C   UNK A   0     -23.109  -3.694 -12.293  1.00  0.00     0.220 C 
HETATM   16  O   UNK A   0     -23.898  -4.633 -12.353  1.00  0.00    -0.274 OA
ATOM     17  H   HIS A   1     -22.277  -2.304 -11.019  1.00  0.00     0.163 HD
BRANCH  15  18
HETATM   18  C   UNK A   0     -22.609  -2.910 -13.485  1.00  0.00     0.132 C 
BRANCH  18  19
HETATM   19  C   UNK A   0     -23.748  -2.128 -14.131  1.00  0.00     0.276 C 
BRANCH  19  20
HETATM   20  N   UNK A   0     -23.287  -1.413 -15.319  1.00  0.00     0.078 N 
HETATM   21  H   UNK A   0     -22.582  -1.966 -15.807  1.00  0.00     0.312 HD
HETATM   22  H   UNK A   0     -22.812  -0.557 -15.029  1.00  0.00     0.312 HD
ENDBRANCH  19  20
ENDBRANCH  18  19
ENDBRANCH  15  18
ENDBRANCH   1  14
TORSDOF 8
ENDMDL
