MODEL 1
REMARK VINA RESULT:      -6.8      0.000      0.000
REMARK  13 active torsions:
REMARK  status: ('A' for Active; 'I' for Inactive)
REMARK    1  A    between atoms: C_2  and  C_3 
REMARK    2  A    between atoms: C_3  and  C_4 
REMARK    3  A    between atoms: C_4  and  C_5 
REMARK    4  A    between atoms: C_5  and  C_6 
REMARK    5  A    between atoms: C_6  and  O_7 
REMARK    6  A    between atoms: O_7  and  C_8 
REMARK    7  A    between atoms: C_8  and  C_10 
REMARK    8  A    between atoms: C_15  and  C_16 
REMARK    9  A    between atoms: C_16  and  C_18 
REMARK   10  A    between atoms: C_19  and  O_29 
REMARK   11  A    between atoms: C_21  and  N_24 
REMARK   12  A    between atoms: N_24  and  C_25 
REMARK   13  A    between atoms: N_24  and  C_27 
ROOT
HETATM    1  C   UNL     1     -22.710  -9.294  -0.829  1.00  0.00     0.053 A 
HETATM    2  C   UNL     1     -23.626 -10.242  -0.346  1.00  0.00     0.018 A 
HETATM    3  C   UNL     1     -23.934 -11.375  -1.103  1.00  0.00     0.001 A 
HETATM    4  C   UNL     1     -23.334 -11.558  -2.347  1.00  0.00     0.001 A 
HETATM    5  C   UNL     1     -22.373 -10.652  -2.808  1.00  0.00     0.016 A 
HETATM    6  C   UNL     1     -22.027  -9.540  -2.028  1.00  0.00     0.031 A 
ENDROOT
BRANCH   6   7
HETATM    7  C   UNL     1     -20.912  -8.685  -2.503  1.00  0.00     0.196 C 
HETATM    8  O   UNL     1     -19.868  -8.643  -1.860  1.00  0.00    -0.287 OA
BRANCH   7   9
HETATM    9  C   UNL     1     -21.055  -7.864  -3.742  1.00  0.00     0.048 A 
HETATM   10  C   UNL     1     -20.107  -7.958  -4.761  1.00  0.00     0.082 A 
HETATM   11  C   UNL     1     -20.212  -7.158  -5.904  1.00  0.00     0.066 A 
HETATM   12  C   UNL     1     -21.265  -6.243  -6.073  1.00  0.00     0.032 A 
HETATM   13  C   UNL     1     -22.241  -6.214  -5.069  1.00  0.00     0.030 A 
HETATM   14  C   UNL     1     -22.126  -6.982  -3.905  1.00  0.00     0.020 A 
BRANCH  10  15
HETATM   15  O   UNL     1     -19.042  -8.819  -4.713  1.00  0.00    -0.360 OA
HETATM   16  H   UNL     1     -18.626  -8.730  -3.826  1.00  0.00     0.217 HD
ENDBRANCH  10  15
BRANCH  12  17
HETATM   17  N   UNL     1     -21.308  -5.365  -7.147  1.00  0.00    -0.382 N 
BRANCH  17  18
HETATM   18  C   UNL     1     -20.220  -5.298  -8.127  1.00  0.00     0.118 C 
HETATM   19  C   UNL     1     -19.173  -4.255  -7.767  1.00  0.00     0.026 C 
ENDBRANCH  17  18
BRANCH  17  20
HETATM   20  C   UNL     1     -22.463  -4.478  -7.330  1.00  0.00     0.118 C 
HETATM   21  C   UNL     1     -22.807  -4.307  -8.807  1.00  0.00     0.026 C 
ENDBRANCH  17  20
ENDBRANCH  12  17
ENDBRANCH   7   9
ENDBRANCH   6   7
BRANCH   1  22
HETATM   22  C   UNL     1     -22.654  -8.012  -0.089  1.00  0.00     0.294 C 
HETATM   23  O   UNL     1     -22.742  -6.923  -0.625  1.00  0.00    -0.259 OA
BRANCH  22  24
HETATM   24  O   UNL     1     -22.243  -8.264   1.175  1.00  0.00    -0.317 OA
BRANCH  24  25
HETATM   25  C   UNL     1     -20.848  -8.524   1.352  1.00  0.00     0.179 C 
BRANCH  25  26
HETATM   26  C   UNL     1     -20.506  -9.913   1.868  1.00  0.00     0.027 C 
BRANCH  26  27
HETATM   27  C   UNL     1     -19.931 -10.828   0.790  1.00  0.00     0.002 C 
BRANCH  27  28
HETATM   28  C   UNL     1     -20.783 -12.092   0.672  1.00  0.00    -0.000 C 
BRANCH  28  29
HETATM   29  C   UNL     1     -20.404 -12.916  -0.554  1.00  0.00    -0.005 C 
HETATM   30  C   UNL     1     -21.143 -14.244  -0.569  1.00  0.00     0.005 C 
ENDBRANCH  28  29
ENDBRANCH  27  28
ENDBRANCH  26  27
ENDBRANCH  25  26
ENDBRANCH  24  25
ENDBRANCH  22  24
ENDBRANCH   1  22
TORSDOF 13
ENDMDL
MODEL 2
REMARK VINA RESULT:      -6.7      1.530      2.556
REMARK  13 active torsions:
REMARK  status: ('A' for Active; 'I' for Inactive)
REMARK    1  A    between atoms: C_2  and  C_3 
REMARK    2  A    between atoms: C_3  and  C_4 
REMARK    3  A    between atoms: C_4  and  C_5 
REMARK    4  A    between atoms: C_5  and  C_6 
REMARK    5  A    between atoms: C_6  and  O_7 
REMARK    6  A    between atoms: O_7  and  C_8 
REMARK    7  A    between atoms: C_8  and  C_10 
REMARK    8  A    between atoms: C_15  and  C_16 
REMARK    9  A    between atoms: C_16  and  C_18 
REMARK   10  A    between atoms: C_19  and  O_29 
REMARK   11  A    between atoms: C_21  and  N_24 
REMARK   12  A    between atoms: N_24  and  C_25 
REMARK   13  A    between atoms: N_24  and  C_27 
ROOT
HETATM    1  C   UNL     1     -22.342 -10.489  -2.143  1.00  0.00     0.053 A 
HETATM    2  C   UNL     1     -23.471 -10.830  -1.380  1.00  0.00     0.018 A 
HETATM    3  C   UNL     1     -23.762 -10.137  -0.203  1.00  0.00     0.001 A 
HETATM    4  C   UNL     1     -22.922  -9.110   0.220  1.00  0.00     0.001 A 
HETATM    5  C   UNL     1     -21.830  -8.722  -0.565  1.00  0.00     0.016 A 
HETATM    6  C   UNL     1     -21.564  -9.384  -1.772  1.00  0.00     0.031 A 
ENDROOT
BRANCH   6   7
HETATM    7  C   UNL     1     -20.477  -8.848  -2.626  1.00  0.00     0.196 C 
HETATM    8  O   UNL     1     -19.311  -9.129  -2.366  1.00  0.00    -0.287 OA
BRANCH   7   9
HETATM    9  C   UNL     1     -20.785  -7.957  -3.783  1.00  0.00     0.048 A 
HETATM   10  C   UNL     1     -20.449  -8.347  -5.080  1.00  0.00     0.082 A 
HETATM   11  C   UNL     1     -20.697  -7.496  -6.163  1.00  0.00     0.066 A 
HETATM   12  C   UNL     1     -21.289  -6.234  -5.993  1.00  0.00     0.032 A 
HETATM   13  C   UNL     1     -21.679  -5.892  -4.693  1.00  0.00     0.030 A 
HETATM   14  C   UNL     1     -21.404  -6.718  -3.597  1.00  0.00     0.020 A 
BRANCH  10  15
HETATM   15  O   UNL     1     -19.876  -9.557  -5.370  1.00  0.00    -0.360 OA
HETATM   16  H   UNL     1     -20.051  -9.750  -6.318  1.00  0.00     0.217 HD
ENDBRANCH  10  15
BRANCH  12  17
HETATM   17  N   UNL     1     -21.426  -5.341  -7.046  1.00  0.00    -0.382 N 
BRANCH  17  18
HETATM   18  C   UNL     1     -20.398  -5.215  -8.085  1.00  0.00     0.118 C 
HETATM   19  C   UNL     1     -19.188  -4.423  -7.615  1.00  0.00     0.026 C 
ENDBRANCH  17  18
BRANCH  17  20
HETATM   20  C   UNL     1     -22.623  -4.498  -7.149  1.00  0.00     0.118 C 
HETATM   21  C   UNL     1     -22.935  -4.145  -8.601  1.00  0.00     0.026 C 
ENDBRANCH  17  20
ENDBRANCH  12  17
ENDBRANCH   7   9
ENDBRANCH   6   7
BRANCH   1  22
HETATM   22  C   UNL     1     -21.972 -11.444  -3.213  1.00  0.00     0.294 C 
HETATM   23  O   UNL     1     -22.211 -11.257  -4.392  1.00  0.00    -0.259 OA
BRANCH  22  24
HETATM   24  O   UNL     1     -21.588 -12.607  -2.637  1.00  0.00    -0.317 OA
BRANCH  24  25
HETATM   25  C   UNL     1     -20.203 -12.729  -2.305  1.00  0.00     0.179 C 
BRANCH  25  26
HETATM   26  C   UNL     1     -19.913 -13.210  -0.892  1.00  0.00     0.027 C 
BRANCH  26  27
HETATM   27  C   UNL     1     -19.837 -12.073   0.125  1.00  0.00     0.002 C 
BRANCH  27  28
HETATM   28  C   UNL     1     -21.075 -12.093   1.021  1.00  0.00    -0.000 C 
BRANCH  28  29
HETATM   29  C   UNL     1     -21.721 -13.473   1.061  1.00  0.00    -0.005 C 
HETATM   30  C   UNL     1     -23.196 -13.376   1.418  1.00  0.00     0.005 C 
ENDBRANCH  28  29
ENDBRANCH  27  28
ENDBRANCH  26  27
ENDBRANCH  25  26
ENDBRANCH  24  25
ENDBRANCH  22  24
ENDBRANCH   1  22
TORSDOF 13
ENDMDL
MODEL 3
REMARK VINA RESULT:      -6.6      3.640      7.747
REMARK  13 active torsions:
REMARK  status: ('A' for Active; 'I' for Inactive)
REMARK    1  A    between atoms: C_2  and  C_3 
REMARK    2  A    between atoms: C_3  and  C_4 
REMARK    3  A    between atoms: C_4  and  C_5 
REMARK    4  A    between atoms: C_5  and  C_6 
REMARK    5  A    between atoms: C_6  and  O_7 
REMARK    6  A    between atoms: O_7  and  C_8 
REMARK    7  A    between atoms: C_8  and  C_10 
REMARK    8  A    between atoms: C_15  and  C_16 
REMARK    9  A    between atoms: C_16  and  C_18 
REMARK   10  A    between atoms: C_19  and  O_29 
REMARK   11  A    between atoms: C_21  and  N_24 
REMARK   12  A    between atoms: N_24  and  C_25 
REMARK   13  A    between atoms: N_24  and  C_27 
ROOT
HETATM    1  C   UNL     1     -21.550  -6.898  -3.519  1.00  0.00     0.053 A 
HETATM    2  C   UNL     1     -21.918  -6.266  -2.320  1.00  0.00     0.018 A 
HETATM    3  C   UNL     1     -22.127  -7.018  -1.162  1.00  0.00     0.001 A 
HETATM    4  C   UNL     1     -21.979  -8.403  -1.201  1.00  0.00     0.001 A 
HETATM    5  C   UNL     1     -21.551  -9.034  -2.374  1.00  0.00     0.016 A 
HETATM    6  C   UNL     1     -21.293  -8.276  -3.524  1.00  0.00     0.031 A 
ENDROOT
BRANCH   6   7
HETATM    7  C   UNL     1     -20.718  -8.977  -4.697  1.00  0.00     0.196 C 
HETATM    8  O   UNL     1     -21.382  -9.080  -5.724  1.00  0.00    -0.287 OA
BRANCH   7   9
HETATM    9  C   UNL     1     -19.352  -9.576  -4.634  1.00  0.00     0.048 A 
HETATM   10  C   UNL     1     -19.002 -10.620  -5.490  1.00  0.00     0.082 A 
HETATM   11  C   UNL     1     -17.737 -11.213  -5.405  1.00  0.00     0.066 A 
HETATM   12  C   UNL     1     -16.779 -10.784  -4.470  1.00  0.00     0.032 A 
HETATM   13  C   UNL     1     -17.129  -9.691  -3.668  1.00  0.00     0.030 A 
HETATM   14  C   UNL     1     -18.402  -9.114  -3.719  1.00  0.00     0.020 A 
BRANCH  10  15
HETATM   15  O   UNL     1     -19.848 -11.117  -6.446  1.00  0.00    -0.360 OA
HETATM   16  H   UNL     1     -20.302 -11.900  -6.064  1.00  0.00     0.217 HD
ENDBRANCH  10  15
BRANCH  12  17
HETATM   17  N   UNL     1     -15.572 -11.446  -4.303  1.00  0.00    -0.382 N 
BRANCH  17  18
HETATM   18  C   UNL     1     -14.640 -11.638  -5.418  1.00  0.00     0.118 C 
HETATM   19  C   UNL     1     -13.409 -12.438  -5.020  1.00  0.00     0.026 C 
ENDBRANCH  17  18
BRANCH  17  20
HETATM   20  C   UNL     1     -15.193 -11.969  -2.984  1.00  0.00     0.118 C 
HETATM   21  C   UNL     1     -16.219 -12.972  -2.465  1.00  0.00     0.026 C 
ENDBRANCH  17  20
ENDBRANCH  12  17
ENDBRANCH   7   9
ENDBRANCH   6   7
BRANCH   1  22
HETATM   22  C   UNL     1     -21.615  -6.059  -4.739  1.00  0.00     0.294 C 
HETATM   23  O   UNL     1     -22.628  -5.906  -5.395  1.00  0.00    -0.259 OA
BRANCH  22  24
HETATM   24  O   UNL     1     -20.352  -5.741  -5.107  1.00  0.00    -0.317 OA
BRANCH  24  25
HETATM   25  C   UNL     1     -20.053  -5.825  -6.502  1.00  0.00     0.179 C 
BRANCH  25  26
HETATM   26  C   UNL     1     -19.302  -4.635  -7.079  1.00  0.00     0.027 C 
BRANCH  26  27
HETATM   27  C   UNL     1     -19.757  -4.267  -8.490  1.00  0.00     0.002 C 
BRANCH  27  28
HETATM   28  C   UNL     1     -21.284  -4.247  -8.557  1.00  0.00    -0.000 C 
BRANCH  28  29
HETATM   29  C   UNL     1     -21.787  -4.341  -9.993  1.00  0.00    -0.005 C 
HETATM   30  C   UNL     1     -20.781  -3.746 -10.965  1.00  0.00     0.005 C 
ENDBRANCH  28  29
ENDBRANCH  27  28
ENDBRANCH  26  27
ENDBRANCH  25  26
ENDBRANCH  24  25
ENDBRANCH  22  24
ENDBRANCH   1  22
TORSDOF 13
ENDMDL
MODEL 4
REMARK VINA RESULT:      -6.5      3.444      6.069
REMARK  13 active torsions:
REMARK  status: ('A' for Active; 'I' for Inactive)
REMARK    1  A    between atoms: C_2  and  C_3 
REMARK    2  A    between atoms: C_3  and  C_4 
REMARK    3  A    between atoms: C_4  and  C_5 
REMARK    4  A    between atoms: C_5  and  C_6 
REMARK    5  A    between atoms: C_6  and  O_7 
REMARK    6  A    between atoms: O_7  and  C_8 
REMARK    7  A    between atoms: C_8  and  C_10 
REMARK    8  A    between atoms: C_15  and  C_16 
REMARK    9  A    between atoms: C_16  and  C_18 
REMARK   10  A    between atoms: C_19  and  O_29 
REMARK   11  A    between atoms: C_21  and  N_24 
REMARK   12  A    between atoms: N_24  and  C_25 
REMARK   13  A    between atoms: N_24  and  C_27 
ROOT
HETATM    1  C   UNL     1     -21.249 -10.656   0.465  1.00  0.00     0.053 A 
HETATM    2  C   UNL     1     -20.673  -9.662   1.273  1.00  0.00     0.018 A 
HETATM    3  C   UNL     1     -21.287  -8.415   1.403  1.00  0.00     0.001 A 
HETATM    4  C   UNL     1     -22.472  -8.154   0.719  1.00  0.00     0.001 A 
HETATM    5  C   UNL     1     -23.087  -9.158  -0.038  1.00  0.00     0.016 A 
HETATM    6  C   UNL     1     -22.497 -10.426  -0.130  1.00  0.00     0.031 A 
ENDROOT
BRANCH   6   7
HETATM    7  C   UNL     1     -23.255 -11.488  -0.835  1.00  0.00     0.196 C 
HETATM    8  O   UNL     1     -24.224 -12.004  -0.285  1.00  0.00    -0.287 OA
BRANCH   7   9
HETATM    9  C   UNL     1     -22.841 -11.948  -2.193  1.00  0.00     0.048 A 
HETATM   10  C   UNL     1     -22.471 -13.276  -2.403  1.00  0.00     0.082 A 
HETATM   11  C   UNL     1     -22.040 -13.702  -3.664  1.00  0.00     0.066 A 
HETATM   12  C   UNL     1     -21.968 -12.823  -4.758  1.00  0.00     0.032 A 
HETATM   13  C   UNL     1     -22.408 -11.512  -4.541  1.00  0.00     0.030 A 
HETATM   14  C   UNL     1     -22.806 -11.065  -3.276  1.00  0.00     0.020 A 
BRANCH  10  15
HETATM   15  O   UNL     1     -22.508 -14.226  -1.416  1.00  0.00    -0.360 OA
HETATM   16  H   UNL     1     -22.812 -15.067  -1.823  1.00  0.00     0.217 HD
ENDBRANCH  10  15
BRANCH  12  17
HETATM   17  N   UNL     1     -21.429 -13.211  -5.976  1.00  0.00    -0.382 N 
BRANCH  17  18
HETATM   18  C   UNL     1     -20.933 -12.229  -6.945  1.00  0.00     0.118 C 
HETATM   19  C   UNL     1     -19.686 -12.707  -7.673  1.00  0.00     0.026 C 
ENDBRANCH  17  18
BRANCH  17  20
HETATM   20  C   UNL     1     -21.338 -14.635  -6.323  1.00  0.00     0.118 C 
HETATM   21  C   UNL     1     -22.681 -15.183  -6.796  1.00  0.00     0.026 C 
ENDBRANCH  17  20
ENDBRANCH  12  17
ENDBRANCH   7   9
ENDBRANCH   6   7
BRANCH   1  22
HETATM   22  C   UNL     1     -20.397 -11.833   0.179  1.00  0.00     0.294 C 
HETATM   23  O   UNL     1     -20.624 -12.948   0.612  1.00  0.00    -0.259 OA
BRANCH  22  24
HETATM   24  O   UNL     1     -19.248 -11.402  -0.391  1.00  0.00    -0.317 OA
BRANCH  24  25
HETATM   25  C   UNL     1     -19.253 -11.267  -1.814  1.00  0.00     0.179 C 
BRANCH  25  26
HETATM   26  C   UNL     1     -18.720  -9.945  -2.344  1.00  0.00     0.027 C 
BRANCH  26  27
HETATM   27  C   UNL     1     -19.755  -9.159  -3.145  1.00  0.00     0.002 C 
BRANCH  27  28
HETATM   28  C   UNL     1     -20.342  -8.041  -2.284  1.00  0.00    -0.000 C 
BRANCH  28  29
HETATM   29  C   UNL     1     -21.508  -7.346  -2.978  1.00  0.00    -0.005 C 
HETATM   30  C   UNL     1     -22.020  -6.179  -2.150  1.00  0.00     0.005 C 
ENDBRANCH  28  29
ENDBRANCH  27  28
ENDBRANCH  26  27
ENDBRANCH  25  26
ENDBRANCH  24  25
ENDBRANCH  22  24
ENDBRANCH   1  22
TORSDOF 13
ENDMDL
MODEL 5
REMARK VINA RESULT:      -6.5      2.054      3.883
REMARK  13 active torsions:
REMARK  status: ('A' for Active; 'I' for Inactive)
REMARK    1  A    between atoms: C_2  and  C_3 
REMARK    2  A    between atoms: C_3  and  C_4 
REMARK    3  A    between atoms: C_4  and  C_5 
REMARK    4  A    between atoms: C_5  and  C_6 
REMARK    5  A    between atoms: C_6  and  O_7 
REMARK    6  A    between atoms: O_7  and  C_8 
REMARK    7  A    between atoms: C_8  and  C_10 
REMARK    8  A    between atoms: C_15  and  C_16 
REMARK    9  A    between atoms: C_16  and  C_18 
REMARK   10  A    between atoms: C_19  and  O_29 
REMARK   11  A    between atoms: C_21  and  N_24 
REMARK   12  A    between atoms: N_24  and  C_25 
REMARK   13  A    between atoms: N_24  and  C_27 
ROOT
HETATM    1  C   UNL     1     -20.978  -7.525  -3.420  1.00  0.00     0.053 A 
HETATM    2  C   UNL     1     -20.746  -8.863  -3.065  1.00  0.00     0.018 A 
HETATM    3  C   UNL     1     -20.079  -9.720  -3.943  1.00  0.00     0.001 A 
HETATM    4  C   UNL     1     -19.650  -9.245  -5.180  1.00  0.00     0.001 A 
HETATM    5  C   UNL     1     -19.820  -7.897  -5.517  1.00  0.00     0.016 A 
HETATM    6  C   UNL     1     -20.447  -7.024  -4.617  1.00  0.00     0.031 A 
ENDROOT
BRANCH   6   7
HETATM    7  C   UNL     1     -20.483  -5.583  -4.967  1.00  0.00     0.196 C 
HETATM    8  O   UNL     1     -20.115  -4.752  -4.143  1.00  0.00    -0.287 OA
BRANCH   7   9
HETATM    9  C   UNL     1     -20.980  -5.136  -6.302  1.00  0.00     0.048 A 
HETATM   10  C   UNL     1     -22.348  -5.131  -6.576  1.00  0.00     0.082 A 
HETATM   11  C   UNL     1     -22.817  -4.753  -7.840  1.00  0.00     0.066 A 
HETATM   12  C   UNL     1     -21.941  -4.364  -8.868  1.00  0.00     0.032 A 
HETATM   13  C   UNL     1     -20.579  -4.311  -8.549  1.00  0.00     0.030 A 
HETATM   14  C   UNL     1     -20.096  -4.721  -7.301  1.00  0.00     0.020 A 
BRANCH  10  15
HETATM   15  O   UNL     1     -23.297  -5.482  -5.652  1.00  0.00    -0.360 OA
HETATM   16  H   UNL     1     -24.166  -5.502  -6.110  1.00  0.00     0.217 HD
ENDBRANCH  10  15
BRANCH  12  17
HETATM   17  N   UNL     1     -22.392  -4.105 -10.154  1.00  0.00    -0.382 N 
BRANCH  17  18
HETATM   18  C   UNL     1     -21.515  -3.518 -11.172  1.00  0.00     0.118 C 
HETATM   19  C   UNL     1     -22.258  -3.170 -12.453  1.00  0.00     0.026 C 
ENDBRANCH  17  18
BRANCH  17  20
HETATM   20  C   UNL     1     -23.775  -4.424 -10.531  1.00  0.00     0.118 C 
HETATM   21  C   UNL     1     -24.752  -3.372 -10.014  1.00  0.00     0.026 C 
ENDBRANCH  17  20
ENDBRANCH  12  17
ENDBRANCH   7   9
ENDBRANCH   6   7
BRANCH   1  22
HETATM   22  C   UNL     1     -21.918  -6.777  -2.552  1.00  0.00     0.294 C 
HETATM   23  O   UNL     1     -22.800  -6.057  -2.981  1.00  0.00    -0.259 OA
BRANCH  22  24
HETATM   24  O   UNL     1     -21.462  -6.835  -1.279  1.00  0.00    -0.317 OA
BRANCH  24  25
HETATM   25  C   UNL     1     -22.346  -7.401  -0.309  1.00  0.00     0.179 C 
BRANCH  25  26
HETATM   26  C   UNL     1     -21.704  -8.378   0.664  1.00  0.00     0.027 C 
BRANCH  26  27
HETATM   27  C   UNL     1     -21.951  -9.840   0.297  1.00  0.00     0.002 C 
BRANCH  27  28
HETATM   28  C   UNL     1     -23.368 -10.005  -0.254  1.00  0.00    -0.000 C 
BRANCH  28  29
HETATM   29  C   UNL     1     -23.409 -10.988  -1.418  1.00  0.00    -0.005 C 
HETATM   30  C   UNL     1     -23.891 -12.356  -0.962  1.00  0.00     0.005 C 
ENDBRANCH  28  29
ENDBRANCH  27  28
ENDBRANCH  26  27
ENDBRANCH  25  26
ENDBRANCH  24  25
ENDBRANCH  22  24
ENDBRANCH   1  22
TORSDOF 13
ENDMDL
MODEL 6
REMARK VINA RESULT:      -6.3      3.319      9.734
REMARK  13 active torsions:
REMARK  status: ('A' for Active; 'I' for Inactive)
REMARK    1  A    between atoms: C_2  and  C_3 
REMARK    2  A    between atoms: C_3  and  C_4 
REMARK    3  A    between atoms: C_4  and  C_5 
REMARK    4  A    between atoms: C_5  and  C_6 
REMARK    5  A    between atoms: C_6  and  O_7 
REMARK    6  A    between atoms: O_7  and  C_8 
REMARK    7  A    between atoms: C_8  and  C_10 
REMARK    8  A    between atoms: C_15  and  C_16 
REMARK    9  A    between atoms: C_16  and  C_18 
REMARK   10  A    between atoms: C_19  and  O_29 
REMARK   11  A    between atoms: C_21  and  N_24 
REMARK   12  A    between atoms: N_24  and  C_25 
REMARK   13  A    between atoms: N_24  and  C_27 
ROOT
HETATM    1  C   UNL     1     -21.403  -4.653  -7.789  1.00  0.00     0.053 A 
HETATM    2  C   UNL     1     -20.346  -4.195  -8.592  1.00  0.00     0.018 A 
HETATM    3  C   UNL     1     -19.053  -4.107  -8.073  1.00  0.00     0.001 A 
HETATM    4  C   UNL     1     -18.813  -4.468  -6.749  1.00  0.00     0.001 A 
HETATM    5  C   UNL     1     -19.847  -4.985  -5.961  1.00  0.00     0.016 A 
HETATM    6  C   UNL     1     -21.136  -5.119  -6.495  1.00  0.00     0.031 A 
ENDROOT
BRANCH   6   7
HETATM    7  C   UNL     1     -22.160  -5.793  -5.660  1.00  0.00     0.196 C 
HETATM    8  O   UNL     1     -23.349  -5.614  -5.903  1.00  0.00    -0.287 OA
BRANCH   7   9
HETATM    9  C   UNL     1     -21.759  -6.668  -4.519  1.00  0.00     0.048 A 
HETATM   10  C   UNL     1     -21.394  -7.995  -4.745  1.00  0.00     0.082 A 
HETATM   11  C   UNL     1     -21.059  -8.832  -3.674  1.00  0.00     0.066 A 
HETATM   12  C   UNL     1     -21.072  -8.375  -2.346  1.00  0.00     0.032 A 
HETATM   13  C   UNL     1     -21.376  -7.022  -2.148  1.00  0.00     0.030 A 
HETATM   14  C   UNL     1     -21.748  -6.186  -3.207  1.00  0.00     0.020 A 
BRANCH  10  15
HETATM   15  O   UNL     1     -21.335  -8.551  -5.997  1.00  0.00    -0.360 OA
HETATM   16  H   UNL     1     -20.596  -8.119  -6.480  1.00  0.00     0.217 HD
ENDBRANCH  10  15
BRANCH  12  17
HETATM   17  N   UNL     1     -20.858  -9.230  -1.275  1.00  0.00    -0.382 N 
BRANCH  17  18
HETATM   18  C   UNL     1     -19.997 -10.411  -1.395  1.00  0.00     0.118 C 
HETATM   19  C   UNL     1     -20.078 -11.319  -0.178  1.00  0.00     0.026 C 
ENDBRANCH  17  18
BRANCH  17  20
HETATM   20  C   UNL     1     -21.491  -8.963   0.023  1.00  0.00     0.118 C 
HETATM   21  C   UNL     1     -22.990  -9.243  -0.019  1.00  0.00     0.026 C 
ENDBRANCH  17  20
ENDBRANCH  12  17
ENDBRANCH   7   9
ENDBRANCH   6   7
BRANCH   1  22
HETATM   22  C   UNL     1     -22.766  -4.457  -8.337  1.00  0.00     0.294 C 
HETATM   23  O   UNL     1     -23.628  -3.808  -7.774  1.00  0.00    -0.259 OA
BRANCH  22  24
HETATM   24  O   UNL     1     -22.935  -5.305  -9.377  1.00  0.00    -0.317 OA
BRANCH  24  25
HETATM   25  C   UNL     1     -23.922  -4.940 -10.345  1.00  0.00     0.179 C 
BRANCH  25  26
HETATM   26  C   UNL     1     -23.449  -4.947 -11.790  1.00  0.00     0.027 C 
BRANCH  26  27
HETATM   27  C   UNL     1     -22.317  -3.956 -12.055  1.00  0.00     0.002 C 
BRANCH  27  28
HETATM   28  C   UNL     1     -22.878  -2.537 -12.148  1.00  0.00    -0.000 C 
BRANCH  28  29
HETATM   29  C   UNL     1     -23.705  -2.340 -13.414  1.00  0.00    -0.005 C 
HETATM   30  C   UNL     1     -22.887  -2.657 -14.656  1.00  0.00     0.005 C 
ENDBRANCH  28  29
ENDBRANCH  27  28
ENDBRANCH  26  27
ENDBRANCH  25  26
ENDBRANCH  24  25
ENDBRANCH  22  24
ENDBRANCH   1  22
TORSDOF 13
ENDMDL
MODEL 7
REMARK VINA RESULT:      -6.2      2.432      4.170
REMARK  13 active torsions:
REMARK  status: ('A' for Active; 'I' for Inactive)
REMARK    1  A    between atoms: C_2  and  C_3 
REMARK    2  A    between atoms: C_3  and  C_4 
REMARK    3  A    between atoms: C_4  and  C_5 
REMARK    4  A    between atoms: C_5  and  C_6 
REMARK    5  A    between atoms: C_6  and  O_7 
REMARK    6  A    between atoms: O_7  and  C_8 
REMARK    7  A    between atoms: C_8  and  C_10 
REMARK    8  A    between atoms: C_15  and  C_16 
REMARK    9  A    between atoms: C_16  and  C_18 
REMARK   10  A    between atoms: C_19  and  O_29 
REMARK   11  A    between atoms: C_21  and  N_24 
REMARK   12  A    between atoms: N_24  and  C_25 
REMARK   13  A    between atoms: N_24  and  C_27 
ROOT
HETATM    1  C   UNL     1     -22.137  -9.950  -1.295  1.00  0.00     0.053 A 
HETATM    2  C   UNL     1     -23.228 -10.007  -0.413  1.00  0.00     0.018 A 
HETATM    3  C   UNL     1     -23.495  -8.941   0.449  1.00  0.00     0.001 A 
HETATM    4  C   UNL     1     -22.668  -7.820   0.437  1.00  0.00     0.001 A 
HETATM    5  C   UNL     1     -21.617  -7.727  -0.482  1.00  0.00     0.016 A 
HETATM    6  C   UNL     1     -21.377  -8.775  -1.381  1.00  0.00     0.031 A 
ENDROOT
BRANCH   6   7
HETATM    7  C   UNL     1     -20.337  -8.569  -2.417  1.00  0.00     0.196 C 
HETATM    8  O   UNL     1     -19.216  -9.039  -2.249  1.00  0.00    -0.287 OA
BRANCH   7   9
HETATM    9  C   UNL     1     -20.634  -7.781  -3.650  1.00  0.00     0.048 A 
HETATM   10  C   UNL     1     -19.933  -8.031  -4.830  1.00  0.00     0.082 A 
HETATM   11  C   UNL     1     -20.177  -7.266  -5.976  1.00  0.00     0.066 A 
HETATM   12  C   UNL     1     -21.129  -6.232  -5.987  1.00  0.00     0.032 A 
HETATM   13  C   UNL     1     -21.867  -6.044  -4.813  1.00  0.00     0.030 A 
HETATM   14  C   UNL     1     -21.606  -6.777  -3.650  1.00  0.00     0.020 A 
BRANCH  10  15
HETATM   15  O   UNL     1     -18.989  -9.018  -4.942  1.00  0.00    -0.360 OA
HETATM   16  H   UNL     1     -19.169  -9.683  -4.242  1.00  0.00     0.217 HD
ENDBRANCH  10  15
BRANCH  12  17
HETATM   17  N   UNL     1     -21.288  -5.395  -7.082  1.00  0.00    -0.382 N 
BRANCH  17  18
HETATM   18  C   UNL     1     -22.477  -4.550  -7.237  1.00  0.00     0.118 C 
HETATM   19  C   UNL     1     -22.820  -4.287  -8.695  1.00  0.00     0.026 C 
ENDBRANCH  17  18
BRANCH  17  20
HETATM   20  C   UNL     1     -20.252  -5.332  -8.121  1.00  0.00     0.118 C 
HETATM   21  C   UNL     1     -19.252  -4.212  -7.845  1.00  0.00     0.026 C 
ENDBRANCH  17  20
ENDBRANCH  12  17
ENDBRANCH   7   9
ENDBRANCH   6   7
BRANCH   1  22
HETATM   22  C   UNL     1     -21.780 -11.221  -1.967  1.00  0.00     0.294 C 
HETATM   23  O   UNL     1     -20.940 -11.992  -1.542  1.00  0.00    -0.259 OA
BRANCH  22  24
HETATM   24  O   UNL     1     -22.336 -11.225  -3.201  1.00  0.00    -0.317 OA
BRANCH  24  25
HETATM   25  C   UNL     1     -21.517 -11.706  -4.269  1.00  0.00     0.179 C 
BRANCH  25  26
HETATM   26  C   UNL     1     -21.944 -13.038  -4.867  1.00  0.00     0.027 C 
BRANCH  26  27
HETATM   27  C   UNL     1     -22.373 -12.929  -6.329  1.00  0.00     0.002 C 
BRANCH  27  28
HETATM   28  C   UNL     1     -21.194 -12.461  -7.183  1.00  0.00    -0.000 C 
BRANCH  28  29
HETATM   29  C   UNL     1     -20.244 -13.608  -7.509  1.00  0.00    -0.005 C 
HETATM   30  C   UNL     1     -19.373 -13.272  -8.709  1.00  0.00     0.005 C 
ENDBRANCH  28  29
ENDBRANCH  27  28
ENDBRANCH  26  27
ENDBRANCH  25  26
ENDBRANCH  24  25
ENDBRANCH  22  24
ENDBRANCH   1  22
TORSDOF 13
ENDMDL
MODEL 8
REMARK VINA RESULT:      -6.2      3.317      8.469
REMARK  13 active torsions:
REMARK  status: ('A' for Active; 'I' for Inactive)
REMARK    1  A    between atoms: C_2  and  C_3 
REMARK    2  A    between atoms: C_3  and  C_4 
REMARK    3  A    between atoms: C_4  and  C_5 
REMARK    4  A    between atoms: C_5  and  C_6 
REMARK    5  A    between atoms: C_6  and  O_7 
REMARK    6  A    between atoms: O_7  and  C_8 
REMARK    7  A    between atoms: C_8  and  C_10 
REMARK    8  A    between atoms: C_15  and  C_16 
REMARK    9  A    between atoms: C_16  and  C_18 
REMARK   10  A    between atoms: C_19  and  O_29 
REMARK   11  A    between atoms: C_21  and  N_24 
REMARK   12  A    between atoms: N_24  and  C_25 
REMARK   13  A    between atoms: N_24  and  C_27 
ROOT
HETATM    1  C   UNL     1     -21.162  -7.487  -3.294  1.00  0.00     0.053 A 
HETATM    2  C   UNL     1     -21.373  -6.182  -2.820  1.00  0.00     0.018 A 
HETATM    3  C   UNL     1     -21.972  -5.971  -1.576  1.00  0.00     0.001 A 
HETATM    4  C   UNL     1     -22.370  -7.063  -0.807  1.00  0.00     0.001 A 
HETATM    5  C   UNL     1     -22.107  -8.366  -1.242  1.00  0.00     0.016 A 
HETATM    6  C   UNL     1     -21.462  -8.579  -2.468  1.00  0.00     0.031 A 
ENDROOT
BRANCH   6   7
HETATM    7  C   UNL     1     -21.091  -9.972  -2.818  1.00  0.00     0.196 C 
HETATM    8  O   UNL     1     -21.824 -10.625  -3.555  1.00  0.00    -0.287 OA
BRANCH   7   9
HETATM    9  C   UNL     1     -19.849 -10.592  -2.269  1.00  0.00     0.048 A 
HETATM   10  C   UNL     1     -19.929 -11.555  -1.264  1.00  0.00     0.082 A 
HETATM   11  C   UNL     1     -18.766 -12.108  -0.716  1.00  0.00     0.066 A 
HETATM   12  C   UNL     1     -17.487 -11.723  -1.152  1.00  0.00     0.032 A 
HETATM   13  C   UNL     1     -17.432 -10.805  -2.208  1.00  0.00     0.030 A 
HETATM   14  C   UNL     1     -18.586 -10.219  -2.739  1.00  0.00     0.020 A 
BRANCH  10  15
HETATM   15  O   UNL     1     -21.120 -12.015  -0.764  1.00  0.00    -0.360 OA
HETATM   16  H   UNL     1     -21.039 -12.988  -0.651  1.00  0.00     0.217 HD
ENDBRANCH  10  15
BRANCH  12  17
HETATM   17  N   UNL     1     -16.333 -12.179  -0.531  1.00  0.00    -0.382 N 
BRANCH  17  18
HETATM   18  C   UNL     1     -16.091 -11.954   0.898  1.00  0.00     0.118 C 
HETATM   19  C   UNL     1     -16.035 -13.249   1.692  1.00  0.00     0.026 C 
ENDBRANCH  17  18
BRANCH  17  20
HETATM   20  C   UNL     1     -15.320 -12.913  -1.299  1.00  0.00     0.118 C 
HETATM   21  C   UNL     1     -15.897 -14.188  -1.907  1.00  0.00     0.026 C 
ENDBRANCH  17  20
ENDBRANCH  12  17
ENDBRANCH   7   9
ENDBRANCH   6   7
BRANCH   1  22
HETATM   22  C   UNL     1     -20.774  -7.604  -4.719  1.00  0.00     0.294 C 
HETATM   23  O   UNL     1     -19.714  -8.072  -5.090  1.00  0.00    -0.259 OA
BRANCH  22  24
HETATM   24  O   UNL     1     -21.651  -6.889  -5.461  1.00  0.00    -0.317 OA
BRANCH  24  25
HETATM   25  C   UNL     1     -21.123  -6.230  -6.615  1.00  0.00     0.179 C 
BRANCH  25  26
HETATM   26  C   UNL     1     -20.655  -4.801  -6.390  1.00  0.00     0.027 C 
BRANCH  26  27
HETATM   27  C   UNL     1     -21.086  -3.847  -7.502  1.00  0.00     0.002 C 
BRANCH  27  28
HETATM   28  C   UNL     1     -21.398  -4.637  -8.773  1.00  0.00    -0.000 C 
BRANCH  28  29
HETATM   29  C   UNL     1     -20.287  -4.502  -9.808  1.00  0.00    -0.005 C 
HETATM   30  C   UNL     1     -20.665  -3.503 -10.890  1.00  0.00     0.005 C 
ENDBRANCH  28  29
ENDBRANCH  27  28
ENDBRANCH  26  27
ENDBRANCH  25  26
ENDBRANCH  24  25
ENDBRANCH  22  24
ENDBRANCH   1  22
TORSDOF 13
ENDMDL
MODEL 9
REMARK VINA RESULT:      -6.2      2.218      3.902
REMARK  13 active torsions:
REMARK  status: ('A' for Active; 'I' for Inactive)
REMARK    1  A    between atoms: C_2  and  C_3 
REMARK    2  A    between atoms: C_3  and  C_4 
REMARK    3  A    between atoms: C_4  and  C_5 
REMARK    4  A    between atoms: C_5  and  C_6 
REMARK    5  A    between atoms: C_6  and  O_7 
REMARK    6  A    between atoms: O_7  and  C_8 
REMARK    7  A    between atoms: C_8  and  C_10 
REMARK    8  A    between atoms: C_15  and  C_16 
REMARK    9  A    between atoms: C_16  and  C_18 
REMARK   10  A    between atoms: C_19  and  O_29 
REMARK   11  A    between atoms: C_21  and  N_24 
REMARK   12  A    between atoms: N_24  and  C_25 
REMARK   13  A    between atoms: N_24  and  C_27 
ROOT
HETATM    1  C   UNL     1     -21.948 -10.702  -2.486  1.00  0.00     0.053 A 
HETATM    2  C   UNL     1     -23.068 -11.500  -2.199  1.00  0.00     0.018 A 
HETATM    3  C   UNL     1     -23.889 -11.198  -1.110  1.00  0.00     0.001 A 
HETATM    4  C   UNL     1     -23.588 -10.104  -0.301  1.00  0.00     0.001 A 
HETATM    5  C   UNL     1     -22.512  -9.267  -0.616  1.00  0.00     0.016 A 
HETATM    6  C   UNL     1     -21.716  -9.541  -1.737  1.00  0.00     0.031 A 
ENDROOT
BRANCH   6   7
HETATM    7  C   UNL     1     -20.673  -8.550  -2.099  1.00  0.00     0.196 C 
HETATM    8  O   UNL     1     -19.696  -8.410  -1.370  1.00  0.00    -0.287 OA
BRANCH   7   9
HETATM    9  C   UNL     1     -20.810  -7.712  -3.326  1.00  0.00     0.048 A 
HETATM   10  C   UNL     1     -21.657  -6.603  -3.329  1.00  0.00     0.082 A 
HETATM   11  C   UNL     1     -21.822  -5.840  -4.490  1.00  0.00     0.066 A 
HETATM   12  C   UNL     1     -21.149  -6.151  -5.683  1.00  0.00     0.032 A 
HETATM   13  C   UNL     1     -20.253  -7.227  -5.638  1.00  0.00     0.030 A 
HETATM   14  C   UNL     1     -20.107  -8.019  -4.494  1.00  0.00     0.020 A 
BRANCH  10  15
HETATM   15  O   UNL     1     -22.359  -6.197  -2.225  1.00  0.00    -0.360 OA
HETATM   16  H   UNL     1     -23.315  -6.216  -2.456  1.00  0.00     0.217 HD
ENDBRANCH  10  15
BRANCH  12  17
HETATM   17  N   UNL     1     -21.401  -5.471  -6.866  1.00  0.00    -0.382 N 
BRANCH  17  18
HETATM   18  C   UNL     1     -22.651  -4.735  -7.077  1.00  0.00     0.118 C 
HETATM   19  C   UNL     1     -22.766  -4.171  -8.485  1.00  0.00     0.026 C 
ENDBRANCH  17  18
BRANCH  17  20
HETATM   20  C   UNL     1     -20.403  -5.467  -7.943  1.00  0.00     0.118 C 
HETATM   21  C   UNL     1     -19.272  -4.485  -7.653  1.00  0.00     0.026 C 
ENDBRANCH  17  20
ENDBRANCH  12  17
ENDBRANCH   7   9
ENDBRANCH   6   7
BRANCH   1  22
HETATM   22  C   UNL     1     -20.999 -11.252  -3.482  1.00  0.00     0.294 C 
HETATM   23  O   UNL     1     -21.163 -11.165  -4.685  1.00  0.00    -0.259 OA
BRANCH  22  24
HETATM   24  O   UNL     1     -20.118 -12.051  -2.838  1.00  0.00    -0.317 OA
BRANCH  24  25
HETATM   25  C   UNL     1     -18.734 -11.833  -3.121  1.00  0.00     0.179 C 
BRANCH  25  26
HETATM   26  C   UNL     1     -17.947 -11.138  -2.020  1.00  0.00     0.027 C 
BRANCH  26  27
HETATM   27  C   UNL     1     -16.795 -10.288  -2.553  1.00  0.00     0.002 C 
BRANCH  27  28
HETATM   28  C   UNL     1     -17.106  -9.822  -3.975  1.00  0.00    -0.000 C 
BRANCH  28  29
HETATM   29  C   UNL     1     -15.859  -9.815  -4.852  1.00  0.00    -0.005 C 
HETATM   30  C   UNL     1     -15.228 -11.196  -4.914  1.00  0.00     0.005 C 
ENDBRANCH  28  29
ENDBRANCH  27  28
ENDBRANCH  26  27
ENDBRANCH  25  26
ENDBRANCH  24  25
ENDBRANCH  22  24
ENDBRANCH   1  22
TORSDOF 13
ENDMDL
