MODEL 1
REMARK VINA RESULT:      -5.7      0.000      0.000
REMARK  12 active torsions:
REMARK  status: ('A' for Active; 'I' for Inactive)
REMARK    1  A    between atoms: C_1  and  C_2 
REMARK    2  A    between atoms: C_1  and  O_23 
REMARK    3  A    between atoms: C_3  and  O_22 
REMARK    4  A    between atoms: C_4  and  O_21 
REMARK    5  A    between atoms: C_5  and  O_20 
REMARK    6  A    between atoms: C_6  and  O_8 
REMARK    7  A    between atoms: O_8  and  C_9 
REMARK    8  A    between atoms: C_10  and  C_18 
REMARK    9  A    between atoms: C_12  and  O_17 
REMARK   10  A    between atoms: C_13  and  O_16 
REMARK   11  A    between atoms: C_14  and  O_15 
REMARK   12  A    between atoms: C_18  and  O_19 
ROOT
HETATM    1  O   UNL     1     -35.067  -2.624 -14.152  1.00  0.00    -0.348 OA
ENDROOT
BRANCH   1   2
HETATM    2  C   UNL     1     -34.474  -2.947 -12.876  1.00  0.00     0.292 C 
HETATM    3  C   UNL     1     -33.756  -4.303 -12.983  1.00  0.00     0.204 C 
HETATM    4  C   UNL     1     -33.129  -4.612 -11.616  1.00  0.00     0.183 C 
HETATM    5  C   UNL     1     -34.205  -4.640 -10.512  1.00  0.00     0.180 C 
HETATM    6  C   UNL     1     -35.058  -3.354 -10.546  1.00  0.00     0.179 C 
HETATM    7  O   UNL     1     -35.488  -3.039 -11.884  1.00  0.00    -0.348 OA
BRANCH   3   8
HETATM    8  O   UNL     1     -34.698  -5.347 -13.317  1.00  0.00    -0.388 OA
HETATM    9  H   UNL     1     -34.192  -6.184 -13.271  1.00  0.00     0.210 HD
ENDBRANCH   3   8
BRANCH   4  10
HETATM   10  O   UNL     1     -32.430  -5.857 -11.668  1.00  0.00    -0.390 OA
HETATM   11  H   UNL     1     -33.108  -6.547 -11.526  1.00  0.00     0.210 HD
ENDBRANCH   4  10
BRANCH   5  12
HETATM   12  O   UNL     1     -35.059  -5.786 -10.693  1.00  0.00    -0.390 OA
HETATM   13  H   UNL     1     -34.749  -6.232 -11.508  1.00  0.00     0.210 HD
ENDBRANCH   5  12
BRANCH   6  14
HETATM   14  C   UNL     1     -34.342  -2.158  -9.895  1.00  0.00     0.198 C 
BRANCH  14  15
HETATM   15  O   UNL     1     -35.219  -1.037  -9.779  1.00  0.00    -0.398 OA
HETATM   16  H   UNL     1     -36.093  -1.372  -9.503  1.00  0.00     0.209 HD
ENDBRANCH  14  15
ENDBRANCH   6  14
ENDBRANCH   1   2
BRANCH   1  17
HETATM   17  C   UNL     1     -34.874  -1.222 -14.494  1.00  0.00     0.187 C 
HETATM   18  C   UNL     1     -35.814  -0.295 -13.692  1.00  0.00     0.180 C 
HETATM   19  O   UNL     1     -37.182  -0.513 -14.036  1.00  0.00    -0.349 OA
HETATM   20  C   UNL     1     -37.517  -0.343 -15.397  1.00  0.00     0.288 C 
HETATM   21  C   UNL     1     -36.623  -1.151 -16.365  1.00  0.00     0.204 C 
HETATM   22  C   UNL     1     -35.136  -1.035 -15.998  1.00  0.00     0.183 C 
BRANCH  18  23
HETATM   23  C   UNL     1     -35.366   1.171 -13.753  1.00  0.00     0.198 C 
BRANCH  23  24
HETATM   24  O   UNL     1     -33.952   1.236 -13.555  1.00  0.00    -0.398 OA
HETATM   25  H   UNL     1     -33.552   0.557 -14.132  1.00  0.00     0.209 HD
ENDBRANCH  23  24
ENDBRANCH  18  23
BRANCH  20  26
HETATM   26  O   UNL     1     -37.535   1.035 -15.737  1.00  0.00    -0.369 OA
HETATM   27  H   UNL     1     -38.044   1.120 -16.569  1.00  0.00     0.212 HD
ENDBRANCH  20  26
BRANCH  21  28
HETATM   28  O   UNL     1     -36.815  -0.641 -17.700  1.00  0.00    -0.388 OA
HETATM   29  H   UNL     1     -35.979  -0.755 -18.192  1.00  0.00     0.210 HD
ENDBRANCH  21  28
BRANCH  22  30
HETATM   30  O   UNL     1     -34.348  -1.986 -16.736  1.00  0.00    -0.390 OA
HETATM   31  H   UNL     1     -33.712  -1.472 -17.265  1.00  0.00     0.210 HD
ENDBRANCH  22  30
ENDBRANCH   1  17
TORSDOF 12
ENDMDL
MODEL 2
REMARK VINA RESULT:      -5.3     17.988     20.358
REMARK  12 active torsions:
REMARK  status: ('A' for Active; 'I' for Inactive)
REMARK    1  A    between atoms: C_1  and  C_2 
REMARK    2  A    between atoms: C_1  and  O_23 
REMARK    3  A    between atoms: C_3  and  O_22 
REMARK    4  A    between atoms: C_4  and  O_21 
REMARK    5  A    between atoms: C_5  and  O_20 
REMARK    6  A    between atoms: C_6  and  O_8 
REMARK    7  A    between atoms: O_8  and  C_9 
REMARK    8  A    between atoms: C_10  and  C_18 
REMARK    9  A    between atoms: C_12  and  O_17 
REMARK   10  A    between atoms: C_13  and  O_16 
REMARK   11  A    between atoms: C_14  and  O_15 
REMARK   12  A    between atoms: C_18  and  O_19 
ROOT
HETATM    1  O   UNL     1     -20.110  -9.962  -1.940  1.00  0.00    -0.348 OA
ENDROOT
BRANCH   1   2
HETATM    2  C   UNL     1     -19.152  -9.982  -3.020  1.00  0.00     0.292 C 
HETATM    3  C   UNL     1     -19.817 -10.573  -4.274  1.00  0.00     0.204 C 
HETATM    4  C   UNL     1     -18.777 -10.571  -5.403  1.00  0.00     0.183 C 
HETATM    5  C   UNL     1     -17.530 -11.385  -5.002  1.00  0.00     0.180 C 
HETATM    6  C   UNL     1     -16.987 -10.916  -3.635  1.00  0.00     0.179 C 
HETATM    7  O   UNL     1     -18.040 -10.794  -2.661  1.00  0.00    -0.348 OA
BRANCH   3   8
HETATM    8  O   UNL     1     -20.242 -11.932  -4.026  1.00  0.00    -0.388 OA
HETATM    9  H   UNL     1     -19.849 -12.467  -4.745  1.00  0.00     0.210 HD
ENDBRANCH   3   8
BRANCH   4  10
HETATM   10  O   UNL     1     -19.354 -11.093  -6.601  1.00  0.00    -0.390 OA
HETATM   11  H   UNL     1     -19.950 -11.815  -6.315  1.00  0.00     0.210 HD
ENDBRANCH   4  10
BRANCH   5  12
HETATM   12  O   UNL     1     -17.863 -12.784  -4.932  1.00  0.00    -0.390 OA
HETATM   13  H   UNL     1     -17.874 -13.015  -3.980  1.00  0.00     0.210 HD
ENDBRANCH   5  12
BRANCH   6  14
HETATM   14  C   UNL     1     -16.173  -9.615  -3.742  1.00  0.00     0.198 C 
BRANCH  14  15
HETATM   15  O   UNL     1     -15.800  -9.137  -2.449  1.00  0.00    -0.398 OA
HETATM   16  H   UNL     1     -15.540  -9.908  -1.911  1.00  0.00     0.209 HD
ENDBRANCH  14  15
ENDBRANCH   6  14
ENDBRANCH   1   2
BRANCH   1  17
HETATM   17  C   UNL     1     -21.290  -9.182  -2.284  1.00  0.00     0.187 C 
HETATM   18  C   UNL     1     -21.249  -7.766  -1.669  1.00  0.00     0.180 C 
HETATM   19  O   UNL     1     -21.312  -7.814  -0.244  1.00  0.00    -0.349 OA
HETATM   20  C   UNL     1     -22.440  -8.458   0.309  1.00  0.00     0.288 C 
HETATM   21  C   UNL     1     -22.683  -9.878  -0.249  1.00  0.00     0.204 C 
HETATM   22  C   UNL     1     -22.540  -9.921  -1.779  1.00  0.00     0.183 C 
BRANCH  18  23
HETATM   23  C   UNL     1     -22.268  -6.824  -2.322  1.00  0.00     0.198 C 
BRANCH  23  24
HETATM   24  O   UNL     1     -22.317  -5.603  -1.581  1.00  0.00    -0.398 OA
HETATM   25  H   UNL     1     -21.475  -5.135  -1.746  1.00  0.00     0.209 HD
ENDBRANCH  23  24
ENDBRANCH  18  23
BRANCH  20  26
HETATM   26  O   UNL     1     -23.594  -7.644   0.173  1.00  0.00    -0.369 OA
HETATM   27  H   UNL     1     -23.286  -6.718   0.094  1.00  0.00     0.212 HD
ENDBRANCH  20  26
BRANCH  21  28
HETATM   28  O   UNL     1     -24.019 -10.289   0.106  1.00  0.00    -0.388 OA
HETATM   29  H   UNL     1     -23.951 -11.019   0.750  1.00  0.00     0.210 HD
ENDBRANCH  21  28
BRANCH  22  30
HETATM   30  O   UNL     1     -22.511 -11.279  -2.255  1.00  0.00    -0.390 OA
HETATM   31  H   UNL     1     -23.370 -11.675  -2.022  1.00  0.00     0.210 HD
ENDBRANCH  22  30
ENDBRANCH   1  17
TORSDOF 12
ENDMDL
MODEL 3
REMARK VINA RESULT:      -5.2      1.041      2.338
REMARK  12 active torsions:
REMARK  status: ('A' for Active; 'I' for Inactive)
REMARK    1  A    between atoms: C_1  and  C_2 
REMARK    2  A    between atoms: C_1  and  O_23 
REMARK    3  A    between atoms: C_3  and  O_22 
REMARK    4  A    between atoms: C_4  and  O_21 
REMARK    5  A    between atoms: C_5  and  O_20 
REMARK    6  A    between atoms: C_6  and  O_8 
REMARK    7  A    between atoms: O_8  and  C_9 
REMARK    8  A    between atoms: C_10  and  C_18 
REMARK    9  A    between atoms: C_12  and  O_17 
REMARK   10  A    between atoms: C_13  and  O_16 
REMARK   11  A    between atoms: C_14  and  O_15 
REMARK   12  A    between atoms: C_18  and  O_19 
ROOT
HETATM    1  O   UNL     1     -34.800  -1.956 -14.115  1.00  0.00    -0.348 OA
ENDROOT
BRANCH   1   2
HETATM    2  C   UNL     1     -34.389  -2.470 -12.830  1.00  0.00     0.292 C 
HETATM    3  C   UNL     1     -33.648  -3.802 -13.033  1.00  0.00     0.204 C 
HETATM    4  C   UNL     1     -33.217  -4.316 -11.653  1.00  0.00     0.183 C 
HETATM    5  C   UNL     1     -34.438  -4.496 -10.728  1.00  0.00     0.180 C 
HETATM    6  C   UNL     1     -35.291  -3.211 -10.692  1.00  0.00     0.179 C 
HETATM    7  O   UNL     1     -35.532  -2.698 -12.015  1.00  0.00    -0.348 OA
BRANCH   3   8
HETATM    8  O   UNL     1     -34.522  -4.776 -13.648  1.00  0.00    -0.388 OA
HETATM    9  H   UNL     1     -34.467  -5.574 -13.083  1.00  0.00     0.210 HD
ENDBRANCH   3   8
BRANCH   4  10
HETATM   10  O   UNL     1     -32.503  -5.546 -11.788  1.00  0.00    -0.390 OA
HETATM   11  H   UNL     1     -33.052  -6.107 -12.374  1.00  0.00     0.210 HD
ENDBRANCH   4  10
BRANCH   5  12
HETATM   12  O   UNL     1     -35.245  -5.594 -11.195  1.00  0.00    -0.390 OA
HETATM   13  H   UNL     1     -35.789  -5.241 -11.929  1.00  0.00     0.210 HD
ENDBRANCH   5  12
BRANCH   6  14
HETATM   14  C   UNL     1     -34.687  -2.132  -9.777  1.00  0.00     0.198 C 
BRANCH  14  15
HETATM   15  O   UNL     1     -35.497  -0.955  -9.770  1.00  0.00    -0.398 OA
HETATM   16  H   UNL     1     -35.619  -0.684  -8.841  1.00  0.00     0.209 HD
ENDBRANCH  14  15
ENDBRANCH   6  14
ENDBRANCH   1   2
BRANCH   1  17
HETATM   17  C   UNL     1     -35.950  -1.072 -13.996  1.00  0.00     0.187 C 
HETATM   18  C   UNL     1     -36.673  -0.876 -15.346  1.00  0.00     0.180 C 
HETATM   19  O   UNL     1     -35.849  -0.188 -16.286  1.00  0.00    -0.349 OA
HETATM   20  C   UNL     1     -35.384   1.085 -15.892  1.00  0.00     0.288 C 
HETATM   21  C   UNL     1     -34.686   1.096 -14.514  1.00  0.00     0.204 C 
HETATM   22  C   UNL     1     -35.477   0.294 -13.469  1.00  0.00     0.183 C 
BRANCH  18  23
HETATM   23  C   UNL     1     -38.075  -0.278 -15.168  1.00  0.00     0.198 C 
BRANCH  23  24
HETATM   24  O   UNL     1     -38.075   0.577 -14.022  1.00  0.00    -0.398 OA
HETATM   25  H   UNL     1     -37.140   0.767 -13.808  1.00  0.00     0.209 HD
ENDBRANCH  23  24
ENDBRANCH  18  23
BRANCH  20  26
HETATM   26  O   UNL     1     -36.435   2.038 -15.949  1.00  0.00    -0.369 OA
HETATM   27  H   UNL     1     -36.624   2.313 -15.029  1.00  0.00     0.212 HD
ENDBRANCH  20  26
BRANCH  21  28
HETATM   28  O   UNL     1     -34.576   2.463 -14.066  1.00  0.00    -0.388 OA
HETATM   29  H   UNL     1     -35.323   2.966 -14.440  1.00  0.00     0.210 HD
ENDBRANCH  21  28
BRANCH  22  30
HETATM   30  O   UNL     1     -34.698   0.095 -12.275  1.00  0.00    -0.390 OA
HETATM   31  H   UNL     1     -33.800   0.420 -12.469  1.00  0.00     0.210 HD
ENDBRANCH  22  30
ENDBRANCH   1  17
TORSDOF 12
ENDMDL
MODEL 4
REMARK VINA RESULT:      -5.0     18.088     20.938
REMARK  12 active torsions:
REMARK  status: ('A' for Active; 'I' for Inactive)
REMARK    1  A    between atoms: C_1  and  C_2 
REMARK    2  A    between atoms: C_1  and  O_23 
REMARK    3  A    between atoms: C_3  and  O_22 
REMARK    4  A    between atoms: C_4  and  O_21 
REMARK    5  A    between atoms: C_5  and  O_20 
REMARK    6  A    between atoms: C_6  and  O_8 
REMARK    7  A    between atoms: O_8  and  C_9 
REMARK    8  A    between atoms: C_10  and  C_18 
REMARK    9  A    between atoms: C_12  and  O_17 
REMARK   10  A    between atoms: C_13  and  O_16 
REMARK   11  A    between atoms: C_14  and  O_15 
REMARK   12  A    between atoms: C_18  and  O_19 
ROOT
HETATM    1  O   UNL     1     -19.973  -9.959  -1.425  1.00  0.00    -0.348 OA
ENDROOT
BRANCH   1   2
HETATM    2  C   UNL     1     -19.094 -10.411  -2.478  1.00  0.00     0.292 C 
HETATM    3  C   UNL     1     -18.404 -11.712  -2.036  1.00  0.00     0.204 C 
HETATM    4  C   UNL     1     -17.487 -12.170  -3.177  1.00  0.00     0.183 C 
HETATM    5  C   UNL     1     -16.449 -11.081  -3.519  1.00  0.00     0.180 C 
HETATM    6  C   UNL     1     -17.142  -9.724  -3.763  1.00  0.00     0.179 C 
HETATM    7  O   UNL     1     -18.101  -9.425  -2.731  1.00  0.00    -0.348 OA
BRANCH   3   8
HETATM    8  O   UNL     1     -17.606 -11.482  -0.852  1.00  0.00    -0.388 OA
HETATM    9  H   UNL     1     -16.745 -11.146  -1.175  1.00  0.00     0.210 HD
ENDBRANCH   3   8
BRANCH   4  10
HETATM   10  O   UNL     1     -16.835 -13.391  -2.823  1.00  0.00    -0.390 OA
HETATM   11  H   UNL     1     -17.496 -13.906  -2.317  1.00  0.00     0.210 HD
ENDBRANCH   4  10
BRANCH   5  12
HETATM   12  O   UNL     1     -15.506 -10.951  -2.439  1.00  0.00    -0.390 OA
HETATM   13  H   UNL     1     -14.966 -10.160  -2.641  1.00  0.00     0.210 HD
ENDBRANCH   5  12
BRANCH   6  14
HETATM   14  C   UNL     1     -17.779  -9.633  -5.160  1.00  0.00     0.198 C 
BRANCH  14  15
HETATM   15  O   UNL     1     -16.954 -10.262  -6.141  1.00  0.00    -0.398 OA
HETATM   16  H   UNL     1     -17.541 -10.649  -6.818  1.00  0.00     0.209 HD
ENDBRANCH  14  15
ENDBRANCH   6  14
ENDBRANCH   1   2
BRANCH   1  17
HETATM   17  C   UNL     1     -21.114  -9.227  -1.956  1.00  0.00     0.187 C 
HETATM   18  C   UNL     1     -21.178  -7.782  -1.417  1.00  0.00     0.180 C 
HETATM   19  O   UNL     1     -21.421  -7.759  -0.011  1.00  0.00    -0.349 OA
HETATM   20  C   UNL     1     -22.597  -8.403   0.429  1.00  0.00     0.288 C 
HETATM   21  C   UNL     1     -22.740  -9.855  -0.079  1.00  0.00     0.204 C 
HETATM   22  C   UNL     1     -22.404  -9.972  -1.574  1.00  0.00     0.183 C 
BRANCH  18  23
HETATM   23  C   UNL     1     -22.123  -6.900  -2.243  1.00  0.00     0.198 C 
BRANCH  23  24
HETATM   24  O   UNL     1     -22.322  -5.661  -1.560  1.00  0.00    -0.398 OA
HETATM   25  H   UNL     1     -21.455  -5.390  -1.201  1.00  0.00     0.209 HD
ENDBRANCH  23  24
ENDBRANCH  18  23
BRANCH  20  26
HETATM   26  O   UNL     1     -23.740  -7.626   0.106  1.00  0.00    -0.369 OA
HETATM   27  H   UNL     1     -23.422  -6.733  -0.138  1.00  0.00     0.212 HD
ENDBRANCH  20  26
BRANCH  21  28
HETATM   28  O   UNL     1     -24.103 -10.281   0.127  1.00  0.00    -0.388 OA
HETATM   29  H   UNL     1     -24.209 -10.517   1.068  1.00  0.00     0.210 HD
ENDBRANCH  21  28
BRANCH  22  30
HETATM   30  O   UNL     1     -22.290 -11.350  -1.969  1.00  0.00    -0.390 OA
HETATM   31  H   UNL     1     -23.080 -11.806  -1.628  1.00  0.00     0.210 HD
ENDBRANCH  22  30
ENDBRANCH   1  17
TORSDOF 12
ENDMDL
MODEL 5
REMARK VINA RESULT:      -4.9     15.982     19.461
REMARK  12 active torsions:
REMARK  status: ('A' for Active; 'I' for Inactive)
REMARK    1  A    between atoms: C_1  and  C_2 
REMARK    2  A    between atoms: C_1  and  O_23 
REMARK    3  A    between atoms: C_3  and  O_22 
REMARK    4  A    between atoms: C_4  and  O_21 
REMARK    5  A    between atoms: C_5  and  O_20 
REMARK    6  A    between atoms: C_6  and  O_8 
REMARK    7  A    between atoms: O_8  and  C_9 
REMARK    8  A    between atoms: C_10  and  C_18 
REMARK    9  A    between atoms: C_12  and  O_17 
REMARK   10  A    between atoms: C_13  and  O_16 
REMARK   11  A    between atoms: C_14  and  O_15 
REMARK   12  A    between atoms: C_18  and  O_19 
ROOT
HETATM    1  O   UNL     1     -19.384  -8.807  -3.513  1.00  0.00    -0.348 OA
ENDROOT
BRANCH   1   2
HETATM    2  C   UNL     1     -18.951 -10.101  -3.985  1.00  0.00     0.292 C 
HETATM    3  C   UNL     1     -17.796  -9.915  -4.982  1.00  0.00     0.204 C 
HETATM    4  C   UNL     1     -17.354 -11.306  -5.456  1.00  0.00     0.183 C 
HETATM    5  C   UNL     1     -18.530 -12.064  -6.105  1.00  0.00     0.180 C 
HETATM    6  C   UNL     1     -19.759 -12.069  -5.172  1.00  0.00     0.179 C 
HETATM    7  O   UNL     1     -20.028 -10.757  -4.643  1.00  0.00    -0.348 OA
BRANCH   3   8
HETATM    8  O   UNL     1     -18.236  -9.144  -6.124  1.00  0.00    -0.388 OA
HETATM    9  H   UNL     1     -18.076  -8.208  -5.888  1.00  0.00     0.210 HD
ENDBRANCH   3   8
BRANCH   4  10
HETATM   10  O   UNL     1     -16.265 -11.189  -6.373  1.00  0.00    -0.390 OA
HETATM   11  H   UNL     1     -15.868 -10.310  -6.202  1.00  0.00     0.210 HD
ENDBRANCH   4  10
BRANCH   5  12
HETATM   12  O   UNL     1     -18.879 -11.442  -7.356  1.00  0.00    -0.390 OA
HETATM   13  H   UNL     1     -18.376 -10.603  -7.394  1.00  0.00     0.210 HD
ENDBRANCH   5  12
BRANCH   6  14
HETATM   14  C   UNL     1     -19.637 -13.110  -4.046  1.00  0.00     0.198 C 
BRANCH  14  15
HETATM   15  O   UNL     1     -20.637 -12.903  -3.047  1.00  0.00    -0.398 OA
HETATM   16  H   UNL     1     -20.645 -13.689  -2.469  1.00  0.00     0.209 HD
ENDBRANCH  14  15
ENDBRANCH   6  14
ENDBRANCH   1   2
BRANCH   1  17
HETATM   17  C   UNL     1     -20.788  -8.568  -3.814  1.00  0.00     0.187 C 
HETATM   18  C   UNL     1     -21.030  -7.146  -4.365  1.00  0.00     0.180 C 
HETATM   19  O   UNL     1     -20.749  -6.150  -3.382  1.00  0.00    -0.349 OA
HETATM   20  C   UNL     1     -21.477  -6.242  -2.176  1.00  0.00     0.288 C 
HETATM   21  C   UNL     1     -21.408  -7.634  -1.510  1.00  0.00     0.204 C 
HETATM   22  C   UNL     1     -21.612  -8.764  -2.530  1.00  0.00     0.183 C 
BRANCH  18  23
HETATM   23  C   UNL     1     -22.404  -7.013  -5.034  1.00  0.00     0.198 C 
BRANCH  23  24
HETATM   24  O   UNL     1     -22.570  -5.670  -5.495  1.00  0.00    -0.398 OA
HETATM   25  H   UNL     1     -22.186  -5.626  -6.392  1.00  0.00     0.209 HD
ENDBRANCH  23  24
ENDBRANCH  18  23
BRANCH  20  26
HETATM   26  O   UNL     1     -22.819  -5.827  -2.373  1.00  0.00    -0.369 OA
HETATM   27  H   UNL     1     -22.797  -5.046  -2.963  1.00  0.00     0.212 HD
ENDBRANCH  20  26
BRANCH  21  28
HETATM   28  O   UNL     1     -22.444  -7.716  -0.510  1.00  0.00    -0.388 OA
HETATM   29  H   UNL     1     -23.041  -6.953  -0.627  1.00  0.00     0.210 HD
ENDBRANCH  21  28
BRANCH  22  30
HETATM   30  O   UNL     1     -21.292 -10.043  -1.954  1.00  0.00    -0.390 OA
HETATM   31  H   UNL     1     -20.323 -10.070  -1.854  1.00  0.00     0.210 HD
ENDBRANCH  22  30
ENDBRANCH   1  17
TORSDOF 12
ENDMDL
MODEL 6
REMARK VINA RESULT:      -4.8     16.992     20.712
REMARK  12 active torsions:
REMARK  status: ('A' for Active; 'I' for Inactive)
REMARK    1  A    between atoms: C_1  and  C_2 
REMARK    2  A    between atoms: C_1  and  O_23 
REMARK    3  A    between atoms: C_3  and  O_22 
REMARK    4  A    between atoms: C_4  and  O_21 
REMARK    5  A    between atoms: C_5  and  O_20 
REMARK    6  A    between atoms: C_6  and  O_8 
REMARK    7  A    between atoms: O_8  and  C_9 
REMARK    8  A    between atoms: C_10  and  C_18 
REMARK    9  A    between atoms: C_12  and  O_17 
REMARK   10  A    between atoms: C_13  and  O_16 
REMARK   11  A    between atoms: C_14  and  O_15 
REMARK   12  A    between atoms: C_18  and  O_19 
ROOT
HETATM    1  O   UNL     1     -19.503  -9.130  -2.053  1.00  0.00    -0.348 OA
ENDROOT
BRANCH   1   2
HETATM    2  C   UNL     1     -18.574  -9.921  -2.825  1.00  0.00     0.292 C 
HETATM    3  C   UNL     1     -18.564 -11.360  -2.283  1.00  0.00     0.204 C 
HETATM    4  C   UNL     1     -17.577 -12.175  -3.129  1.00  0.00     0.183 C 
HETATM    5  C   UNL     1     -16.167 -11.553  -3.078  1.00  0.00     0.180 C 
HETATM    6  C   UNL     1     -16.217 -10.051  -3.428  1.00  0.00     0.179 C 
HETATM    7  O   UNL     1     -17.266  -9.375  -2.709  1.00  0.00    -0.348 OA
BRANCH   3   8
HETATM    8  O   UNL     1     -18.130 -11.376  -0.904  1.00  0.00    -0.388 OA
HETATM    9  H   UNL     1     -17.171 -11.180  -0.928  1.00  0.00     0.210 HD
ENDBRANCH   3   8
BRANCH   4  10
HETATM   10  O   UNL     1     -17.546 -13.530  -2.678  1.00  0.00    -0.390 OA
HETATM   11  H   UNL     1     -16.598 -13.752  -2.573  1.00  0.00     0.210 HD
ENDBRANCH   4  10
BRANCH   5  12
HETATM   12  O   UNL     1     -15.608 -11.720  -1.761  1.00  0.00    -0.390 OA
HETATM   13  H   UNL     1     -16.363 -11.688  -1.138  1.00  0.00     0.210 HD
ENDBRANCH   5  12
BRANCH   6  14
HETATM   14  C   UNL     1     -16.331  -9.805  -4.942  1.00  0.00     0.198 C 
BRANCH  14  15
HETATM   15  O   UNL     1     -15.458 -10.670  -5.669  1.00  0.00    -0.398 OA
HETATM   16  H   UNL     1     -16.009 -11.243  -6.233  1.00  0.00     0.209 HD
ENDBRANCH  14  15
ENDBRANCH   6  14
ENDBRANCH   1   2
BRANCH   1  17
HETATM   17  C   UNL     1     -20.766  -8.950  -2.753  1.00  0.00     0.187 C 
HETATM   18  C   UNL     1     -20.762  -7.687  -3.642  1.00  0.00     0.180 C 
HETATM   19  O   UNL     1     -20.668  -6.497  -2.860  1.00  0.00    -0.349 OA
HETATM   20  C   UNL     1     -21.681  -6.305  -1.895  1.00  0.00     0.288 C 
HETATM   21  C   UNL     1     -21.878  -7.510  -0.949  1.00  0.00     0.204 C 
HETATM   22  C   UNL     1     -21.898  -8.840  -1.718  1.00  0.00     0.183 C 
BRANCH  18  23
HETATM   23  C   UNL     1     -21.911  -7.695  -4.659  1.00  0.00     0.198 C 
BRANCH  23  24
HETATM   24  O   UNL     1     -21.371  -7.839  -5.974  1.00  0.00    -0.398 OA
HETATM   25  H   UNL     1     -21.197  -8.792  -6.108  1.00  0.00     0.209 HD
ENDBRANCH  23  24
ENDBRANCH  18  23
BRANCH  20  26
HETATM   26  O   UNL     1     -22.899  -5.931  -2.520  1.00  0.00    -0.369 OA
HETATM   27  H   UNL     1     -23.597  -5.964  -1.835  1.00  0.00     0.212 HD
ENDBRANCH  20  26
BRANCH  21  28
HETATM   28  O   UNL     1     -23.136  -7.351  -0.260  1.00  0.00    -0.388 OA
HETATM   29  H   UNL     1     -23.830  -7.787  -0.790  1.00  0.00     0.210 HD
ENDBRANCH  21  28
BRANCH  22  30
HETATM   30  O   UNL     1     -21.823  -9.958  -0.815  1.00  0.00    -0.390 OA
HETATM   31  H   UNL     1     -20.881 -10.078  -0.596  1.00  0.00     0.210 HD
ENDBRANCH  22  30
ENDBRANCH   1  17
TORSDOF 12
ENDMDL
MODEL 7
REMARK VINA RESULT:      -4.7     17.868     20.456
REMARK  12 active torsions:
REMARK  status: ('A' for Active; 'I' for Inactive)
REMARK    1  A    between atoms: C_1  and  C_2 
REMARK    2  A    between atoms: C_1  and  O_23 
REMARK    3  A    between atoms: C_3  and  O_22 
REMARK    4  A    between atoms: C_4  and  O_21 
REMARK    5  A    between atoms: C_5  and  O_20 
REMARK    6  A    between atoms: C_6  and  O_8 
REMARK    7  A    between atoms: O_8  and  C_9 
REMARK    8  A    between atoms: C_10  and  C_18 
REMARK    9  A    between atoms: C_12  and  O_17 
REMARK   10  A    between atoms: C_13  and  O_16 
REMARK   11  A    between atoms: C_14  and  O_15 
REMARK   12  A    between atoms: C_18  and  O_19 
ROOT
HETATM    1  O   UNL     1     -19.840 -10.349  -2.071  1.00  0.00    -0.348 OA
ENDROOT
BRANCH   1   2
HETATM    2  C   UNL     1     -19.132 -11.040  -3.122  1.00  0.00     0.292 C 
HETATM    3  C   UNL     1     -17.634 -10.710  -3.024  1.00  0.00     0.204 C 
HETATM    4  C   UNL     1     -16.911 -11.466  -4.147  1.00  0.00     0.183 C 
HETATM    5  C   UNL     1     -17.476 -11.071  -5.527  1.00  0.00     0.180 C 
HETATM    6  C   UNL     1     -19.012 -11.213  -5.549  1.00  0.00     0.179 C 
HETATM    7  O   UNL     1     -19.617 -10.612  -4.389  1.00  0.00    -0.348 OA
BRANCH   3   8
HETATM    8  O   UNL     1     -17.418  -9.290  -3.196  1.00  0.00    -0.388 OA
HETATM    9  H   UNL     1     -16.463  -9.147  -3.037  1.00  0.00     0.210 HD
ENDBRANCH   3   8
BRANCH   4  10
HETATM   10  O   UNL     1     -15.507 -11.208  -4.087  1.00  0.00    -0.390 OA
HETATM   11  H   UNL     1     -15.281 -10.773  -4.935  1.00  0.00     0.210 HD
ENDBRANCH   4  10
BRANCH   5  12
HETATM   12  O   UNL     1     -17.115  -9.710  -5.830  1.00  0.00    -0.390 OA
HETATM   13  H   UNL     1     -16.270  -9.541  -5.365  1.00  0.00     0.210 HD
ENDBRANCH   5  12
BRANCH   6  14
HETATM   14  C   UNL     1     -19.464 -12.674  -5.720  1.00  0.00     0.198 C 
BRANCH  14  15
HETATM   15  O   UNL     1     -18.684 -13.339  -6.715  1.00  0.00    -0.398 OA
HETATM   16  H   UNL     1     -17.903 -13.720  -6.273  1.00  0.00     0.209 HD
ENDBRANCH  14  15
ENDBRANCH   6  14
ENDBRANCH   1   2
BRANCH   1  17
HETATM   17  C   UNL     1     -20.943  -9.557  -2.596  1.00  0.00     0.187 C 
HETATM   18  C   UNL     1     -20.687  -8.041  -2.455  1.00  0.00     0.180 C 
HETATM   19  O   UNL     1     -20.645  -7.643  -1.085  1.00  0.00    -0.349 OA
HETATM   20  C   UNL     1     -21.794  -7.929  -0.317  1.00  0.00     0.288 C 
HETATM   21  C   UNL     1     -22.245  -9.405  -0.395  1.00  0.00     0.204 C 
HETATM   22  C   UNL     1     -22.228  -9.930  -1.839  1.00  0.00     0.183 C 
BRANCH  18  23
HETATM   23  C   UNL     1     -21.636  -7.212  -3.331  1.00  0.00     0.198 C 
BRANCH  23  24
HETATM   24  O   UNL     1     -21.519  -5.834  -2.971  1.00  0.00    -0.398 OA
HETATM   25  H   UNL     1     -20.626  -5.712  -2.594  1.00  0.00     0.209 HD
ENDBRANCH  23  24
ENDBRANCH  18  23
BRANCH  20  26
HETATM   26  O   UNL     1     -22.851  -7.045  -0.656  1.00  0.00    -0.369 OA
HETATM   27  H   UNL     1     -22.550  -6.139  -0.440  1.00  0.00     0.212 HD
ENDBRANCH  20  26
BRANCH  21  28
HETATM   28  O   UNL     1     -23.589  -9.502   0.120  1.00  0.00    -0.388 OA
HETATM   29  H   UNL     1     -23.652  -8.937   0.913  1.00  0.00     0.210 HD
ENDBRANCH  21  28
BRANCH  22  30
HETATM   30  O   UNL     1     -22.397 -11.358  -1.869  1.00  0.00    -0.390 OA
HETATM   31  H   UNL     1     -21.510 -11.748  -1.768  1.00  0.00     0.210 HD
ENDBRANCH  22  30
ENDBRANCH   1  17
TORSDOF 12
ENDMDL
MODEL 8
REMARK VINA RESULT:      -4.7     18.208     21.423
REMARK  12 active torsions:
REMARK  status: ('A' for Active; 'I' for Inactive)
REMARK    1  A    between atoms: C_1  and  C_2 
REMARK    2  A    between atoms: C_1  and  O_23 
REMARK    3  A    between atoms: C_3  and  O_22 
REMARK    4  A    between atoms: C_4  and  O_21 
REMARK    5  A    between atoms: C_5  and  O_20 
REMARK    6  A    between atoms: C_6  and  O_8 
REMARK    7  A    between atoms: O_8  and  C_9 
REMARK    8  A    between atoms: C_10  and  C_18 
REMARK    9  A    between atoms: C_12  and  O_17 
REMARK   10  A    between atoms: C_13  and  O_16 
REMARK   11  A    between atoms: C_14  and  O_15 
REMARK   12  A    between atoms: C_18  and  O_19 
ROOT
HETATM    1  O   UNL     1     -20.355 -10.475  -0.241  1.00  0.00    -0.348 OA
ENDROOT
BRANCH   1   2
HETATM    2  C   UNL     1     -19.564 -11.601  -0.679  1.00  0.00     0.292 C 
HETATM    3  C   UNL     1     -20.491 -12.801  -0.930  1.00  0.00     0.204 C 
HETATM    4  C   UNL     1     -19.623 -13.975  -1.402  1.00  0.00     0.183 C 
HETATM    5  C   UNL     1     -18.545 -14.317  -0.353  1.00  0.00     0.180 C 
HETATM    6  C   UNL     1     -17.750 -13.056   0.045  1.00  0.00     0.179 C 
HETATM    7  O   UNL     1     -18.623 -11.947   0.330  1.00  0.00    -0.348 OA
BRANCH   3   8
HETATM    8  O   UNL     1     -21.171 -13.177   0.289  1.00  0.00    -0.388 OA
HETATM    9  H   UNL     1     -22.045 -12.738   0.250  1.00  0.00     0.210 HD
ENDBRANCH   3   8
BRANCH   4  10
HETATM   10  O   UNL     1     -20.442 -15.115  -1.670  1.00  0.00    -0.390 OA
HETATM   11  H   UNL     1     -20.604 -15.535  -0.801  1.00  0.00     0.210 HD
ENDBRANCH   4  10
BRANCH   5  12
HETATM   12  O   UNL     1     -19.166 -14.883   0.817  1.00  0.00    -0.390 OA
HETATM   13  H   UNL     1     -19.846 -14.239   1.103  1.00  0.00     0.210 HD
ENDBRANCH   5  12
BRANCH   6  14
HETATM   14  C   UNL     1     -16.689 -12.676  -1.002  1.00  0.00     0.198 C 
BRANCH  14  15
HETATM   15  O   UNL     1     -15.989 -11.493  -0.615  1.00  0.00    -0.398 OA
HETATM   16  H   UNL     1     -16.110 -10.832  -1.322  1.00  0.00     0.209 HD
ENDBRANCH  14  15
ENDBRANCH   6  14
ENDBRANCH   1   2
BRANCH   1  17
HETATM   17  C   UNL     1     -21.268 -10.024  -1.281  1.00  0.00     0.187 C 
HETATM   18  C   UNL     1     -20.714  -8.804  -2.050  1.00  0.00     0.180 C 
HETATM   19  O   UNL     1     -20.612  -7.657  -1.207  1.00  0.00    -0.349 OA
HETATM   20  C   UNL     1     -21.807  -7.231  -0.587  1.00  0.00     0.288 C 
HETATM   21  C   UNL     1     -22.545  -8.350   0.180  1.00  0.00     0.204 C 
HETATM   22  C   UNL     1     -22.613  -9.651  -0.636  1.00  0.00     0.183 C 
BRANCH  18  23
HETATM   23  C   UNL     1     -21.464  -8.564  -3.367  1.00  0.00     0.198 C 
BRANCH  23  24
HETATM   24  O   UNL     1     -20.992  -7.352  -3.959  1.00  0.00    -0.398 OA
HETATM   25  H   UNL     1     -20.298  -6.998  -3.369  1.00  0.00     0.209 HD
ENDBRANCH  23  24
ENDBRANCH  18  23
BRANCH  20  26
HETATM   26  O   UNL     1     -22.659  -6.600  -1.531  1.00  0.00    -0.369 OA
HETATM   27  H   UNL     1     -22.238  -5.752  -1.778  1.00  0.00     0.212 HD
ENDBRANCH  20  26
BRANCH  21  28
HETATM   28  O   UNL     1     -23.888  -7.906   0.461  1.00  0.00    -0.388 OA
HETATM   29  H   UNL     1     -23.959  -7.741   1.420  1.00  0.00     0.210 HD
ENDBRANCH  21  28
BRANCH  22  30
HETATM   30  O   UNL     1     -23.066 -10.746   0.179  1.00  0.00    -0.390 OA
HETATM   31  H   UNL     1     -23.449 -10.356   0.986  1.00  0.00     0.210 HD
ENDBRANCH  22  30
ENDBRANCH   1  17
TORSDOF 12
ENDMDL
MODEL 9
REMARK VINA RESULT:      -4.5     24.793     27.761
REMARK  12 active torsions:
REMARK  status: ('A' for Active; 'I' for Inactive)
REMARK    1  A    between atoms: C_1  and  C_2 
REMARK    2  A    between atoms: C_1  and  O_23 
REMARK    3  A    between atoms: C_3  and  O_22 
REMARK    4  A    between atoms: C_4  and  O_21 
REMARK    5  A    between atoms: C_5  and  O_20 
REMARK    6  A    between atoms: C_6  and  O_8 
REMARK    7  A    between atoms: O_8  and  C_9 
REMARK    8  A    between atoms: C_10  and  C_18 
REMARK    9  A    between atoms: C_12  and  O_17 
REMARK   10  A    between atoms: C_13  and  O_16 
REMARK   11  A    between atoms: C_14  and  O_15 
REMARK   12  A    between atoms: C_18  and  O_19 
ROOT
HETATM    1  O   UNL     1     -17.990   8.861   4.474  1.00  0.00    -0.348 OA
ENDROOT
BRANCH   1   2
HETATM    2  C   UNL     1     -19.273   9.470   4.214  1.00  0.00     0.292 C 
HETATM    3  C   UNL     1     -19.698  10.295   5.440  1.00  0.00     0.204 C 
HETATM    4  C   UNL     1     -21.056  10.936   5.128  1.00  0.00     0.183 C 
HETATM    5  C   UNL     1     -22.108   9.859   4.794  1.00  0.00     0.180 C 
HETATM    6  C   UNL     1     -21.586   8.907   3.697  1.00  0.00     0.179 C 
HETATM    7  O   UNL     1     -20.246   8.461   3.978  1.00  0.00    -0.348 OA
BRANCH   3   8
HETATM    8  O   UNL     1     -19.833   9.442   6.599  1.00  0.00    -0.388 OA
HETATM    9  H   UNL     1     -20.537   9.847   7.145  1.00  0.00     0.210 HD
ENDBRANCH   3   8
BRANCH   4  10
HETATM   10  O   UNL     1     -21.488  11.734   6.233  1.00  0.00    -0.390 OA
HETATM   11  H   UNL     1     -21.406  11.159   7.021  1.00  0.00     0.210 HD
ENDBRANCH   4  10
BRANCH   5  12
HETATM   12  O   UNL     1     -22.423   9.101   5.978  1.00  0.00    -0.390 OA
HETATM   13  H   UNL     1     -22.894   8.299   5.671  1.00  0.00     0.210 HD
ENDBRANCH   5  12
BRANCH   6  14
HETATM   14  C   UNL     1     -21.686   9.521   2.290  1.00  0.00     0.198 C 
BRANCH  14  15
HETATM   15  O   UNL     1     -22.602   8.788   1.476  1.00  0.00    -0.398 OA
HETATM   16  H   UNL     1     -22.953   9.398   0.801  1.00  0.00     0.209 HD
ENDBRANCH  14  15
ENDBRANCH   6  14
ENDBRANCH   1   2
BRANCH   1  17
HETATM   17  C   UNL     1     -16.915   9.842   4.453  1.00  0.00     0.187 C 
HETATM   18  C   UNL     1     -16.162   9.847   3.104  1.00  0.00     0.180 C 
HETATM   19  O   UNL     1     -15.467   8.620   2.889  1.00  0.00    -0.349 OA
HETATM   20  C   UNL     1     -14.523   8.257   3.874  1.00  0.00     0.288 C 
HETATM   21  C   UNL     1     -15.087   8.265   5.312  1.00  0.00     0.204 C 
HETATM   22  C   UNL     1     -15.927   9.522   5.587  1.00  0.00     0.183 C 
BRANCH  18  23
HETATM   23  C   UNL     1     -15.303  11.107   2.930  1.00  0.00     0.198 C 
BRANCH  23  24
HETATM   24  O   UNL     1     -14.535  10.985   1.731  1.00  0.00    -0.398 OA
HETATM   25  H   UNL     1     -14.260  10.050   1.662  1.00  0.00     0.209 HD
ENDBRANCH  23  24
ENDBRANCH  18  23
BRANCH  20  26
HETATM   26  O   UNL     1     -13.359   9.063   3.769  1.00  0.00    -0.369 OA
HETATM   27  H   UNL     1     -13.561   9.778   3.132  1.00  0.00     0.212 HD
ENDBRANCH  20  26
BRANCH  21  28
HETATM   28  O   UNL     1     -13.983   8.231   6.239  1.00  0.00    -0.388 OA
HETATM   29  H   UNL     1     -13.880   9.123   6.622  1.00  0.00     0.210 HD
ENDBRANCH  21  28
BRANCH  22  30
HETATM   30  O   UNL     1     -16.652   9.397   6.824  1.00  0.00    -0.390 OA
HETATM   31  H   UNL     1     -17.314  10.111   6.834  1.00  0.00     0.210 HD
ENDBRANCH  22  30
ENDBRANCH   1  17
TORSDOF 12
ENDMDL
