MODEL 1
REMARK VINA RESULT:      -6.7      0.000      0.000
REMARK  16 active torsions:
REMARK  status: ('A' for Active; 'I' for Inactive)
REMARK    1  A    between atoms: C_2  and  C_3 
REMARK    2  A    between atoms: C_3  and  C_4 
REMARK    3  A    between atoms: C_4  and  C_5 
REMARK    4  A    between atoms: C_5  and  C_6 
REMARK    5  A    between atoms: C_6  and  C_7 
REMARK    6  A    between atoms: C_7  and  C_8 
REMARK    7  A    between atoms: C_8  and  C_9 
REMARK    8  A    between atoms: C_9  and  C_10 
REMARK    9  A    between atoms: C_10  and  C_11 
REMARK   10  A    between atoms: C_11  and  C_12 
REMARK   11  A    between atoms: C_12  and  N_13 
REMARK   12  A    between atoms: N_13  and  C_16 
REMARK   13  A    between atoms: C_16  and  C_17 
REMARK   14  A    between atoms: C_17  and  C_18 
REMARK   15  A    between atoms: C_17  and  O_23 
REMARK   16  A    between atoms: C_18  and  S_19 
ROOT
HETATM    1  C   UNL     1     -22.656  -4.716  -8.469  1.00  0.00     0.236 C 
ENDROOT
BRANCH   1   2
HETATM    2  C   UNL     1     -21.711  -3.706  -7.826  1.00  0.00     0.028 C 
BRANCH   2   3
HETATM    3  C   UNL     1     -20.746  -4.356  -6.852  1.00  0.00     0.002 C 
BRANCH   3   4
HETATM    4  C   UNL     1     -21.227  -5.779  -6.602  1.00  0.00     0.000 C 
BRANCH   4   5
HETATM    5  C   UNL     1     -20.227  -6.546  -5.766  1.00  0.00     0.000 C 
BRANCH   5   6
HETATM    6  C   UNL     1     -20.795  -7.905  -5.389  1.00  0.00     0.000 C 
BRANCH   6   7
HETATM    7  C   UNL     1     -20.238  -8.313  -4.039  1.00  0.00     0.000 C 
BRANCH   7   8
HETATM    8  C   UNL     1     -21.301  -8.224  -2.958  1.00  0.00     0.000 C 
BRANCH   8   9
HETATM    9  C   UNL     1     -21.321  -6.814  -2.382  1.00  0.00     0.000 C 
BRANCH   9  10
HETATM   10  C   UNL     1     -22.279  -6.729  -1.203  1.00  0.00    -0.000 C 
BRANCH  10  11
HETATM   11  C   UNL     1     -22.082  -7.913  -0.263  1.00  0.00    -0.005 C 
HETATM   12  C   UNL     1     -23.225  -8.008   0.729  1.00  0.00     0.005 C 
ENDBRANCH  10  11
ENDBRANCH   9  10
ENDBRANCH   8   9
ENDBRANCH   7   8
ENDBRANCH   6   7
ENDBRANCH   5   6
ENDBRANCH   4   5
ENDBRANCH   3   4
ENDBRANCH   2   3
ENDBRANCH   1   2
BRANCH   1  13
HETATM   13  N   UNL     1     -23.322  -4.119  -9.733  1.00  0.00    -0.072 N 
HETATM   14  C   UNL     1     -23.899  -5.281 -10.553  1.00  0.00     0.272 C 
HETATM   15  C   UNL     1     -24.421  -3.137  -9.370  1.00  0.00     0.272 C 
BRANCH  13  16
HETATM   16  C   UNL     1     -22.256  -3.443 -10.654  1.00  0.00     0.269 C 
BRANCH  16  17
HETATM   17  C   UNL     1     -22.492  -3.450 -12.184  1.00  0.00     0.160 C 
BRANCH  17  18
HETATM   18  C   UNL     1     -22.978  -2.186 -12.882  1.00  0.00     0.198 C 
BRANCH  18  19
HETATM   19  S   UNL     1     -23.527  -2.491 -14.525  1.00  0.00     0.104 S 
HETATM   20  O   UNL     1     -22.298  -2.452 -15.297  1.00  0.00    -0.595 OA
HETATM   21  O   UNL     1     -24.146  -3.813 -14.418  1.00  0.00    -0.595 OA
HETATM   22  O   UNL     1     -24.473  -1.397 -14.728  1.00  0.00    -0.595 OA
ENDBRANCH  18  19
ENDBRANCH  17  18
BRANCH  17  23
HETATM   23  O   UNL     1     -21.281  -3.929 -12.807  1.00  0.00    -0.393 OA
HETATM   24  H   UNL     1     -21.249  -4.911 -12.650  1.00  0.00     0.210 HD
ENDBRANCH  17  23
ENDBRANCH  16  17
ENDBRANCH  13  16
ENDBRANCH   1  13
TORSDOF 16
ENDMDL
MODEL 2
REMARK VINA RESULT:      -6.6      2.189      3.522
REMARK  16 active torsions:
REMARK  status: ('A' for Active; 'I' for Inactive)
REMARK    1  A    between atoms: C_2  and  C_3 
REMARK    2  A    between atoms: C_3  and  C_4 
REMARK    3  A    between atoms: C_4  and  C_5 
REMARK    4  A    between atoms: C_5  and  C_6 
REMARK    5  A    between atoms: C_6  and  C_7 
REMARK    6  A    between atoms: C_7  and  C_8 
REMARK    7  A    between atoms: C_8  and  C_9 
REMARK    8  A    between atoms: C_9  and  C_10 
REMARK    9  A    between atoms: C_10  and  C_11 
REMARK   10  A    between atoms: C_11  and  C_12 
REMARK   11  A    between atoms: C_12  and  N_13 
REMARK   12  A    between atoms: N_13  and  C_16 
REMARK   13  A    between atoms: C_16  and  C_17 
REMARK   14  A    between atoms: C_17  and  C_18 
REMARK   15  A    between atoms: C_17  and  O_23 
REMARK   16  A    between atoms: C_18  and  S_19 
ROOT
HETATM    1  C   UNL     1     -20.845  -6.090  -7.238  1.00  0.00     0.236 C 
ENDROOT
BRANCH   1   2
HETATM    2  C   UNL     1     -21.472  -6.012  -5.851  1.00  0.00     0.028 C 
BRANCH   2   3
HETATM    3  C   UNL     1     -20.640  -6.722  -4.798  1.00  0.00     0.002 C 
BRANCH   3   4
HETATM    4  C   UNL     1     -21.598  -7.443  -3.859  1.00  0.00     0.000 C 
BRANCH   4   5
HETATM    5  C   UNL     1     -21.827  -6.637  -2.601  1.00  0.00     0.000 C 
BRANCH   5   6
HETATM    6  C   UNL     1     -21.496  -7.475  -1.376  1.00  0.00     0.000 C 
BRANCH   6   7
HETATM    7  C   UNL     1     -22.512  -7.181  -0.290  1.00  0.00     0.000 C 
BRANCH   7   8
HETATM    8  C   UNL     1     -22.993  -8.461   0.372  1.00  0.00     0.000 C 
BRANCH   8   9
HETATM    9  C   UNL     1     -22.295  -9.654  -0.266  1.00  0.00     0.000 C 
BRANCH   9  10
HETATM   10  C   UNL     1     -23.303 -10.555  -0.965  1.00  0.00    -0.000 C 
BRANCH  10  11
HETATM   11  C   UNL     1     -23.887 -11.568   0.013  1.00  0.00    -0.005 C 
HETATM   12  C   UNL     1     -22.786 -12.401   0.645  1.00  0.00     0.005 C 
ENDBRANCH  10  11
ENDBRANCH   9  10
ENDBRANCH   8   9
ENDBRANCH   7   8
ENDBRANCH   6   7
ENDBRANCH   5   6
ENDBRANCH   4   5
ENDBRANCH   3   4
ENDBRANCH   2   3
ENDBRANCH   1   2
BRANCH   1  13
HETATM   13  N   UNL     1     -21.163  -4.816  -8.058  1.00  0.00    -0.072 N 
HETATM   14  C   UNL     1     -21.229  -3.633  -7.083  1.00  0.00     0.272 C 
HETATM   15  C   UNL     1     -20.108  -4.562  -9.120  1.00  0.00     0.272 C 
BRANCH  13  16
HETATM   16  C   UNL     1     -22.585  -4.911  -8.700  1.00  0.00     0.269 C 
BRANCH  16  17
HETATM   17  C   UNL     1     -22.930  -3.959  -9.872  1.00  0.00     0.160 C 
BRANCH  17  18
HETATM   18  C   UNL     1     -23.411  -4.534 -11.199  1.00  0.00     0.198 C 
BRANCH  18  19
HETATM   19  S   UNL     1     -24.048  -3.298 -12.277  1.00  0.00     0.104 S 
HETATM   20  O   UNL     1     -23.032  -2.262 -12.231  1.00  0.00    -0.595 OA
HETATM   21  O   UNL     1     -24.149  -4.006 -13.554  1.00  0.00    -0.595 OA
HETATM   22  O   UNL     1     -25.333  -2.996 -11.653  1.00  0.00    -0.595 OA
ENDBRANCH  18  19
ENDBRANCH  17  18
BRANCH  17  23
HETATM   23  O   UNL     1     -23.877  -2.989  -9.376  1.00  0.00    -0.393 OA
HETATM   24  H   UNL     1     -24.074  -2.371 -10.131  1.00  0.00     0.210 HD
ENDBRANCH  17  23
ENDBRANCH  16  17
ENDBRANCH  13  16
ENDBRANCH   1  13
TORSDOF 16
ENDMDL
MODEL 3
REMARK VINA RESULT:      -6.2      2.160      3.570
REMARK  16 active torsions:
REMARK  status: ('A' for Active; 'I' for Inactive)
REMARK    1  A    between atoms: C_2  and  C_3 
REMARK    2  A    between atoms: C_3  and  C_4 
REMARK    3  A    between atoms: C_4  and  C_5 
REMARK    4  A    between atoms: C_5  and  C_6 
REMARK    5  A    between atoms: C_6  and  C_7 
REMARK    6  A    between atoms: C_7  and  C_8 
REMARK    7  A    between atoms: C_8  and  C_9 
REMARK    8  A    between atoms: C_9  and  C_10 
REMARK    9  A    between atoms: C_10  and  C_11 
REMARK   10  A    between atoms: C_11  and  C_12 
REMARK   11  A    between atoms: C_12  and  N_13 
REMARK   12  A    between atoms: N_13  and  C_16 
REMARK   13  A    between atoms: C_16  and  C_17 
REMARK   14  A    between atoms: C_17  and  C_18 
REMARK   15  A    between atoms: C_17  and  O_23 
REMARK   16  A    between atoms: C_18  and  S_19 
ROOT
HETATM    1  C   UNL     1     -21.870  -5.681  -6.088  1.00  0.00     0.236 C 
ENDROOT
BRANCH   1   2
HETATM    2  C   UNL     1     -20.888  -6.412  -5.178  1.00  0.00     0.028 C 
BRANCH   2   3
HETATM    3  C   UNL     1     -21.288  -7.857  -4.939  1.00  0.00     0.002 C 
BRANCH   3   4
HETATM    4  C   UNL     1     -20.067  -8.592  -4.401  1.00  0.00     0.000 C 
BRANCH   4   5
HETATM    5  C   UNL     1     -20.462  -9.569  -3.316  1.00  0.00     0.000 C 
BRANCH   5   6
HETATM    6  C   UNL     1     -21.977  -9.655  -3.217  1.00  0.00     0.000 C 
BRANCH   6   7
HETATM    7  C   UNL     1     -22.352 -10.960  -2.541  1.00  0.00     0.000 C 
BRANCH   7   8
HETATM    8  C   UNL     1     -23.263 -10.717  -1.350  1.00  0.00     0.000 C 
BRANCH   8   9
HETATM    9  C   UNL     1     -22.463 -10.087  -0.219  1.00  0.00     0.000 C 
BRANCH   9  10
HETATM   10  C   UNL     1     -22.983  -8.692   0.095  1.00  0.00    -0.000 C 
BRANCH  10  11
HETATM   11  C   UNL     1     -21.896  -7.649  -0.136  1.00  0.00    -0.005 C 
HETATM   12  C   UNL     1     -22.271  -6.726  -1.282  1.00  0.00     0.005 C 
ENDBRANCH  10  11
ENDBRANCH   9  10
ENDBRANCH   8   9
ENDBRANCH   7   8
ENDBRANCH   6   7
ENDBRANCH   5   6
ENDBRANCH   4   5
ENDBRANCH   3   4
ENDBRANCH   2   3
ENDBRANCH   1   2
BRANCH   1  13
HETATM   13  N   UNL     1     -21.126  -4.981  -7.251  1.00  0.00    -0.072 N 
HETATM   14  C   UNL     1     -21.078  -3.479  -6.942  1.00  0.00     0.272 C 
HETATM   15  C   UNL     1     -19.719  -5.528  -7.417  1.00  0.00     0.272 C 
BRANCH  13  16
HETATM   16  C   UNL     1     -21.933  -5.111  -8.583  1.00  0.00     0.269 C 
BRANCH  16  17
HETATM   17  C   UNL     1     -22.781  -3.904  -9.052  1.00  0.00     0.160 C 
BRANCH  17  18
HETATM   18  C   UNL     1     -22.529  -3.289 -10.424  1.00  0.00     0.198 C 
BRANCH  18  19
HETATM   19  S   UNL     1     -23.674  -3.853 -11.635  1.00  0.00     0.104 S 
HETATM   20  O   UNL     1     -23.061  -3.445 -12.886  1.00  0.00    -0.595 OA
HETATM   21  O   UNL     1     -23.703  -5.298 -11.404  1.00  0.00    -0.595 OA
HETATM   22  O   UNL     1     -24.893  -3.154 -11.235  1.00  0.00    -0.595 OA
ENDBRANCH  18  19
ENDBRANCH  17  18
BRANCH  17  23
HETATM   23  O   UNL     1     -24.169  -4.272  -8.918  1.00  0.00    -0.393 OA
HETATM   24  H   UNL     1     -24.667  -3.767  -9.616  1.00  0.00     0.210 HD
ENDBRANCH  17  23
ENDBRANCH  16  17
ENDBRANCH  13  16
ENDBRANCH   1  13
TORSDOF 16
ENDMDL
MODEL 4
REMARK VINA RESULT:      -5.9      6.922     10.293
REMARK  16 active torsions:
REMARK  status: ('A' for Active; 'I' for Inactive)
REMARK    1  A    between atoms: C_2  and  C_3 
REMARK    2  A    between atoms: C_3  and  C_4 
REMARK    3  A    between atoms: C_4  and  C_5 
REMARK    4  A    between atoms: C_5  and  C_6 
REMARK    5  A    between atoms: C_6  and  C_7 
REMARK    6  A    between atoms: C_7  and  C_8 
REMARK    7  A    between atoms: C_8  and  C_9 
REMARK    8  A    between atoms: C_9  and  C_10 
REMARK    9  A    between atoms: C_10  and  C_11 
REMARK   10  A    between atoms: C_11  and  C_12 
REMARK   11  A    between atoms: C_12  and  N_13 
REMARK   12  A    between atoms: N_13  and  C_16 
REMARK   13  A    between atoms: C_16  and  C_17 
REMARK   14  A    between atoms: C_17  and  C_18 
REMARK   15  A    between atoms: C_17  and  O_23 
REMARK   16  A    between atoms: C_18  and  S_19 
ROOT
HETATM    1  C   UNL     1     -21.257  -8.080  -5.252  1.00  0.00     0.236 C 
ENDROOT
BRANCH   1   2
HETATM    2  C   UNL     1     -20.347  -6.857  -5.269  1.00  0.00     0.028 C 
BRANCH   2   3
HETATM    3  C   UNL     1     -20.379  -6.130  -6.601  1.00  0.00     0.002 C 
BRANCH   3   4
HETATM    4  C   UNL     1     -21.632  -5.265  -6.627  1.00  0.00     0.000 C 
BRANCH   4   5
HETATM    5  C   UNL     1     -21.421  -4.038  -7.487  1.00  0.00     0.000 C 
BRANCH   5   6
HETATM    6  C   UNL     1     -20.191  -4.219  -8.362  1.00  0.00     0.000 C 
BRANCH   6   7
HETATM    7  C   UNL     1     -20.611  -4.846  -9.677  1.00  0.00     0.000 C 
BRANCH   7   8
HETATM    8  C   UNL     1     -20.341  -3.909 -10.842  1.00  0.00     0.000 C 
BRANCH   8   9
HETATM    9  C   UNL     1     -21.550  -3.890 -11.767  1.00  0.00     0.000 C 
BRANCH   9  10
HETATM   10  C   UNL     1     -22.648  -3.004 -11.198  1.00  0.00    -0.000 C 
BRANCH  10  11
HETATM   11  C   UNL     1     -23.996  -3.714 -11.257  1.00  0.00    -0.005 C 
HETATM   12  C   UNL     1     -24.194  -4.593 -10.036  1.00  0.00     0.005 C 
ENDBRANCH  10  11
ENDBRANCH   9  10
ENDBRANCH   8   9
ENDBRANCH   7   8
ENDBRANCH   6   7
ENDBRANCH   5   6
ENDBRANCH   4   5
ENDBRANCH   3   4
ENDBRANCH   2   3
ENDBRANCH   1   2
BRANCH   1  13
HETATM   13  N   UNL     1     -20.459  -9.354  -4.883  1.00  0.00    -0.072 N 
HETATM   14  C   UNL     1     -20.921 -10.484  -5.813  1.00  0.00     0.272 C 
HETATM   15  C   UNL     1     -18.964  -9.133  -5.027  1.00  0.00     0.272 C 
BRANCH  13  16
HETATM   16  C   UNL     1     -20.813  -9.830  -3.437  1.00  0.00     0.269 C 
BRANCH  16  17
HETATM   17  C   UNL     1     -21.318  -8.779  -2.418  1.00  0.00     0.160 C 
BRANCH  17  18
HETATM   18  C   UNL     1     -22.216  -9.212  -1.266  1.00  0.00     0.198 C 
BRANCH  18  19
HETATM   19  S   UNL     1     -22.434  -7.943  -0.067  1.00  0.00     0.104 S 
HETATM   20  O   UNL     1     -21.211  -8.010   0.712  1.00  0.00    -0.595 OA
HETATM   21  O   UNL     1     -22.575  -6.741  -0.891  1.00  0.00    -0.595 OA
HETATM   22  O   UNL     1     -23.665  -8.368   0.593  1.00  0.00    -0.595 OA
ENDBRANCH  18  19
ENDBRANCH  17  18
BRANCH  17  23
HETATM   23  O   UNL     1     -20.164  -8.076  -1.913  1.00  0.00    -0.393 OA
HETATM   24  H   UNL     1     -19.375  -8.434  -2.403  1.00  0.00     0.210 HD
ENDBRANCH  17  23
ENDBRANCH  16  17
ENDBRANCH  13  16
ENDBRANCH   1  13
TORSDOF 16
ENDMDL
MODEL 5
REMARK VINA RESULT:      -5.7      6.059     10.177
REMARK  16 active torsions:
REMARK  status: ('A' for Active; 'I' for Inactive)
REMARK    1  A    between atoms: C_2  and  C_3 
REMARK    2  A    between atoms: C_3  and  C_4 
REMARK    3  A    between atoms: C_4  and  C_5 
REMARK    4  A    between atoms: C_5  and  C_6 
REMARK    5  A    between atoms: C_6  and  C_7 
REMARK    6  A    between atoms: C_7  and  C_8 
REMARK    7  A    between atoms: C_8  and  C_9 
REMARK    8  A    between atoms: C_9  and  C_10 
REMARK    9  A    between atoms: C_10  and  C_11 
REMARK   10  A    between atoms: C_11  and  C_12 
REMARK   11  A    between atoms: C_12  and  N_13 
REMARK   12  A    between atoms: N_13  and  C_16 
REMARK   13  A    between atoms: C_16  and  C_17 
REMARK   14  A    between atoms: C_17  and  C_18 
REMARK   15  A    between atoms: C_17  and  O_23 
REMARK   16  A    between atoms: C_18  and  S_19 
ROOT
HETATM    1  C   UNL     1     -21.154  -8.103  -0.441  1.00  0.00     0.236 C 
ENDROOT
BRANCH   1   2
HETATM    2  C   UNL     1     -22.384  -7.224  -0.640  1.00  0.00     0.028 C 
BRANCH   2   3
HETATM    3  C   UNL     1     -22.220  -6.251  -1.793  1.00  0.00     0.002 C 
BRANCH   3   4
HETATM    4  C   UNL     1     -21.268  -6.883  -2.801  1.00  0.00     0.000 C 
BRANCH   4   5
HETATM    5  C   UNL     1     -21.728  -6.614  -4.216  1.00  0.00     0.000 C 
BRANCH   5   6
HETATM    6  C   UNL     1     -20.857  -5.544  -4.854  1.00  0.00     0.000 C 
BRANCH   6   7
HETATM    7  C   UNL     1     -20.936  -5.680  -6.362  1.00  0.00     0.000 C 
BRANCH   7   8
HETATM    8  C   UNL     1     -20.450  -4.417  -7.053  1.00  0.00     0.000 C 
BRANCH   8   9
HETATM    9  C   UNL     1     -20.008  -4.753  -8.470  1.00  0.00     0.000 C 
BRANCH   9  10
HETATM   10  C   UNL     1     -21.113  -4.435  -9.467  1.00  0.00    -0.000 C 
BRANCH  10  11
HETATM   11  C   UNL     1     -20.523  -4.085 -10.829  1.00  0.00    -0.005 C 
HETATM   12  C   UNL     1     -21.621  -3.903 -11.860  1.00  0.00     0.005 C 
ENDBRANCH  10  11
ENDBRANCH   9  10
ENDBRANCH   8   9
ENDBRANCH   7   8
ENDBRANCH   6   7
ENDBRANCH   5   6
ENDBRANCH   4   5
ENDBRANCH   3   4
ENDBRANCH   2   3
ENDBRANCH   1   2
BRANCH   1  13
HETATM   13  N   UNL     1     -21.551  -9.598  -0.373  1.00  0.00    -0.072 N 
HETATM   14  C   UNL     1     -20.903 -10.199   0.881  1.00  0.00     0.272 C 
HETATM   15  C   UNL     1     -23.059  -9.769  -0.317  1.00  0.00     0.272 C 
BRANCH  13  16
HETATM   16  C   UNL     1     -20.947 -10.387  -1.578  1.00  0.00     0.269 C 
BRANCH  16  17
HETATM   17  C   UNL     1     -21.918 -11.076  -2.569  1.00  0.00     0.160 C 
BRANCH  17  18
HETATM   18  C   UNL     1     -22.161 -10.461  -3.942  1.00  0.00     0.198 C 
BRANCH  18  19
HETATM   19  S   UNL     1     -20.977 -10.986  -5.134  1.00  0.00     0.104 S 
HETATM   20  O   UNL     1     -20.989  -9.909  -6.108  1.00  0.00    -0.595 OA
HETATM   21  O   UNL     1     -19.749 -11.090  -4.345  1.00  0.00    -0.595 OA
HETATM   22  O   UNL     1     -21.533 -12.269  -5.556  1.00  0.00    -0.595 OA
ENDBRANCH  18  19
ENDBRANCH  17  18
BRANCH  17  23
HETATM   23  O   UNL     1     -21.495 -12.449  -2.705  1.00  0.00    -0.393 OA
HETATM   24  H   UNL     1     -22.246 -13.013  -2.378  1.00  0.00     0.210 HD
ENDBRANCH  17  23
ENDBRANCH  16  17
ENDBRANCH  13  16
ENDBRANCH   1  13
TORSDOF 16
ENDMDL
MODEL 6
REMARK VINA RESULT:      -5.6      7.620     10.812
REMARK  16 active torsions:
REMARK  status: ('A' for Active; 'I' for Inactive)
REMARK    1  A    between atoms: C_2  and  C_3 
REMARK    2  A    between atoms: C_3  and  C_4 
REMARK    3  A    between atoms: C_4  and  C_5 
REMARK    4  A    between atoms: C_5  and  C_6 
REMARK    5  A    between atoms: C_6  and  C_7 
REMARK    6  A    between atoms: C_7  and  C_8 
REMARK    7  A    between atoms: C_8  and  C_9 
REMARK    8  A    between atoms: C_9  and  C_10 
REMARK    9  A    between atoms: C_10  and  C_11 
REMARK   10  A    between atoms: C_11  and  C_12 
REMARK   11  A    between atoms: C_12  and  N_13 
REMARK   12  A    between atoms: N_13  and  C_16 
REMARK   13  A    between atoms: C_16  and  C_17 
REMARK   14  A    between atoms: C_17  and  C_18 
REMARK   15  A    between atoms: C_17  and  O_23 
REMARK   16  A    between atoms: C_18  and  S_19 
ROOT
HETATM    1  C   UNL     1     -19.387  -8.823  -5.161  1.00  0.00     0.236 C 
ENDROOT
BRANCH   1   2
HETATM    2  C   UNL     1     -20.308  -7.663  -4.799  1.00  0.00     0.028 C 
BRANCH   2   3
HETATM    3  C   UNL     1     -20.842  -6.943  -6.024  1.00  0.00     0.002 C 
BRANCH   3   4
HETATM    4  C   UNL     1     -20.814  -5.449  -5.732  1.00  0.00     0.000 C 
BRANCH   4   5
HETATM    5  C   UNL     1     -19.687  -4.775  -6.483  1.00  0.00     0.000 C 
BRANCH   5   6
HETATM    6  C   UNL     1     -20.233  -4.053  -7.705  1.00  0.00     0.000 C 
BRANCH   6   7
HETATM    7  C   UNL     1     -21.713  -3.793  -7.503  1.00  0.00     0.000 C 
BRANCH   7   8
HETATM    8  C   UNL     1     -22.447  -3.747  -8.832  1.00  0.00     0.000 C 
BRANCH   8   9
HETATM    9  C   UNL     1     -21.571  -4.357  -9.917  1.00  0.00     0.000 C 
BRANCH   9  10
HETATM   10  C   UNL     1     -22.182  -4.131 -11.292  1.00  0.00    -0.000 C 
BRANCH  10  11
HETATM   11  C   UNL     1     -23.169  -2.969 -11.256  1.00  0.00    -0.005 C 
HETATM   12  C   UNL     1     -24.297  -3.192 -12.246  1.00  0.00     0.005 C 
ENDBRANCH  10  11
ENDBRANCH   9  10
ENDBRANCH   8   9
ENDBRANCH   7   8
ENDBRANCH   6   7
ENDBRANCH   5   6
ENDBRANCH   4   5
ENDBRANCH   3   4
ENDBRANCH   2   3
ENDBRANCH   1   2
BRANCH   1  13
HETATM   13  N   UNL     1     -19.253  -9.810  -3.976  1.00  0.00    -0.072 N 
HETATM   14  C   UNL     1     -18.588 -11.089  -4.503  1.00  0.00     0.272 C 
HETATM   15  C   UNL     1     -18.427  -9.215  -2.850  1.00  0.00     0.272 C 
BRANCH  13  16
HETATM   16  C   UNL     1     -20.661 -10.250  -3.460  1.00  0.00     0.269 C 
BRANCH  16  17
HETATM   17  C   UNL     1     -21.011 -10.004  -1.972  1.00  0.00     0.160 C 
BRANCH  17  18
HETATM   18  C   UNL     1     -21.958  -8.872  -1.594  1.00  0.00     0.198 C 
BRANCH  18  19
HETATM   19  S   UNL     1     -22.609  -9.053   0.031  1.00  0.00     0.104 S 
HETATM   20  O   UNL     1     -23.114  -7.726   0.335  1.00  0.00    -0.595 OA
HETATM   21  O   UNL     1     -23.638 -10.079  -0.146  1.00  0.00    -0.595 OA
HETATM   22  O   UNL     1     -21.433  -9.501   0.772  1.00  0.00    -0.595 OA
ENDBRANCH  18  19
ENDBRANCH  17  18
BRANCH  17  23
HETATM   23  O   UNL     1     -21.484 -11.254  -1.426  1.00  0.00    -0.393 OA
HETATM   24  H   UNL     1     -20.851 -11.506  -0.701  1.00  0.00     0.210 HD
ENDBRANCH  17  23
ENDBRANCH  16  17
ENDBRANCH  13  16
ENDBRANCH   1  13
TORSDOF 16
ENDMDL
MODEL 7
REMARK VINA RESULT:      -5.5      6.930     10.422
REMARK  16 active torsions:
REMARK  status: ('A' for Active; 'I' for Inactive)
REMARK    1  A    between atoms: C_2  and  C_3 
REMARK    2  A    between atoms: C_3  and  C_4 
REMARK    3  A    between atoms: C_4  and  C_5 
REMARK    4  A    between atoms: C_5  and  C_6 
REMARK    5  A    between atoms: C_6  and  C_7 
REMARK    6  A    between atoms: C_7  and  C_8 
REMARK    7  A    between atoms: C_8  and  C_9 
REMARK    8  A    between atoms: C_9  and  C_10 
REMARK    9  A    between atoms: C_10  and  C_11 
REMARK   10  A    between atoms: C_11  and  C_12 
REMARK   11  A    between atoms: C_12  and  N_13 
REMARK   12  A    between atoms: N_13  and  C_16 
REMARK   13  A    between atoms: C_16  and  C_17 
REMARK   14  A    between atoms: C_17  and  C_18 
REMARK   15  A    between atoms: C_17  and  O_23 
REMARK   16  A    between atoms: C_18  and  S_19 
ROOT
HETATM    1  C   UNL     1     -21.145  -8.206  -4.809  1.00  0.00     0.236 C 
ENDROOT
BRANCH   1   2
HETATM    2  C   UNL     1     -20.363  -7.078  -5.474  1.00  0.00     0.028 C 
BRANCH   2   3
HETATM    3  C   UNL     1     -21.048  -5.732  -5.323  1.00  0.00     0.002 C 
BRANCH   3   4
HETATM    4  C   UNL     1     -21.477  -5.272  -6.710  1.00  0.00     0.000 C 
BRANCH   4   5
HETATM    5  C   UNL     1     -20.957  -3.882  -7.001  1.00  0.00     0.000 C 
BRANCH   5   6
HETATM    6  C   UNL     1     -19.893  -3.939  -8.086  1.00  0.00     0.000 C 
BRANCH   6   7
HETATM    7  C   UNL     1     -20.366  -4.863  -9.191  1.00  0.00     0.000 C 
BRANCH   7   8
HETATM    8  C   UNL     1     -20.433  -4.136 -10.522  1.00  0.00     0.000 C 
BRANCH   8   9
HETATM    9  C   UNL     1     -21.819  -3.532 -10.701  1.00  0.00     0.000 C 
BRANCH   9  10
HETATM   10  C   UNL     1     -22.838  -4.613 -11.029  1.00  0.00    -0.000 C 
BRANCH  10  11
HETATM   11  C   UNL     1     -23.894  -4.706  -9.934  1.00  0.00    -0.005 C 
HETATM   12  C   UNL     1     -24.451  -3.333  -9.605  1.00  0.00     0.005 C 
ENDBRANCH  10  11
ENDBRANCH   9  10
ENDBRANCH   8   9
ENDBRANCH   7   8
ENDBRANCH   6   7
ENDBRANCH   5   6
ENDBRANCH   4   5
ENDBRANCH   3   4
ENDBRANCH   2   3
ENDBRANCH   1   2
BRANCH   1  13
HETATM   13  N   UNL     1     -20.194  -9.154  -4.037  1.00  0.00    -0.072 N 
HETATM   14  C   UNL     1     -20.682 -10.591  -4.260  1.00  0.00     0.272 C 
HETATM   15  C   UNL     1     -18.760  -9.007  -4.513  1.00  0.00     0.272 C 
BRANCH  13  16
HETATM   16  C   UNL     1     -20.297  -8.908  -2.498  1.00  0.00     0.269 C 
BRANCH  16  17
HETATM   17  C   UNL     1     -21.702  -8.751  -1.868  1.00  0.00     0.160 C 
BRANCH  17  18
HETATM   18  C   UNL     1     -22.065  -9.541  -0.617  1.00  0.00     0.198 C 
BRANCH  18  19
HETATM   19  S   UNL     1     -22.730 -11.127  -0.990  1.00  0.00     0.104 S 
HETATM   20  O   UNL     1     -21.552 -11.972  -1.063  1.00  0.00    -0.595 OA
HETATM   21  O   UNL     1     -23.606 -11.387   0.153  1.00  0.00    -0.595 OA
HETATM   22  O   UNL     1     -23.435 -10.863  -2.242  1.00  0.00    -0.595 OA
ENDBRANCH  18  19
ENDBRANCH  17  18
BRANCH  17  23
HETATM   23  O   UNL     1     -21.923  -7.342  -1.648  1.00  0.00    -0.393 OA
HETATM   24  H   UNL     1     -22.635  -7.268  -0.957  1.00  0.00     0.210 HD
ENDBRANCH  17  23
ENDBRANCH  16  17
ENDBRANCH  13  16
ENDBRANCH   1  13
TORSDOF 16
ENDMDL
MODEL 8
REMARK VINA RESULT:      -5.4      6.020      9.520
REMARK  16 active torsions:
REMARK  status: ('A' for Active; 'I' for Inactive)
REMARK    1  A    between atoms: C_2  and  C_3 
REMARK    2  A    between atoms: C_3  and  C_4 
REMARK    3  A    between atoms: C_4  and  C_5 
REMARK    4  A    between atoms: C_5  and  C_6 
REMARK    5  A    between atoms: C_6  and  C_7 
REMARK    6  A    between atoms: C_7  and  C_8 
REMARK    7  A    between atoms: C_8  and  C_9 
REMARK    8  A    between atoms: C_9  and  C_10 
REMARK    9  A    between atoms: C_10  and  C_11 
REMARK   10  A    between atoms: C_11  and  C_12 
REMARK   11  A    between atoms: C_12  and  N_13 
REMARK   12  A    between atoms: N_13  and  C_16 
REMARK   13  A    between atoms: C_16  and  C_17 
REMARK   14  A    between atoms: C_17  and  C_18 
REMARK   15  A    between atoms: C_17  and  O_23 
REMARK   16  A    between atoms: C_18  and  S_19 
ROOT
HETATM    1  C   UNL     1     -20.503  -9.469  -1.498  1.00  0.00     0.236 C 
ENDROOT
BRANCH   1   2
HETATM    2  C   UNL     1     -20.474  -7.961  -1.722  1.00  0.00     0.028 C 
BRANCH   2   3
HETATM    3  C   UNL     1     -21.816  -7.309  -1.441  1.00  0.00     0.002 C 
BRANCH   3   4
HETATM    4  C   UNL     1     -21.979  -6.149  -2.414  1.00  0.00     0.000 C 
BRANCH   4   5
HETATM    5  C   UNL     1     -21.785  -6.612  -3.841  1.00  0.00     0.000 C 
BRANCH   5   6
HETATM    6  C   UNL     1     -20.931  -5.612  -4.603  1.00  0.00     0.000 C 
BRANCH   6   7
HETATM    7  C   UNL     1     -20.328  -6.301  -5.812  1.00  0.00     0.000 C 
BRANCH   7   8
HETATM    8  C   UNL     1     -19.897  -5.290  -6.861  1.00  0.00     0.000 C 
BRANCH   8   9
HETATM    9  C   UNL     1     -21.079  -4.402  -7.225  1.00  0.00     0.000 C 
BRANCH   9  10
HETATM   10  C   UNL     1     -21.776  -4.919  -8.475  1.00  0.00    -0.000 C 
BRANCH  10  11
HETATM   11  C   UNL     1     -21.554  -3.968  -9.645  1.00  0.00    -0.005 C 
HETATM   12  C   UNL     1     -20.357  -4.402 -10.471  1.00  0.00     0.005 C 
ENDBRANCH  10  11
ENDBRANCH   9  10
ENDBRANCH   8   9
ENDBRANCH   7   8
ENDBRANCH   6   7
ENDBRANCH   5   6
ENDBRANCH   4   5
ENDBRANCH   3   4
ENDBRANCH   2   3
ENDBRANCH   1   2
BRANCH   1  13
HETATM   13  N   UNL     1     -19.847 -10.215  -2.686  1.00  0.00    -0.072 N 
HETATM   14  C   UNL     1     -18.904  -9.233  -3.394  1.00  0.00     0.272 C 
HETATM   15  C   UNL     1     -19.076 -11.436  -2.216  1.00  0.00     0.272 C 
BRANCH  13  16
HETATM   16  C   UNL     1     -20.919 -10.612  -3.751  1.00  0.00     0.269 C 
BRANCH  16  17
HETATM   17  C   UNL     1     -20.465 -10.796  -5.221  1.00  0.00     0.160 C 
BRANCH  17  18
HETATM   18  C   UNL     1     -20.597 -12.160  -5.888  1.00  0.00     0.198 C 
BRANCH  18  19
HETATM   19  S   UNL     1     -19.280 -12.493  -7.006  1.00  0.00     0.104 S 
HETATM   20  O   UNL     1     -19.958 -13.059  -8.158  1.00  0.00    -0.595 OA
HETATM   21  O   UNL     1     -18.698 -11.167  -7.223  1.00  0.00    -0.595 OA
HETATM   22  O   UNL     1     -18.445 -13.395  -6.217  1.00  0.00    -0.595 OA
ENDBRANCH  18  19
ENDBRANCH  17  18
BRANCH  17  23
HETATM   23  O   UNL     1     -21.132  -9.788  -6.009  1.00  0.00    -0.393 OA
HETATM   24  H   UNL     1     -21.760  -9.318  -5.398  1.00  0.00     0.210 HD
ENDBRANCH  17  23
ENDBRANCH  16  17
ENDBRANCH  13  16
ENDBRANCH   1  13
TORSDOF 16
ENDMDL
MODEL 9
REMARK VINA RESULT:      -5.3      8.088     11.350
REMARK  16 active torsions:
REMARK  status: ('A' for Active; 'I' for Inactive)
REMARK    1  A    between atoms: C_2  and  C_3 
REMARK    2  A    between atoms: C_3  and  C_4 
REMARK    3  A    between atoms: C_4  and  C_5 
REMARK    4  A    between atoms: C_5  and  C_6 
REMARK    5  A    between atoms: C_6  and  C_7 
REMARK    6  A    between atoms: C_7  and  C_8 
REMARK    7  A    between atoms: C_8  and  C_9 
REMARK    8  A    between atoms: C_9  and  C_10 
REMARK    9  A    between atoms: C_10  and  C_11 
REMARK   10  A    between atoms: C_11  and  C_12 
REMARK   11  A    between atoms: C_12  and  N_13 
REMARK   12  A    between atoms: N_13  and  C_16 
REMARK   13  A    between atoms: C_16  and  C_17 
REMARK   14  A    between atoms: C_17  and  C_18 
REMARK   15  A    between atoms: C_17  and  O_23 
REMARK   16  A    between atoms: C_18  and  S_19 
ROOT
HETATM    1  C   UNL     1     -20.956  -8.911  -4.408  1.00  0.00     0.236 C 
ENDROOT
BRANCH   1   2
HETATM    2  C   UNL     1     -21.847  -7.723  -4.755  1.00  0.00     0.028 C 
BRANCH   2   3
HETATM    3  C   UNL     1     -21.247  -6.847  -5.840  1.00  0.00     0.002 C 
BRANCH   3   4
HETATM    4  C   UNL     1     -20.720  -5.582  -5.175  1.00  0.00     0.000 C 
BRANCH   4   5
HETATM    5  C   UNL     1     -20.423  -4.517  -6.207  1.00  0.00     0.000 C 
BRANCH   5   6
HETATM    6  C   UNL     1     -20.849  -4.992  -7.587  1.00  0.00     0.000 C 
BRANCH   6   7
HETATM    7  C   UNL     1     -19.979  -4.317  -8.630  1.00  0.00     0.000 C 
BRANCH   7   8
HETATM    8  C   UNL     1     -20.540  -4.521 -10.026  1.00  0.00     0.000 C 
BRANCH   8   9
HETATM    9  C   UNL     1     -21.745  -3.612 -10.226  1.00  0.00     0.000 C 
BRANCH   9  10
HETATM   10  C   UNL     1     -21.712  -2.972 -11.606  1.00  0.00    -0.000 C 
BRANCH  10  11
HETATM   11  C   UNL     1     -23.092  -3.021 -12.253  1.00  0.00    -0.005 C 
HETATM   12  C   UNL     1     -24.159  -3.334 -11.221  1.00  0.00     0.005 C 
ENDBRANCH  10  11
ENDBRANCH   9  10
ENDBRANCH   8   9
ENDBRANCH   7   8
ENDBRANCH   6   7
ENDBRANCH   5   6
ENDBRANCH   4   5
ENDBRANCH   3   4
ENDBRANCH   2   3
ENDBRANCH   1   2
BRANCH   1  13
HETATM   13  N   UNL     1     -20.787  -9.043  -2.875  1.00  0.00    -0.072 N 
HETATM   14  C   UNL     1     -19.284  -9.053  -2.567  1.00  0.00     0.272 C 
HETATM   15  C   UNL     1     -21.465  -7.899  -2.142  1.00  0.00     0.272 C 
BRANCH  13  16
HETATM   16  C   UNL     1     -21.328 -10.421  -2.375  1.00  0.00     0.269 C 
BRANCH  16  17
HETATM   17  C   UNL     1     -22.403 -10.431  -1.261  1.00  0.00     0.160 C 
BRANCH  17  18
HETATM   18  C   UNL     1     -23.634 -11.318  -1.404  1.00  0.00     0.198 C 
BRANCH  18  19
HETATM   19  S   UNL     1     -23.439 -12.875  -0.607  1.00  0.00     0.104 S 
HETATM   20  O   UNL     1     -24.492 -13.682  -1.195  1.00  0.00    -0.595 OA
HETATM   21  O   UNL     1     -22.080 -13.263  -0.988  1.00  0.00    -0.595 OA
HETATM   22  O   UNL     1     -23.589 -12.508   0.798  1.00  0.00    -0.595 OA
ENDBRANCH  18  19
ENDBRANCH  17  18
BRANCH  17  23
HETATM   23  O   UNL     1     -21.732 -10.707  -0.013  1.00  0.00    -0.393 OA
HETATM   24  H   UNL     1     -21.360  -9.842   0.307  1.00  0.00     0.210 HD
ENDBRANCH  17  23
ENDBRANCH  16  17
ENDBRANCH  13  16
ENDBRANCH   1  13
TORSDOF 16
ENDMDL
