MODEL 1
REMARK VINA RESULT:      -9.2      0.000      0.000
REMARK  10 active torsions:
REMARK  status: ('A' for Active; 'I' for Inactive)
REMARK    1  A    between atoms: O_2  and  C_3 
REMARK    2  A    between atoms: C_4  and  O_27 
REMARK    3  A    between atoms: C_7  and  C_9 
REMARK    4  A    between atoms: C_10  and  C_11 
REMARK    5  A    between atoms: C_11  and  C_13 
REMARK    6  A    between atoms: C_13  and  C_14 
REMARK    7  A    between atoms: C_14  and  C_16 
REMARK    8  A    between atoms: C_17  and  C_18 
REMARK    9  A    between atoms: C_20  and  O_25 
REMARK   10  A    between atoms: C_21  and  O_24 
ROOT
HETATM    1  C   UNL     1     -20.240  -4.816  -6.001  1.00  0.00     0.165 C 
ENDROOT
BRANCH   1   2
HETATM    2  C   UNL     1     -20.646  -6.266  -5.962  1.00  0.00     0.156 C 
HETATM    3  O   UNL     1     -20.965  -6.858  -6.992  1.00  0.00    -0.293 OA
BRANCH   2   4
HETATM    4  C   UNL     1     -20.610  -6.969  -4.642  1.00  0.00     0.051 C 
HETATM    5  C   UNL     1     -21.472  -6.638  -3.664  1.00  0.00     0.015 C 
BRANCH   5   6
HETATM    6  C   UNL     1     -21.493  -7.264  -2.330  1.00  0.00    -0.033 A 
HETATM    7  C   UNL     1     -22.220  -6.721  -1.271  1.00  0.00     0.014 A 
HETATM    8  C   UNL     1     -22.244  -7.360  -0.031  1.00  0.00     0.040 A 
HETATM    9  C   UNL     1     -21.555  -8.559   0.181  1.00  0.00     0.099 A 
HETATM   10  C   UNL     1     -20.832  -9.143  -0.862  1.00  0.00     0.102 A 
HETATM   11  C   UNL     1     -20.822  -8.481  -2.113  1.00  0.00     0.051 A 
BRANCH   9  12
HETATM   12  O   UNL     1     -21.708  -9.027   1.453  1.00  0.00    -0.358 OA
HETATM   13  H   UNL     1     -21.263  -8.463   2.090  1.00  0.00     0.217 HD
ENDBRANCH   9  12
BRANCH  10  14
HETATM   14  O   UNL     1     -20.104 -10.298  -0.897  1.00  0.00    -0.353 OA
HETATM   15  C   UNL     1     -19.182 -10.553  -1.936  1.00  0.00     0.210 C 
ENDBRANCH  10  14
ENDBRANCH   5   6
ENDBRANCH   2   4
ENDBRANCH   1   2
BRANCH   1  16
HETATM   16  C   UNL     1     -19.971  -4.294  -7.385  1.00  0.00     0.156 C 
HETATM   17  O   UNL     1     -18.822  -4.219  -7.819  1.00  0.00    -0.293 OA
BRANCH  16  18
HETATM   18  C   UNL     1     -21.143  -3.855  -8.205  1.00  0.00     0.051 C 
HETATM   19  C   UNL     1     -21.122  -4.049  -9.531  1.00  0.00     0.015 C 
BRANCH  19  20
HETATM   20  C   UNL     1     -22.205  -3.706 -10.466  1.00  0.00    -0.033 A 
HETATM   21  C   UNL     1     -22.006  -3.524 -11.842  1.00  0.00     0.051 A 
HETATM   22  C   UNL     1     -23.065  -3.218 -12.723  1.00  0.00     0.102 A 
HETATM   23  C   UNL     1     -24.353  -3.106 -12.192  1.00  0.00     0.099 A 
HETATM   24  C   UNL     1     -24.565  -3.306 -10.824  1.00  0.00     0.040 A 
HETATM   25  C   UNL     1     -23.505  -3.612  -9.970  1.00  0.00     0.014 A 
BRANCH  22  26
HETATM   26  O   UNL     1     -22.613  -3.074 -14.003  1.00  0.00    -0.353 OA
HETATM   27  C   UNL     1     -23.122  -2.069 -14.856  1.00  0.00     0.210 C 
ENDBRANCH  22  26
BRANCH  23  28
HETATM   28  O   UNL     1     -25.502  -2.804 -12.864  1.00  0.00    -0.358 OA
HETATM   29  H   UNL     1     -25.572  -3.315 -13.674  1.00  0.00     0.217 HD
ENDBRANCH  23  28
ENDBRANCH  19  20
ENDBRANCH  16  18
ENDBRANCH   1  16
TORSDOF 10
ENDMDL
MODEL 2
REMARK VINA RESULT:      -9.1      0.993     10.707
REMARK  10 active torsions:
REMARK  status: ('A' for Active; 'I' for Inactive)
REMARK    1  A    between atoms: O_2  and  C_3 
REMARK    2  A    between atoms: C_4  and  O_27 
REMARK    3  A    between atoms: C_7  and  C_9 
REMARK    4  A    between atoms: C_10  and  C_11 
REMARK    5  A    between atoms: C_11  and  C_13 
REMARK    6  A    between atoms: C_13  and  C_14 
REMARK    7  A    between atoms: C_14  and  C_16 
REMARK    8  A    between atoms: C_17  and  C_18 
REMARK    9  A    between atoms: C_20  and  O_25 
REMARK   10  A    between atoms: C_21  and  O_24 
ROOT
HETATM    1  C   UNL     1     -19.945  -4.531  -6.119  1.00  0.00     0.165 C 
ENDROOT
BRANCH   1   2
HETATM    2  C   UNL     1     -19.336  -4.333  -7.481  1.00  0.00     0.156 C 
HETATM    3  O   UNL     1     -18.121  -4.426  -7.647  1.00  0.00    -0.293 OA
BRANCH   2   4
HETATM    4  C   UNL     1     -20.257  -4.060  -8.629  1.00  0.00     0.051 C 
HETATM    5  C   UNL     1     -21.589  -4.034  -8.450  1.00  0.00     0.015 C 
BRANCH   5   6
HETATM    6  C   UNL     1     -22.566  -3.793  -9.526  1.00  0.00    -0.033 A 
HETATM    7  C   UNL     1     -23.924  -3.615  -9.263  1.00  0.00     0.014 A 
HETATM    8  C   UNL     1     -24.816  -3.355 -10.305  1.00  0.00     0.040 A 
HETATM    9  C   UNL     1     -24.376  -3.256 -11.630  1.00  0.00     0.099 A 
HETATM   10  C   UNL     1     -23.020  -3.410 -11.928  1.00  0.00     0.102 A 
HETATM   11  C   UNL     1     -22.131  -3.670 -10.857  1.00  0.00     0.051 A 
BRANCH   9  12
HETATM   12  O   UNL     1     -25.395  -2.991 -12.496  1.00  0.00    -0.358 OA
HETATM   13  H   UNL     1     -25.117  -3.101 -13.408  1.00  0.00     0.217 HD
ENDBRANCH   9  12
BRANCH  10  14
HETATM   14  O   UNL     1     -22.363  -3.343 -13.123  1.00  0.00    -0.353 OA
HETATM   15  C   UNL     1     -22.902  -2.630 -14.217  1.00  0.00     0.210 C 
ENDBRANCH  10  14
ENDBRANCH   5   6
ENDBRANCH   2   4
ENDBRANCH   1   2
BRANCH   1  16
HETATM   16  C   UNL     1     -20.444  -5.928  -5.869  1.00  0.00     0.156 C 
HETATM   17  O   UNL     1     -20.263  -6.819  -6.699  1.00  0.00    -0.293 OA
BRANCH  16  18
HETATM   18  C   UNL     1     -21.178  -6.188  -4.592  1.00  0.00     0.051 C 
HETATM   19  C   UNL     1     -20.799  -7.215  -3.820  1.00  0.00     0.015 C 
BRANCH  19  20
HETATM   20  C   UNL     1     -21.394  -7.581  -2.524  1.00  0.00    -0.033 A 
HETATM   21  C   UNL     1     -21.309  -8.867  -1.972  1.00  0.00     0.051 A 
HETATM   22  C   UNL     1     -21.868  -9.187  -0.717  1.00  0.00     0.102 A 
HETATM   23  C   UNL     1     -22.519  -8.174  -0.007  1.00  0.00     0.099 A 
HETATM   24  C   UNL     1     -22.591  -6.883  -0.540  1.00  0.00     0.040 A 
HETATM   25  C   UNL     1     -22.028  -6.585  -1.781  1.00  0.00     0.014 A 
BRANCH  22  26
HETATM   26  O   UNL     1     -21.667 -10.502  -0.410  1.00  0.00    -0.353 OA
HETATM   27  C   UNL     1     -20.737 -10.894   0.578  1.00  0.00     0.210 C 
ENDBRANCH  22  26
BRANCH  23  28
HETATM   28  O   UNL     1     -23.135  -8.278   1.206  1.00  0.00    -0.358 OA
HETATM   29  H   UNL     1     -23.136  -7.434   1.666  1.00  0.00     0.217 HD
ENDBRANCH  23  28
ENDBRANCH  19  20
ENDBRANCH  16  18
ENDBRANCH   1  16
TORSDOF 10
ENDMDL
MODEL 3
REMARK VINA RESULT:      -8.9      0.929     10.783
REMARK  10 active torsions:
REMARK  status: ('A' for Active; 'I' for Inactive)
REMARK    1  A    between atoms: O_2  and  C_3 
REMARK    2  A    between atoms: C_4  and  O_27 
REMARK    3  A    between atoms: C_7  and  C_9 
REMARK    4  A    between atoms: C_10  and  C_11 
REMARK    5  A    between atoms: C_11  and  C_13 
REMARK    6  A    between atoms: C_13  and  C_14 
REMARK    7  A    between atoms: C_14  and  C_16 
REMARK    8  A    between atoms: C_17  and  C_18 
REMARK    9  A    between atoms: C_20  and  O_25 
REMARK   10  A    between atoms: C_21  and  O_24 
ROOT
HETATM    1  C   UNL     1     -20.218  -4.945  -6.037  1.00  0.00     0.165 C 
ENDROOT
BRANCH   1   2
HETATM    2  C   UNL     1     -19.733  -4.337  -7.327  1.00  0.00     0.156 C 
HETATM    3  O   UNL     1     -18.531  -4.263  -7.576  1.00  0.00    -0.293 OA
BRANCH   2   4
HETATM    4  C   UNL     1     -20.759  -3.862  -8.309  1.00  0.00     0.051 C 
HETATM    5  C   UNL     1     -20.690  -4.224  -9.602  1.00  0.00     0.015 C 
BRANCH   5   6
HETATM    6  C   UNL     1     -21.644  -3.788 -10.637  1.00  0.00    -0.033 A 
HETATM    7  C   UNL     1     -21.251  -3.562 -11.955  1.00  0.00     0.014 A 
HETATM    8  C   UNL     1     -22.188  -3.182 -12.916  1.00  0.00     0.040 A 
HETATM    9  C   UNL     1     -23.541  -3.028 -12.590  1.00  0.00     0.099 A 
HETATM   10  C   UNL     1     -23.975  -3.264 -11.283  1.00  0.00     0.102 A 
HETATM   11  C   UNL     1     -23.009  -3.652 -10.324  1.00  0.00     0.051 A 
BRANCH   9  12
HETATM   12  O   UNL     1     -24.295  -2.661 -13.666  1.00  0.00    -0.358 OA
HETATM   13  H   UNL     1     -24.241  -3.311 -14.370  1.00  0.00     0.217 HD
ENDBRANCH   9  12
BRANCH  10  14
HETATM   14  O   UNL     1     -25.225  -3.194 -10.740  1.00  0.00    -0.353 OA
HETATM   15  C   UNL     1     -25.420  -3.222  -9.341  1.00  0.00     0.210 C 
ENDBRANCH  10  14
ENDBRANCH   5   6
ENDBRANCH   2   4
ENDBRANCH   1   2
BRANCH   1  16
HETATM   16  C   UNL     1     -20.780  -6.331  -6.189  1.00  0.00     0.156 C 
HETATM   17  O   UNL     1     -21.019  -6.796  -7.304  1.00  0.00    -0.293 OA
BRANCH  16  18
HETATM   18  C   UNL     1     -21.051  -7.114  -4.943  1.00  0.00     0.051 C 
HETATM   19  C   UNL     1     -21.059  -6.478  -3.763  1.00  0.00     0.015 C 
BRANCH  19  20
HETATM   20  C   UNL     1     -21.341  -7.097  -2.457  1.00  0.00    -0.033 A 
HETATM   21  C   UNL     1     -20.735  -8.283  -2.019  1.00  0.00     0.051 A 
HETATM   22  C   UNL     1     -21.005  -8.844  -0.753  1.00  0.00     0.102 A 
HETATM   23  C   UNL     1     -21.901  -8.177   0.086  1.00  0.00     0.099 A 
HETATM   24  C   UNL     1     -22.495  -6.982  -0.333  1.00  0.00     0.040 A 
HETATM   25  C   UNL     1     -22.213  -6.442  -1.588  1.00  0.00     0.014 A 
BRANCH  22  26
HETATM   26  O   UNL     1     -20.307 -10.003  -0.571  1.00  0.00    -0.353 OA
HETATM   27  C   UNL     1     -20.965 -11.236  -0.368  1.00  0.00     0.210 C 
ENDBRANCH  22  26
BRANCH  23  28
HETATM   28  O   UNL     1     -22.307  -8.557   1.333  1.00  0.00    -0.358 OA
HETATM   29  H   UNL     1     -21.809  -9.319   1.640  1.00  0.00     0.217 HD
ENDBRANCH  23  28
ENDBRANCH  19  20
ENDBRANCH  16  18
ENDBRANCH   1  16
TORSDOF 10
ENDMDL
MODEL 4
REMARK VINA RESULT:      -8.9      1.095      1.935
REMARK  10 active torsions:
REMARK  status: ('A' for Active; 'I' for Inactive)
REMARK    1  A    between atoms: O_2  and  C_3 
REMARK    2  A    between atoms: C_4  and  O_27 
REMARK    3  A    between atoms: C_7  and  C_9 
REMARK    4  A    between atoms: C_10  and  C_11 
REMARK    5  A    between atoms: C_11  and  C_13 
REMARK    6  A    between atoms: C_13  and  C_14 
REMARK    7  A    between atoms: C_14  and  C_16 
REMARK    8  A    between atoms: C_17  and  C_18 
REMARK    9  A    between atoms: C_20  and  O_25 
REMARK   10  A    between atoms: C_21  and  O_24 
ROOT
HETATM    1  C   UNL     1     -20.052  -5.870  -6.936  1.00  0.00     0.165 C 
ENDROOT
BRANCH   1   2
HETATM    2  C   UNL     1     -21.197  -5.555  -6.010  1.00  0.00     0.156 C 
HETATM    3  O   UNL     1     -22.233  -5.049  -6.439  1.00  0.00    -0.293 OA
BRANCH   2   4
HETATM    4  C   UNL     1     -21.049  -5.912  -4.564  1.00  0.00     0.051 C 
HETATM    5  C   UNL     1     -21.697  -6.972  -4.049  1.00  0.00     0.015 C 
BRANCH   5   6
HETATM    6  C   UNL     1     -21.625  -7.382  -2.636  1.00  0.00    -0.033 A 
HETATM    7  C   UNL     1     -22.239  -6.648  -1.622  1.00  0.00     0.014 A 
HETATM    8  C   UNL     1     -22.178  -7.085  -0.298  1.00  0.00     0.040 A 
HETATM    9  C   UNL     1     -21.513  -8.268   0.046  1.00  0.00     0.099 A 
HETATM   10  C   UNL     1     -20.902  -9.039  -0.946  1.00  0.00     0.102 A 
HETATM   11  C   UNL     1     -20.978  -8.580  -2.283  1.00  0.00     0.051 A 
BRANCH   9  12
HETATM   12  O   UNL     1     -21.572  -8.525   1.384  1.00  0.00    -0.358 OA
HETATM   13  H   UNL     1     -22.417  -8.908   1.630  1.00  0.00     0.217 HD
ENDBRANCH   9  12
BRANCH  10  14
HETATM   14  O   UNL     1     -20.218 -10.218  -0.855  1.00  0.00    -0.353 OA
HETATM   15  C   UNL     1     -20.868 -11.416  -0.485  1.00  0.00     0.210 C 
ENDBRANCH  10  14
ENDBRANCH   5   6
ENDBRANCH   2   4
ENDBRANCH   1   2
BRANCH   1  16
HETATM   16  C   UNL     1     -19.457  -4.661  -7.604  1.00  0.00     0.156 C 
HETATM   17  O   UNL     1     -18.312  -4.294  -7.340  1.00  0.00    -0.293 OA
BRANCH  16  18
HETATM   18  C   UNL     1     -20.308  -3.916  -8.583  1.00  0.00     0.051 C 
HETATM   19  C   UNL     1     -20.956  -4.600  -9.537  1.00  0.00     0.015 C 
BRANCH  19  20
HETATM   20  C   UNL     1     -21.854  -4.021 -10.549  1.00  0.00    -0.033 A 
HETATM   21  C   UNL     1     -23.214  -3.771 -10.320  1.00  0.00     0.051 A 
HETATM   22  C   UNL     1     -24.050  -3.194 -11.299  1.00  0.00     0.102 A 
HETATM   23  C   UNL     1     -23.485  -2.855 -12.531  1.00  0.00     0.099 A 
HETATM   24  C   UNL     1     -22.124  -3.081 -12.763  1.00  0.00     0.040 A 
HETATM   25  C   UNL     1     -21.314  -3.650 -11.780  1.00  0.00     0.014 A 
BRANCH  22  26
HETATM   26  O   UNL     1     -25.330  -3.069 -10.841  1.00  0.00    -0.353 OA
HETATM   27  C   UNL     1     -25.661  -3.340  -9.495  1.00  0.00     0.210 C 
ENDBRANCH  22  26
BRANCH  23  28
HETATM   28  O   UNL     1     -24.118  -2.306 -13.609  1.00  0.00    -0.358 OA
HETATM   29  H   UNL     1     -25.058  -2.201 -13.441  1.00  0.00     0.217 HD
ENDBRANCH  23  28
ENDBRANCH  19  20
ENDBRANCH  16  18
ENDBRANCH   1  16
TORSDOF 10
ENDMDL
MODEL 5
REMARK VINA RESULT:      -8.4      1.562      2.149
REMARK  10 active torsions:
REMARK  status: ('A' for Active; 'I' for Inactive)
REMARK    1  A    between atoms: O_2  and  C_3 
REMARK    2  A    between atoms: C_4  and  O_27 
REMARK    3  A    between atoms: C_7  and  C_9 
REMARK    4  A    between atoms: C_10  and  C_11 
REMARK    5  A    between atoms: C_11  and  C_13 
REMARK    6  A    between atoms: C_13  and  C_14 
REMARK    7  A    between atoms: C_14  and  C_16 
REMARK    8  A    between atoms: C_17  and  C_18 
REMARK    9  A    between atoms: C_20  and  O_25 
REMARK   10  A    between atoms: C_21  and  O_24 
ROOT
HETATM    1  C   UNL     1     -19.756  -6.239  -6.616  1.00  0.00     0.165 C 
ENDROOT
BRANCH   1   2
HETATM    2  C   UNL     1     -20.634  -5.797  -5.476  1.00  0.00     0.156 C 
HETATM    3  O   UNL     1     -20.716  -4.609  -5.168  1.00  0.00    -0.293 OA
BRANCH   2   4
HETATM    4  C   UNL     1     -21.430  -6.840  -4.757  1.00  0.00     0.051 C 
HETATM    5  C   UNL     1     -20.825  -7.739  -3.961  1.00  0.00     0.015 C 
BRANCH   5   6
HETATM    6  C   UNL     1     -21.528  -8.810  -3.234  1.00  0.00    -0.033 A 
HETATM    7  C   UNL     1     -21.980  -9.963  -3.874  1.00  0.00     0.014 A 
HETATM    8  C   UNL     1     -22.613 -10.972  -3.147  1.00  0.00     0.040 A 
HETATM    9  C   UNL     1     -22.800 -10.862  -1.765  1.00  0.00     0.099 A 
HETATM   10  C   UNL     1     -22.344  -9.730  -1.086  1.00  0.00     0.102 A 
HETATM   11  C   UNL     1     -21.702  -8.719  -1.841  1.00  0.00     0.051 A 
BRANCH   9  12
HETATM   12  O   UNL     1     -23.430 -11.952  -1.239  1.00  0.00    -0.358 OA
HETATM   13  H   UNL     1     -23.155 -12.111  -0.332  1.00  0.00     0.217 HD
ENDBRANCH   9  12
BRANCH  10  14
HETATM   14  O   UNL     1     -22.399  -9.410   0.240  1.00  0.00    -0.353 OA
HETATM   15  C   UNL     1     -21.734  -8.272   0.749  1.00  0.00     0.210 C 
ENDBRANCH  10  14
ENDBRANCH   5   6
ENDBRANCH   2   4
ENDBRANCH   1   2
BRANCH   1  16
HETATM   16  C   UNL     1     -19.454  -5.153  -7.612  1.00  0.00     0.156 C 
HETATM   17  O   UNL     1     -18.470  -4.426  -7.474  1.00  0.00    -0.293 OA
BRANCH  16  18
HETATM   18  C   UNL     1     -20.397  -4.978  -8.760  1.00  0.00     0.051 C 
HETATM   19  C   UNL     1     -21.354  -4.042  -8.681  1.00  0.00     0.015 C 
BRANCH  19  20
HETATM   20  C   UNL     1     -22.333  -3.725  -9.734  1.00  0.00    -0.033 A 
HETATM   21  C   UNL     1     -21.981  -3.505 -11.073  1.00  0.00     0.051 A 
HETATM   22  C   UNL     1     -22.941  -3.225 -12.068  1.00  0.00     0.102 A 
HETATM   23  C   UNL     1     -24.286  -3.179 -11.692  1.00  0.00     0.099 A 
HETATM   24  C   UNL     1     -24.650  -3.418 -10.363  1.00  0.00     0.040 A 
HETATM   25  C   UNL     1     -23.685  -3.697  -9.394  1.00  0.00     0.014 A 
BRANCH  22  26
HETATM   26  O   UNL     1     -22.348  -3.034 -13.283  1.00  0.00    -0.353 OA
HETATM   27  C   UNL     1     -23.102  -2.678 -14.423  1.00  0.00     0.210 C 
ENDBRANCH  22  26
BRANCH  23  28
HETATM   28  O   UNL     1     -25.360  -2.911 -12.491  1.00  0.00    -0.358 OA
HETATM   29  H   UNL     1     -25.886  -3.703 -12.639  1.00  0.00     0.217 HD
ENDBRANCH  23  28
ENDBRANCH  19  20
ENDBRANCH  16  18
ENDBRANCH   1  16
TORSDOF 10
ENDMDL
MODEL 6
REMARK VINA RESULT:      -8.3      2.021      3.309
REMARK  10 active torsions:
REMARK  status: ('A' for Active; 'I' for Inactive)
REMARK    1  A    between atoms: O_2  and  C_3 
REMARK    2  A    between atoms: C_4  and  O_27 
REMARK    3  A    between atoms: C_7  and  C_9 
REMARK    4  A    between atoms: C_10  and  C_11 
REMARK    5  A    between atoms: C_11  and  C_13 
REMARK    6  A    between atoms: C_13  and  C_14 
REMARK    7  A    between atoms: C_14  and  C_16 
REMARK    8  A    between atoms: C_17  and  C_18 
REMARK    9  A    between atoms: C_20  and  O_25 
REMARK   10  A    between atoms: C_21  and  O_24 
ROOT
HETATM    1  C   UNL     1     -21.836  -6.521  -4.850  1.00  0.00     0.165 C 
ENDROOT
BRANCH   1   2
HETATM    2  C   UNL     1     -21.658  -6.676  -3.363  1.00  0.00     0.156 C 
HETATM    3  O   UNL     1     -22.178  -5.882  -2.580  1.00  0.00    -0.293 OA
BRANCH   2   4
HETATM    4  C   UNL     1     -20.864  -7.845  -2.869  1.00  0.00     0.051 C 
HETATM    5  C   UNL     1     -21.263  -8.538  -1.788  1.00  0.00     0.015 C 
BRANCH   5   6
HETATM    6  C   UNL     1     -20.533  -9.686  -1.223  1.00  0.00    -0.033 A 
HETATM    7  C   UNL     1     -20.958 -10.335  -0.064  1.00  0.00     0.014 A 
HETATM    8  C   UNL     1     -20.260 -11.441   0.423  1.00  0.00     0.040 A 
HETATM    9  C   UNL     1     -19.130 -11.934  -0.238  1.00  0.00     0.099 A 
HETATM   10  C   UNL     1     -18.685 -11.321  -1.412  1.00  0.00     0.102 A 
HETATM   11  C   UNL     1     -19.408 -10.203  -1.892  1.00  0.00     0.051 A 
BRANCH   9  12
HETATM   12  O   UNL     1     -18.596 -13.021   0.389  1.00  0.00    -0.358 OA
HETATM   13  H   UNL     1     -18.017 -12.760   1.110  1.00  0.00     0.217 HD
ENDBRANCH   9  12
BRANCH  10  14
HETATM   14  O   UNL     1     -17.632 -11.628  -2.226  1.00  0.00    -0.353 OA
HETATM   15  C   UNL     1     -16.645 -10.668  -2.542  1.00  0.00     0.210 C 
ENDBRANCH  10  14
ENDBRANCH   5   6
ENDBRANCH   2   4
ENDBRANCH   1   2
BRANCH   1  16
HETATM   16  C   UNL     1     -21.109  -5.339  -5.432  1.00  0.00     0.156 C 
HETATM   17  O   UNL     1     -20.149  -4.839  -4.847  1.00  0.00    -0.293 OA
BRANCH  16  18
HETATM   18  C   UNL     1     -21.604  -4.789  -6.732  1.00  0.00     0.051 C 
HETATM   19  C   UNL     1     -20.899  -5.019  -7.848  1.00  0.00     0.015 C 
BRANCH  19  20
HETATM   20  C   UNL     1     -21.268  -4.576  -9.203  1.00  0.00    -0.033 A 
HETATM   21  C   UNL     1     -22.561  -4.162  -9.553  1.00  0.00     0.051 A 
HETATM   22  C   UNL     1     -22.885  -3.720 -10.854  1.00  0.00     0.102 A 
HETATM   23  C   UNL     1     -21.868  -3.691 -11.812  1.00  0.00     0.099 A 
HETATM   24  C   UNL     1     -20.570  -4.081 -11.467  1.00  0.00     0.040 A 
HETATM   25  C   UNL     1     -20.270  -4.512 -10.174  1.00  0.00     0.014 A 
BRANCH  22  26
HETATM   26  O   UNL     1     -24.206  -3.390 -10.945  1.00  0.00    -0.353 OA
HETATM   27  C   UNL     1     -25.017  -3.267  -9.796  1.00  0.00     0.210 C 
ENDBRANCH  22  26
BRANCH  23  28
HETATM   28  O   UNL     1     -21.974  -3.314 -13.119  1.00  0.00    -0.358 OA
HETATM   29  H   UNL     1     -21.467  -2.516 -13.291  1.00  0.00     0.217 HD
ENDBRANCH  23  28
ENDBRANCH  19  20
ENDBRANCH  16  18
ENDBRANCH   1  16
TORSDOF 10
ENDMDL
MODEL 7
REMARK VINA RESULT:      -8.3      2.918      4.618
REMARK  10 active torsions:
REMARK  status: ('A' for Active; 'I' for Inactive)
REMARK    1  A    between atoms: O_2  and  C_3 
REMARK    2  A    between atoms: C_4  and  O_27 
REMARK    3  A    between atoms: C_7  and  C_9 
REMARK    4  A    between atoms: C_10  and  C_11 
REMARK    5  A    between atoms: C_11  and  C_13 
REMARK    6  A    between atoms: C_13  and  C_14 
REMARK    7  A    between atoms: C_14  and  C_16 
REMARK    8  A    between atoms: C_17  and  C_18 
REMARK    9  A    between atoms: C_20  and  O_25 
REMARK   10  A    between atoms: C_21  and  O_24 
ROOT
HETATM    1  C   UNL     1     -22.100  -6.750  -5.071  1.00  0.00     0.165 C 
ENDROOT
BRANCH   1   2
HETATM    2  C   UNL     1     -21.320  -7.592  -4.096  1.00  0.00     0.156 C 
HETATM    3  O   UNL     1     -21.667  -7.677  -2.919  1.00  0.00    -0.293 OA
BRANCH   2   4
HETATM    4  C   UNL     1     -20.138  -8.350  -4.613  1.00  0.00     0.051 C 
HETATM    5  C   UNL     1     -19.221  -8.852  -3.767  1.00  0.00     0.015 C 
BRANCH   5   6
HETATM    6  C   UNL     1     -18.019  -9.591  -4.190  1.00  0.00    -0.033 A 
HETATM    7  C   UNL     1     -17.667  -9.721  -5.533  1.00  0.00     0.014 A 
HETATM    8  C   UNL     1     -16.503 -10.400  -5.895  1.00  0.00     0.040 A 
HETATM    9  C   UNL     1     -15.657 -10.956  -4.929  1.00  0.00     0.099 A 
HETATM   10  C   UNL     1     -15.967 -10.829  -3.573  1.00  0.00     0.102 A 
HETATM   11  C   UNL     1     -17.151 -10.134  -3.226  1.00  0.00     0.051 A 
BRANCH   9  12
HETATM   12  O   UNL     1     -14.571 -11.569  -5.482  1.00  0.00    -0.358 OA
HETATM   13  H   UNL     1     -14.185 -11.035  -6.180  1.00  0.00     0.217 HD
ENDBRANCH   9  12
BRANCH  10  14
HETATM   14  O   UNL     1     -15.298 -11.268  -2.466  1.00  0.00    -0.353 OA
HETATM   15  C   UNL     1     -15.965 -11.471  -1.238  1.00  0.00     0.210 C 
ENDBRANCH  10  14
ENDBRANCH   5   6
ENDBRANCH   2   4
ENDBRANCH   1   2
BRANCH   1  16
HETATM   16  C   UNL     1     -21.384  -5.503  -5.511  1.00  0.00     0.156 C 
HETATM   17  O   UNL     1     -20.462  -5.036  -4.841  1.00  0.00    -0.293 OA
BRANCH  16  18
HETATM   18  C   UNL     1     -21.840  -4.846  -6.775  1.00  0.00     0.051 C 
HETATM   19  C   UNL     1     -21.146  -5.050  -7.903  1.00  0.00     0.015 C 
BRANCH  19  20
HETATM   20  C   UNL     1     -21.483  -4.506  -9.229  1.00  0.00    -0.033 A 
HETATM   21  C   UNL     1     -22.757  -4.027  -9.564  1.00  0.00     0.051 A 
HETATM   22  C   UNL     1     -23.050  -3.488 -10.835  1.00  0.00     0.102 A 
HETATM   23  C   UNL     1     -22.020  -3.427 -11.778  1.00  0.00     0.099 A 
HETATM   24  C   UNL     1     -20.740  -3.883 -11.446  1.00  0.00     0.040 A 
HETATM   25  C   UNL     1     -20.470  -4.409 -10.183  1.00  0.00     0.014 A 
BRANCH  22  26
HETATM   26  O   UNL     1     -24.358  -3.109 -10.919  1.00  0.00    -0.353 OA
HETATM   27  C   UNL     1     -25.212  -3.154  -9.795  1.00  0.00     0.210 C 
ENDBRANCH  22  26
BRANCH  23  28
HETATM   28  O   UNL     1     -22.097  -2.961 -13.058  1.00  0.00    -0.358 OA
HETATM   29  H   UNL     1     -22.935  -2.518 -13.215  1.00  0.00     0.217 HD
ENDBRANCH  23  28
ENDBRANCH  19  20
ENDBRANCH  16  18
ENDBRANCH   1  16
TORSDOF 10
ENDMDL
MODEL 8
REMARK VINA RESULT:      -8.1      3.137      4.786
REMARK  10 active torsions:
REMARK  status: ('A' for Active; 'I' for Inactive)
REMARK    1  A    between atoms: O_2  and  C_3 
REMARK    2  A    between atoms: C_4  and  O_27 
REMARK    3  A    between atoms: C_7  and  C_9 
REMARK    4  A    between atoms: C_10  and  C_11 
REMARK    5  A    between atoms: C_11  and  C_13 
REMARK    6  A    between atoms: C_13  and  C_14 
REMARK    7  A    between atoms: C_14  and  C_16 
REMARK    8  A    between atoms: C_17  and  C_18 
REMARK    9  A    between atoms: C_20  and  O_25 
REMARK   10  A    between atoms: C_21  and  O_24 
ROOT
HETATM    1  C   UNL     1     -21.368  -7.201  -5.579  1.00  0.00     0.165 C 
ENDROOT
BRANCH   1   2
HETATM    2  C   UNL     1     -20.753  -7.830  -4.357  1.00  0.00     0.156 C 
HETATM    3  O   UNL     1     -21.263  -7.681  -3.248  1.00  0.00    -0.293 OA
BRANCH   2   4
HETATM    4  C   UNL     1     -19.528  -8.671  -4.540  1.00  0.00     0.051 C 
HETATM    5  C   UNL     1     -18.777  -9.029  -3.484  1.00  0.00     0.015 C 
BRANCH   5   6
HETATM    6  C   UNL     1     -17.548  -9.836  -3.577  1.00  0.00    -0.033 A 
HETATM    7  C   UNL     1     -16.917 -10.353  -2.445  1.00  0.00     0.014 A 
HETATM    8  C   UNL     1     -15.773 -11.142  -2.573  1.00  0.00     0.040 A 
HETATM    9  C   UNL     1     -15.237 -11.444  -3.830  1.00  0.00     0.099 A 
HETATM   10  C   UNL     1     -15.852 -10.959  -4.987  1.00  0.00     0.102 A 
HETATM   11  C   UNL     1     -17.014 -10.163  -4.836  1.00  0.00     0.051 A 
BRANCH   9  12
HETATM   12  O   UNL     1     -14.126 -12.230  -3.744  1.00  0.00    -0.358 OA
HETATM   13  H   UNL     1     -14.353 -13.162  -3.788  1.00  0.00     0.217 HD
ENDBRANCH   9  12
BRANCH  10  14
HETATM   14  O   UNL     1     -15.526 -11.130  -6.301  1.00  0.00    -0.353 OA
HETATM   15  C   UNL     1     -15.695 -12.377  -6.943  1.00  0.00     0.210 C 
ENDBRANCH  10  14
ENDBRANCH   5   6
ENDBRANCH   2   4
ENDBRANCH   1   2
BRANCH   1  16
HETATM   16  C   UNL     1     -21.127  -5.721  -5.692  1.00  0.00     0.156 C 
HETATM   17  O   UNL     1     -20.529  -5.110  -4.806  1.00  0.00    -0.293 OA
BRANCH  16  18
HETATM   18  C   UNL     1     -21.653  -5.020  -6.904  1.00  0.00     0.051 C 
HETATM   19  C   UNL     1     -20.991  -5.136  -8.063  1.00  0.00     0.015 C 
BRANCH  19  20
HETATM   20  C   UNL     1     -21.395  -4.538  -9.346  1.00  0.00    -0.033 A 
HETATM   21  C   UNL     1     -22.679  -4.032  -9.590  1.00  0.00     0.051 A 
HETATM   22  C   UNL     1     -23.036  -3.443 -10.821  1.00  0.00     0.102 A 
HETATM   23  C   UNL     1     -22.062  -3.359 -11.819  1.00  0.00     0.099 A 
HETATM   24  C   UNL     1     -20.771  -3.842 -11.579  1.00  0.00     0.040 A 
HETATM   25  C   UNL     1     -20.437  -4.419 -10.353  1.00  0.00     0.014 A 
BRANCH  22  26
HETATM   26  O   UNL     1     -24.342  -3.044 -10.816  1.00  0.00    -0.353 OA
HETATM   27  C   UNL     1     -25.149  -3.179  -9.664  1.00  0.00     0.210 C 
ENDBRANCH  22  26
BRANCH  23  28
HETATM   28  O   UNL     1     -22.204  -2.844 -13.075  1.00  0.00    -0.358 OA
HETATM   29  H   UNL     1     -21.348  -2.671 -13.477  1.00  0.00     0.217 HD
ENDBRANCH  23  28
ENDBRANCH  19  20
ENDBRANCH  16  18
ENDBRANCH   1  16
TORSDOF 10
ENDMDL
MODEL 9
REMARK VINA RESULT:      -8.0      2.245      3.188
REMARK  10 active torsions:
REMARK  status: ('A' for Active; 'I' for Inactive)
REMARK    1  A    between atoms: O_2  and  C_3 
REMARK    2  A    between atoms: C_4  and  O_27 
REMARK    3  A    between atoms: C_7  and  C_9 
REMARK    4  A    between atoms: C_10  and  C_11 
REMARK    5  A    between atoms: C_11  and  C_13 
REMARK    6  A    between atoms: C_13  and  C_14 
REMARK    7  A    between atoms: C_14  and  C_16 
REMARK    8  A    between atoms: C_17  and  C_18 
REMARK    9  A    between atoms: C_20  and  O_25 
REMARK   10  A    between atoms: C_21  and  O_24 
ROOT
HETATM    1  C   UNL     1     -20.267  -6.593  -6.464  1.00  0.00     0.165 C 
ENDROOT
BRANCH   1   2
HETATM    2  C   UNL     1     -20.655  -7.544  -5.363  1.00  0.00     0.156 C 
HETATM    3  O   UNL     1     -21.808  -7.574  -4.934  1.00  0.00    -0.293 OA
BRANCH   2   4
HETATM    4  C   UNL     1     -19.607  -8.474  -4.837  1.00  0.00     0.051 C 
HETATM    5  C   UNL     1     -19.492  -8.703  -3.517  1.00  0.00     0.015 C 
BRANCH   5   6
HETATM    6  C   UNL     1     -18.478  -9.585  -2.913  1.00  0.00    -0.033 A 
HETATM    7  C   UNL     1     -17.115  -9.421  -3.159  1.00  0.00     0.014 A 
HETATM    8  C   UNL     1     -16.181 -10.255  -2.544  1.00  0.00     0.040 A 
HETATM    9  C   UNL     1     -16.581 -11.265  -1.661  1.00  0.00     0.099 A 
HETATM   10  C   UNL     1     -17.936 -11.447  -1.376  1.00  0.00     0.102 A 
HETATM   11  C   UNL     1     -18.868 -10.589  -2.008  1.00  0.00     0.051 A 
BRANCH   9  12
HETATM   12  O   UNL     1     -15.522 -11.964  -1.160  1.00  0.00    -0.358 OA
HETATM   13  H   UNL     1     -15.002 -12.363  -1.862  1.00  0.00     0.217 HD
ENDBRANCH   9  12
BRANCH  10  14
HETATM   14  O   UNL     1     -18.555 -12.342  -0.551  1.00  0.00    -0.353 OA
HETATM   15  C   UNL     1     -19.538 -11.928   0.375  1.00  0.00     0.210 C 
ENDBRANCH  10  14
ENDBRANCH   5   6
ENDBRANCH   2   4
ENDBRANCH   1   2
BRANCH   1  16
HETATM   16  C   UNL     1     -20.666  -5.166  -6.208  1.00  0.00     0.156 C 
HETATM   17  O   UNL     1     -20.200  -4.542  -5.254  1.00  0.00    -0.293 OA
BRANCH  16  18
HETATM   18  C   UNL     1     -21.657  -4.541  -7.138  1.00  0.00     0.051 C 
HETATM   19  C   UNL     1     -21.526  -4.736  -8.458  1.00  0.00     0.015 C 
BRANCH  19  20
HETATM   20  C   UNL     1     -22.432  -4.220  -9.496  1.00  0.00    -0.033 A 
HETATM   21  C   UNL     1     -22.004  -3.853 -10.780  1.00  0.00     0.051 A 
HETATM   22  C   UNL     1     -22.896  -3.382 -11.766  1.00  0.00     0.102 A 
HETATM   23  C   UNL     1     -24.252  -3.294 -11.440  1.00  0.00     0.099 A 
HETATM   24  C   UNL     1     -24.693  -3.679 -10.170  1.00  0.00     0.040 A 
HETATM   25  C   UNL     1     -23.795  -4.145  -9.209  1.00  0.00     0.014 A 
BRANCH  22  26
HETATM   26  O   UNL     1     -22.235  -3.076 -12.921  1.00  0.00    -0.353 OA
HETATM   27  C   UNL     1     -22.929  -2.848 -14.129  1.00  0.00     0.210 C 
ENDBRANCH  22  26
BRANCH  23  28
HETATM   28  O   UNL     1     -25.268  -2.854 -12.238  1.00  0.00    -0.358 OA
HETATM   29  H   UNL     1     -25.294  -1.893 -12.265  1.00  0.00     0.217 HD
ENDBRANCH  23  28
ENDBRANCH  19  20
ENDBRANCH  16  18
ENDBRANCH   1  16
TORSDOF 10
ENDMDL
