MODEL 1
REMARK VINA RESULT:      -1.1      0.000      0.000
REMARK  5 active torsions:
REMARK  status: ('A' for Active; 'I' for Inactive)
REMARK    1  A    between atoms: N_2  and  C_5 
REMARK    2  A    between atoms: C_9  and  N_11 
REMARK    3  A    between atoms: C_15  and  N_27 
REMARK    4  A    between atoms: C_20  and  N_26 
REMARK    5  A    between atoms: C_23  and  O_24 
ROOT
HETATM    1 CL   UNL     2     -32.950  -3.303 -11.392  1.00  0.00     0.000 Cl
ENDROOT
TORSDOF 5
ENDMDL
MODEL 2
REMARK VINA RESULT:      -1.1     22.769     22.769
REMARK  5 active torsions:
REMARK  status: ('A' for Active; 'I' for Inactive)
REMARK    1  A    between atoms: N_2  and  C_5 
REMARK    2  A    between atoms: C_9  and  N_11 
REMARK    3  A    between atoms: C_15  and  N_27 
REMARK    4  A    between atoms: C_20  and  N_26 
REMARK    5  A    between atoms: C_23  and  O_24 
ROOT
HETATM    1 CL   UNL     2     -17.609  -3.723   5.427  1.00  0.00     0.000 Cl
ENDROOT
TORSDOF 5
ENDMDL
MODEL 3
REMARK VINA RESULT:      -1.0      8.562      8.562
REMARK  5 active torsions:
REMARK  status: ('A' for Active; 'I' for Inactive)
REMARK    1  A    between atoms: N_2  and  C_5 
REMARK    2  A    between atoms: C_9  and  N_11 
REMARK    3  A    between atoms: C_15  and  N_27 
REMARK    4  A    between atoms: C_20  and  N_26 
REMARK    5  A    between atoms: C_23  and  O_24 
ROOT
HETATM    1 CL   UNL     2     -37.016   0.580  -4.933  1.00  0.00     0.000 Cl
ENDROOT
TORSDOF 5
ENDMDL
MODEL 4
REMARK VINA RESULT:      -1.0     10.562     10.562
REMARK  5 active torsions:
REMARK  status: ('A' for Active; 'I' for Inactive)
REMARK    1  A    between atoms: N_2  and  C_5 
REMARK    2  A    between atoms: C_9  and  N_11 
REMARK    3  A    between atoms: C_15  and  N_27 
REMARK    4  A    between atoms: C_20  and  N_26 
REMARK    5  A    between atoms: C_23  and  O_24 
ROOT
HETATM    1 CL   UNL     2     -34.317  -5.952  -1.259  1.00  0.00     0.000 Cl
ENDROOT
TORSDOF 5
ENDMDL
MODEL 5
REMARK VINA RESULT:      -1.0     11.260     11.260
REMARK  5 active torsions:
REMARK  status: ('A' for Active; 'I' for Inactive)
REMARK    1  A    between atoms: N_2  and  C_5 
REMARK    2  A    between atoms: C_9  and  N_11 
REMARK    3  A    between atoms: C_15  and  N_27 
REMARK    4  A    between atoms: C_20  and  N_26 
REMARK    5  A    between atoms: C_23  and  O_24 
ROOT
HETATM    1 CL   UNL     2     -29.825   7.428 -12.753  1.00  0.00     0.000 Cl
ENDROOT
TORSDOF 5
ENDMDL
MODEL 6
REMARK VINA RESULT:      -1.0     14.595     14.595
REMARK  5 active torsions:
REMARK  status: ('A' for Active; 'I' for Inactive)
REMARK    1  A    between atoms: N_2  and  C_5 
REMARK    2  A    between atoms: C_9  and  N_11 
REMARK    3  A    between atoms: C_15  and  N_27 
REMARK    4  A    between atoms: C_20  and  N_26 
REMARK    5  A    between atoms: C_23  and  O_24 
ROOT
HETATM    1 CL   UNL     2     -22.230  -6.126  -1.899  1.00  0.00     0.000 Cl
ENDROOT
TORSDOF 5
ENDMDL
MODEL 7
REMARK VINA RESULT:      -0.9     12.032     12.032
REMARK  5 active torsions:
REMARK  status: ('A' for Active; 'I' for Inactive)
REMARK    1  A    between atoms: N_2  and  C_5 
REMARK    2  A    between atoms: C_9  and  N_11 
REMARK    3  A    between atoms: C_15  and  N_27 
REMARK    4  A    between atoms: C_20  and  N_26 
REMARK    5  A    between atoms: C_23  and  O_24 
ROOT
HETATM    1 CL   UNL     2     -27.117   7.218 -11.166  1.00  0.00     0.000 Cl
ENDROOT
TORSDOF 5
ENDMDL
MODEL 8
REMARK VINA RESULT:      -0.9     16.131     16.131
REMARK  5 active torsions:
REMARK  status: ('A' for Active; 'I' for Inactive)
REMARK    1  A    between atoms: N_2  and  C_5 
REMARK    2  A    between atoms: C_9  and  N_11 
REMARK    3  A    between atoms: C_15  and  N_27 
REMARK    4  A    between atoms: C_20  and  N_26 
REMARK    5  A    between atoms: C_23  and  O_24 
ROOT
HETATM    1 CL   UNL     2     -23.253  -8.075   0.583  1.00  0.00     0.000 Cl
ENDROOT
TORSDOF 5
ENDMDL
MODEL 9
REMARK VINA RESULT:      -0.9      9.127      9.127
REMARK  5 active torsions:
REMARK  status: ('A' for Active; 'I' for Inactive)
REMARK    1  A    between atoms: N_2  and  C_5 
REMARK    2  A    between atoms: C_9  and  N_11 
REMARK    3  A    between atoms: C_15  and  N_27 
REMARK    4  A    between atoms: C_20  and  N_26 
REMARK    5  A    between atoms: C_23  and  O_24 
ROOT
HETATM    1 CL   UNL     2     -37.774  -0.561  -4.144  1.00  0.00     0.000 Cl
ENDROOT
TORSDOF 5
ENDMDL
