MODEL 1
REMARK VINA RESULT:      -6.4      0.000      0.000
REMARK  5 active torsions:
REMARK  status: ('A' for Active; 'I' for Inactive)
REMARK    1  A    between atoms: C_6  and  C_12 
REMARK    2  A    between atoms: C_7  and  C_10 
REMARK    3  A    between atoms: C_8  and  O_9 
REMARK    4  A    between atoms: C_10  and  O_11 
REMARK    5  A    between atoms: C_12  and  O_13 
ROOT
HETATM    1  C   UNL     1     -23.057  -2.598 -14.300  1.00  0.00     0.071 C 
HETATM    2  C   UNL     1     -22.842  -3.041 -12.884  1.00  0.00     0.039 A 
HETATM    3  N   UNL     1     -21.573  -3.149 -12.419  1.00  0.00    -0.367 N 
ATOM      4  HN  UNL     1     -20.800  -2.909 -13.040  1.00  0.00     0.165 HD
HETATM    5  C   UNL     1     -21.298  -3.562 -11.162  1.00  0.00     0.098 A 
HETATM    6  C   UNL     1     -22.331  -3.900 -10.275  1.00  0.00    -0.008 A 
HETATM    7  C   UNL     1     -23.684  -3.785 -10.712  1.00  0.00     0.010 A 
HETATM    8  C   UNL     1     -23.930  -3.352 -12.049  1.00  0.00     0.096 A 
ENDROOT
BRANCH   6   9
HETATM    9  C   UNL     1     -21.945  -4.388  -8.893  1.00  0.00     0.205 C 
BRANCH   9  10
HETATM   10  O   UNL     1     -22.120  -3.373  -7.939  1.00  0.00    -0.396 OA
HETATM   11  H   UNL     1     -21.218  -3.048  -7.683  1.00  0.00     0.209 HD
ENDBRANCH   9  10
ENDBRANCH   6   9
BRANCH   7  12
HETATM   12  C   UNL     1     -24.819  -4.118  -9.752  1.00  0.00     0.206 C 
BRANCH  12  13
HETATM   13  O   UNL     1     -25.796  -3.112  -9.764  1.00  0.00    -0.396 OA
HETATM   14  H   UNL     1     -26.613  -3.506  -9.362  1.00  0.00     0.209 HD
ENDBRANCH  12  13
ENDBRANCH   7  12
BRANCH   8  15
HETATM   15  O   UNL     1     -25.173  -3.230 -12.573  1.00  0.00    -0.358 OA
HETATM   16  H   UNL     1     -25.772  -2.486 -12.456  1.00  0.00     0.217 HD
ENDBRANCH   8  15
TORSDOF 5
ENDMDL
MODEL 2
REMARK VINA RESULT:      -6.3      1.598      3.898
REMARK  5 active torsions:
REMARK  status: ('A' for Active; 'I' for Inactive)
REMARK    1  A    between atoms: C_6  and  C_12 
REMARK    2  A    between atoms: C_7  and  C_10 
REMARK    3  A    between atoms: C_8  and  O_9 
REMARK    4  A    between atoms: C_10  and  O_11 
REMARK    5  A    between atoms: C_12  and  O_13 
ROOT
HETATM    1  C   UNL     1     -20.184  -4.820  -7.744  1.00  0.00     0.071 C 
HETATM    2  C   UNL     1     -20.982  -4.434  -8.953  1.00  0.00     0.039 A 
HETATM    3  N   UNL     1     -20.370  -4.422 -10.163  1.00  0.00    -0.367 N 
ATOM      4  HN  UNL     1     -19.387  -4.691 -10.220  1.00  0.00     0.165 HD
HETATM    5  C   UNL     1     -21.016  -4.064 -11.295  1.00  0.00     0.098 A 
HETATM    6  C   UNL     1     -22.367  -3.688 -11.262  1.00  0.00    -0.008 A 
HETATM    7  C   UNL     1     -23.060  -3.703 -10.015  1.00  0.00     0.010 A 
HETATM    8  C   UNL     1     -22.339  -4.080  -8.843  1.00  0.00     0.096 A 
ENDROOT
BRANCH   6   9
HETATM    9  C   UNL     1     -23.016  -3.267 -12.565  1.00  0.00     0.205 C 
BRANCH   9  10
HETATM   10  O   UNL     1     -22.098  -3.337 -13.624  1.00  0.00    -0.396 OA
HETATM   11  H   UNL     1     -22.594  -3.650 -14.426  1.00  0.00     0.209 HD
ENDBRANCH   9  10
ENDBRANCH   6   9
BRANCH   7  12
HETATM   12  C   UNL     1     -24.535  -3.327  -9.966  1.00  0.00     0.206 C 
BRANCH  12  13
HETATM   13  O   UNL     1     -25.308  -4.396  -9.490  1.00  0.00    -0.396 OA
HETATM   14  H   UNL     1     -24.690  -4.997  -8.999  1.00  0.00     0.209 HD
ENDBRANCH  12  13
ENDBRANCH   7  12
BRANCH   8  15
HETATM   15  O   UNL     1     -22.891  -4.106  -7.607  1.00  0.00    -0.358 OA
HETATM   16  H   UNL     1     -22.666  -3.532  -6.869  1.00  0.00     0.217 HD
ENDBRANCH   8  15
TORSDOF 5
ENDMDL
MODEL 3
REMARK VINA RESULT:      -6.2      2.166      3.112
REMARK  5 active torsions:
REMARK  status: ('A' for Active; 'I' for Inactive)
REMARK    1  A    between atoms: C_6  and  C_12 
REMARK    2  A    between atoms: C_7  and  C_10 
REMARK    3  A    between atoms: C_8  and  O_9 
REMARK    4  A    between atoms: C_10  and  O_11 
REMARK    5  A    between atoms: C_12  and  O_13 
ROOT
HETATM    1  C   UNL     1     -24.343  -2.791 -12.948  1.00  0.00     0.071 C 
HETATM    2  C   UNL     1     -23.857  -3.215 -11.594  1.00  0.00     0.039 A 
HETATM    3  N   UNL     1     -24.765  -3.405 -10.605  1.00  0.00    -0.367 N 
ATOM      4  HN  UNL     1     -25.755  -3.271 -10.813  1.00  0.00     0.165 HD
HETATM    5  C   UNL     1     -24.403  -3.766  -9.354  1.00  0.00     0.098 A 
HETATM    6  C   UNL     1     -23.054  -3.963  -9.025  1.00  0.00    -0.008 A 
HETATM    7  C   UNL     1     -22.063  -3.792 -10.036  1.00  0.00     0.010 A 
HETATM    8  C   UNL     1     -22.487  -3.404 -11.342  1.00  0.00     0.096 A 
ENDROOT
BRANCH   6   9
HETATM    9  C   UNL     1     -22.722  -4.333  -7.593  1.00  0.00     0.205 C 
BRANCH   9  10
HETATM   10  O   UNL     1     -23.885  -4.397  -6.812  1.00  0.00    -0.396 OA
HETATM   11  H   UNL     1     -23.881  -5.273  -6.345  1.00  0.00     0.209 HD
ENDBRANCH   9  10
ENDBRANCH   6   9
BRANCH   7  12
HETATM   12  C   UNL     1     -20.596  -4.031  -9.705  1.00  0.00     0.206 C 
BRANCH  12  13
HETATM   13  O   UNL     1     -19.987  -4.836 -10.678  1.00  0.00    -0.396 OA
HETATM   14  H   UNL     1     -19.242  -5.312 -10.228  1.00  0.00     0.209 HD
ENDBRANCH  12  13
ENDBRANCH   7  12
BRANCH   8  15
HETATM   15  O   UNL     1     -21.630  -3.193 -12.369  1.00  0.00    -0.358 OA
HETATM   16  H   UNL     1     -21.636  -3.641 -13.220  1.00  0.00     0.217 HD
ENDBRANCH   8  15
TORSDOF 5
ENDMDL
MODEL 4
REMARK VINA RESULT:      -6.0      1.004      1.033
REMARK  5 active torsions:
REMARK  status: ('A' for Active; 'I' for Inactive)
REMARK    1  A    between atoms: C_6  and  C_12 
REMARK    2  A    between atoms: C_7  and  C_10 
REMARK    3  A    between atoms: C_8  and  O_9 
REMARK    4  A    between atoms: C_10  and  O_11 
REMARK    5  A    between atoms: C_12  and  O_13 
ROOT
HETATM    1  C   UNL     1     -23.027  -2.803 -13.787  1.00  0.00     0.071 C 
HETATM    2  C   UNL     1     -22.533  -3.272 -12.451  1.00  0.00     0.039 A 
HETATM    3  N   UNL     1     -21.214  -3.549 -12.304  1.00  0.00    -0.367 N 
ATOM      4  HN  UNL     1     -20.591  -3.417 -13.101  1.00  0.00     0.165 HD
HETATM    5  C   UNL     1     -20.697  -3.996 -11.137  1.00  0.00     0.098 A 
HETATM    6  C   UNL     1     -21.517  -4.191 -10.016  1.00  0.00    -0.008 A 
HETATM    7  C   UNL     1     -22.909  -3.895 -10.117  1.00  0.00     0.010 A 
HETATM    8  C   UNL     1     -23.415  -3.432 -11.368  1.00  0.00     0.096 A 
ENDROOT
BRANCH   6   9
HETATM    9  C   UNL     1     -20.873  -4.726  -8.753  1.00  0.00     0.205 C 
BRANCH   9  10
HETATM   10  O   UNL     1     -20.471  -3.676  -7.915  1.00  0.00    -0.396 OA
HETATM   11  H   UNL     1     -20.670  -2.826  -8.388  1.00  0.00     0.209 HD
ENDBRANCH   9  10
ENDBRANCH   6   9
BRANCH   7  12
HETATM   12  C   UNL     1     -23.809  -4.071  -8.900  1.00  0.00     0.206 C 
BRANCH  12  13
HETATM   13  O   UNL     1     -24.815  -3.095  -8.876  1.00  0.00    -0.396 OA
HETATM   14  H   UNL     1     -24.420  -2.271  -9.264  1.00  0.00     0.209 HD
ENDBRANCH  12  13
ENDBRANCH   7  12
BRANCH   8  15
HETATM   15  O   UNL     1     -24.721  -3.144 -11.580  1.00  0.00    -0.358 OA
HETATM   16  H   UNL     1     -25.473  -3.528 -11.119  1.00  0.00     0.217 HD
ENDBRANCH   8  15
TORSDOF 5
ENDMDL
MODEL 5
REMARK VINA RESULT:      -6.0      2.114      4.677
REMARK  5 active torsions:
REMARK  status: ('A' for Active; 'I' for Inactive)
REMARK    1  A    between atoms: C_6  and  C_12 
REMARK    2  A    between atoms: C_7  and  C_10 
REMARK    3  A    between atoms: C_8  and  O_9 
REMARK    4  A    between atoms: C_10  and  O_11 
REMARK    5  A    between atoms: C_12  and  O_13 
ROOT
HETATM    1  C   UNL     1     -22.694  -4.552  -7.120  1.00  0.00     0.071 C 
HETATM    2  C   UNL     1     -23.030  -4.125  -8.517  1.00  0.00     0.039 A 
HETATM    3  N   UNL     1     -24.308  -3.775  -8.803  1.00  0.00    -0.367 N 
ATOM      4  HN  UNL     1     -25.003  -3.796  -8.057  1.00  0.00     0.165 HD
HETATM    5  C   UNL     1     -24.693  -3.400 -10.044  1.00  0.00     0.098 A 
HETATM    6  C   UNL     1     -23.770  -3.356 -11.099  1.00  0.00    -0.008 A 
HETATM    7  C   UNL     1     -22.409  -3.697 -10.843  1.00  0.00     0.010 A 
HETATM    8  C   UNL     1     -22.047  -4.095  -9.522  1.00  0.00     0.096 A 
ENDROOT
BRANCH   6   9
HETATM    9  C   UNL     1     -24.281  -2.958 -12.469  1.00  0.00     0.205 C 
BRANCH   9  10
HETATM   10  O   UNL     1     -24.279  -4.058 -13.340  1.00  0.00    -0.396 OA
HETATM   11  H   UNL     1     -24.981  -3.897 -14.024  1.00  0.00     0.209 HD
ENDBRANCH   9  10
ENDBRANCH   6   9
BRANCH   7  12
HETATM   12  C   UNL     1     -21.387  -3.626 -11.970  1.00  0.00     0.206 C 
BRANCH  12  13
HETATM   13  O   UNL     1     -20.255  -2.901 -11.573  1.00  0.00    -0.396 OA
HETATM   14  H   UNL     1     -20.584  -2.113 -11.068  1.00  0.00     0.209 HD
ENDBRANCH  12  13
ENDBRANCH   7  12
BRANCH   8  15
HETATM   15  O   UNL     1     -20.790  -4.461  -9.175  1.00  0.00    -0.358 OA
HETATM   16  H   UNL     1     -20.165  -3.940  -8.661  1.00  0.00     0.217 HD
ENDBRANCH   8  15
TORSDOF 5
ENDMDL
MODEL 6
REMARK VINA RESULT:      -5.9      2.701      3.799
REMARK  5 active torsions:
REMARK  status: ('A' for Active; 'I' for Inactive)
REMARK    1  A    between atoms: C_6  and  C_12 
REMARK    2  A    between atoms: C_7  and  C_10 
REMARK    3  A    between atoms: C_8  and  O_9 
REMARK    4  A    between atoms: C_10  and  O_11 
REMARK    5  A    between atoms: C_12  and  O_13 
ROOT
HETATM    1  C   UNL     1     -25.223  -3.222  -9.736  1.00  0.00     0.071 C 
HETATM    2  C   UNL     1     -23.858  -3.687  -9.325  1.00  0.00     0.039 A 
HETATM    3  N   UNL     1     -23.641  -4.010  -8.027  1.00  0.00    -0.367 N 
ATOM      4  HN  UNL     1     -24.417  -3.944  -7.367  1.00  0.00     0.165 HD
HETATM    5  C   UNL     1     -22.433  -4.416  -7.577  1.00  0.00     0.098 A 
HETATM    6  C   UNL     1     -21.340  -4.522  -8.449  1.00  0.00    -0.008 A 
HETATM    7  C   UNL     1     -21.523  -4.210  -9.829  1.00  0.00     0.010 A 
HETATM    8  C   UNL     1     -22.812  -3.779 -10.261  1.00  0.00     0.096 A 
ENDROOT
BRANCH   6   9
HETATM    9  C   UNL     1     -20.008  -4.951  -7.866  1.00  0.00     0.205 C 
BRANCH   9  10
HETATM   10  O   UNL     1     -20.056  -6.288  -7.445  1.00  0.00    -0.396 OA
HETATM   11  H   UNL     1     -20.971  -6.457  -7.097  1.00  0.00     0.209 HD
ENDBRANCH   9  10
ENDBRANCH   6   9
BRANCH   7  12
HETATM   12  C   UNL     1     -20.355  -4.349 -10.797  1.00  0.00     0.206 C 
BRANCH  12  13
HETATM   13  O   UNL     1     -20.219  -3.199 -11.586  1.00  0.00    -0.396 OA
HETATM   14  H   UNL     1     -20.006  -3.508 -12.504  1.00  0.00     0.209 HD
ENDBRANCH  12  13
ENDBRANCH   7  12
BRANCH   8  15
HETATM   15  O   UNL     1     -23.090  -3.437 -11.542  1.00  0.00    -0.358 OA
HETATM   16  H   UNL     1     -23.963  -3.269 -11.912  1.00  0.00     0.217 HD
ENDBRANCH   8  15
TORSDOF 5
ENDMDL
MODEL 7
REMARK VINA RESULT:      -5.3      2.314      3.740
REMARK  5 active torsions:
REMARK  status: ('A' for Active; 'I' for Inactive)
REMARK    1  A    between atoms: C_6  and  C_12 
REMARK    2  A    between atoms: C_7  and  C_10 
REMARK    3  A    between atoms: C_8  and  O_9 
REMARK    4  A    between atoms: C_10  and  O_11 
REMARK    5  A    between atoms: C_12  and  O_13 
ROOT
HETATM    1  C   UNL     1     -25.788  -3.231  -9.624  1.00  0.00     0.071 C 
HETATM    2  C   UNL     1     -24.340  -3.559  -9.839  1.00  0.00     0.039 A 
HETATM    3  N   UNL     1     -23.830  -3.473 -11.092  1.00  0.00    -0.367 N 
ATOM      4  HN  UNL     1     -24.440  -3.172 -11.852  1.00  0.00     0.165 HD
HETATM    5  C   UNL     1     -22.541  -3.772 -11.368  1.00  0.00     0.098 A 
HETATM    6  C   UNL     1     -21.667  -4.189 -10.353  1.00  0.00    -0.008 A 
HETATM    7  C   UNL     1     -22.153  -4.277  -9.015  1.00  0.00     0.010 A 
HETATM    8  C   UNL     1     -23.521  -3.958  -8.767  1.00  0.00     0.096 A 
ENDROOT
BRANCH   6   9
HETATM    9  C   UNL     1     -20.246  -4.540 -10.744  1.00  0.00     0.205 C 
BRANCH   9  10
HETATM   10  O   UNL     1     -19.798  -3.717 -11.788  1.00  0.00    -0.396 OA
HETATM   11  H   UNL     1     -19.773  -2.786 -11.442  1.00  0.00     0.209 HD
ENDBRANCH   9  10
ENDBRANCH   6   9
BRANCH   7  12
HETATM   12  C   UNL     1     -21.210  -4.697  -7.895  1.00  0.00     0.206 C 
BRANCH  12  13
HETATM   13  O   UNL     1     -21.214  -3.755  -6.857  1.00  0.00    -0.396 OA
HETATM   14  H   UNL     1     -20.328  -3.308  -6.875  1.00  0.00     0.209 HD
ENDBRANCH  12  13
ENDBRANCH   7  12
BRANCH   8  15
HETATM   15  O   UNL     1     -24.091  -4.030  -7.541  1.00  0.00    -0.358 OA
HETATM   16  H   UNL     1     -24.709  -3.399  -7.161  1.00  0.00     0.217 HD
ENDBRANCH   8  15
TORSDOF 5
ENDMDL
MODEL 8
REMARK VINA RESULT:      -5.0      3.126      5.116
REMARK  5 active torsions:
REMARK  status: ('A' for Active; 'I' for Inactive)
REMARK    1  A    between atoms: C_6  and  C_12 
REMARK    2  A    between atoms: C_7  and  C_10 
REMARK    3  A    between atoms: C_8  and  O_9 
REMARK    4  A    between atoms: C_10  and  O_11 
REMARK    5  A    between atoms: C_12  and  O_13 
ROOT
HETATM    1  C   UNL     1     -21.452  -5.730  -4.879  1.00  0.00     0.071 C 
HETATM    2  C   UNL     1     -21.288  -5.253  -6.291  1.00  0.00     0.039 A 
HETATM    3  N   UNL     1     -20.039  -5.177  -6.813  1.00  0.00    -0.367 N 
ATOM      4  HN  UNL     1     -19.246  -5.461  -6.236  1.00  0.00     0.165 HD
HETATM    5  C   UNL     1     -19.808  -4.737  -8.070  1.00  0.00     0.098 A 
HETATM    6  C   UNL     1     -20.868  -4.338  -8.897  1.00  0.00    -0.008 A 
HETATM    7  C   UNL     1     -22.202  -4.418  -8.399  1.00  0.00     0.010 A 
HETATM    8  C   UNL     1     -22.401  -4.881  -7.065  1.00  0.00     0.096 A 
ENDROOT
BRANCH   6   9
HETATM    9  C   UNL     1     -20.529  -3.824 -10.282  1.00  0.00     0.205 C 
BRANCH   9  10
HETATM   10  O   UNL     1     -19.813  -4.787 -11.009  1.00  0.00    -0.396 OA
HETATM   11  H   UNL     1     -18.852  -4.671 -10.788  1.00  0.00     0.209 HD
ENDBRANCH   9  10
ENDBRANCH   6   9
BRANCH   7  12
HETATM   12  C   UNL     1     -23.368  -4.018  -9.294  1.00  0.00     0.206 C 
BRANCH  12  13
HETATM   13  O   UNL     1     -24.390  -3.419  -8.546  1.00  0.00    -0.396 OA
HETATM   14  H   UNL     1     -24.208  -2.443  -8.546  1.00  0.00     0.209 HD
ENDBRANCH  12  13
ENDBRANCH   7  12
BRANCH   8  15
HETATM   15  O   UNL     1     -23.622  -4.974  -6.485  1.00  0.00    -0.358 OA
HETATM   16  H   UNL     1     -24.248  -4.256  -6.353  1.00  0.00     0.217 HD
ENDBRANCH   8  15
TORSDOF 5
ENDMDL
MODEL 9
REMARK VINA RESULT:      -5.0      2.845      5.515
REMARK  5 active torsions:
REMARK  status: ('A' for Active; 'I' for Inactive)
REMARK    1  A    between atoms: C_6  and  C_12 
REMARK    2  A    between atoms: C_7  and  C_10 
REMARK    3  A    between atoms: C_8  and  O_9 
REMARK    4  A    between atoms: C_10  and  O_11 
REMARK    5  A    between atoms: C_12  and  O_13 
ROOT
HETATM    1  C   UNL     1     -20.472  -5.290  -5.463  1.00  0.00     0.071 C 
HETATM    2  C   UNL     1     -21.232  -4.839  -6.675  1.00  0.00     0.039 A 
HETATM    3  N   UNL     1     -22.578  -4.699  -6.587  1.00  0.00    -0.367 N 
ATOM      4  HN  UNL     1     -23.035  -4.888  -5.695  1.00  0.00     0.165 HD
HETATM    5  C   UNL     1     -23.333  -4.318  -7.641  1.00  0.00     0.098 A 
HETATM    6  C   UNL     1     -22.746  -4.048  -8.886  1.00  0.00    -0.008 A 
HETATM    7  C   UNL     1     -21.331  -4.163  -9.023  1.00  0.00     0.010 A 
HETATM    8  C   UNL     1     -20.571  -4.575  -7.888  1.00  0.00     0.096 A 
ENDROOT
BRANCH   6   9
HETATM    9  C   UNL     1     -23.660  -3.659 -10.030  1.00  0.00     0.205 C 
BRANCH   9  10
HETATM   10  O   UNL     1     -24.851  -4.399  -9.990  1.00  0.00    -0.396 OA
HETATM   11  H   UNL     1     -24.944  -4.763  -9.071  1.00  0.00     0.209 HD
ENDBRANCH   9  10
ENDBRANCH   6   9
BRANCH   7  12
HETATM   12  C   UNL     1     -20.672  -3.843 -10.359  1.00  0.00     0.206 C 
BRANCH  12  13
HETATM   13  O   UNL     1     -19.921  -4.933 -10.820  1.00  0.00    -0.396 OA
HETATM   14  H   UNL     1     -20.493  -5.419 -11.468  1.00  0.00     0.209 HD
ENDBRANCH  12  13
ENDBRANCH   7  12
BRANCH   8  15
HETATM   15  O   UNL     1     -19.227  -4.739  -7.913  1.00  0.00    -0.358 OA
HETATM   16  H   UNL     1     -18.753  -5.576  -7.898  1.00  0.00     0.217 HD
ENDBRANCH   8  15
TORSDOF 5
ENDMDL
