MODEL 1
REMARK VINA RESULT:      -1.3      0.000      0.000
REMARK  6 active torsions:
REMARK  status: ('A' for Active; 'I' for Inactive)
REMARK    1  A    between atoms: C_4  and  N_14 
REMARK    2  A    between atoms: C_5  and  O_12 
REMARK    3  A    between atoms: C_7  and  S_8 
REMARK    4  A    between atoms: N_16  and  C_18 
REMARK    5  A    between atoms: C_19  and  O_32 
REMARK    6  A    between atoms: C_26  and  S_28 
ROOT
HETATM    1 NA   UNL     2     -32.324  -8.576   4.529  1.00  0.00     0.000 Na
ENDROOT
TORSDOF 6
ENDMDL
MODEL 2
REMARK VINA RESULT:      -1.3     23.494     23.494
REMARK  6 active torsions:
REMARK  status: ('A' for Active; 'I' for Inactive)
REMARK    1  A    between atoms: C_4  and  N_14 
REMARK    2  A    between atoms: C_5  and  O_12 
REMARK    3  A    between atoms: C_7  and  S_8 
REMARK    4  A    between atoms: N_16  and  C_18 
REMARK    5  A    between atoms: C_19  and  O_32 
REMARK    6  A    between atoms: C_26  and  S_28 
ROOT
HETATM    1 NA   UNL     2     -11.257   1.620   2.468  1.00  0.00     0.000 Na
ENDROOT
TORSDOF 6
ENDMDL
MODEL 3
REMARK VINA RESULT:      -1.2     19.033     19.033
REMARK  6 active torsions:
REMARK  status: ('A' for Active; 'I' for Inactive)
REMARK    1  A    between atoms: C_4  and  N_14 
REMARK    2  A    between atoms: C_5  and  O_12 
REMARK    3  A    between atoms: C_7  and  S_8 
REMARK    4  A    between atoms: N_16  and  C_18 
REMARK    5  A    between atoms: C_19  and  O_32 
REMARK    6  A    between atoms: C_26  and  S_28 
ROOT
HETATM    1 NA   UNL     2     -27.015 -13.665 -13.026  1.00  0.00     0.000 Na
ENDROOT
TORSDOF 6
ENDMDL
MODEL 4
REMARK VINA RESULT:      -1.2     22.209     22.209
REMARK  6 active torsions:
REMARK  status: ('A' for Active; 'I' for Inactive)
REMARK    1  A    between atoms: C_4  and  N_14 
REMARK    2  A    between atoms: C_5  and  O_12 
REMARK    3  A    between atoms: C_7  and  S_8 
REMARK    4  A    between atoms: N_16  and  C_18 
REMARK    5  A    between atoms: C_19  and  O_32 
REMARK    6  A    between atoms: C_26  and  S_28 
ROOT
HETATM    1 NA   UNL     2     -25.113   0.407 -14.459  1.00  0.00     0.000 Na
ENDROOT
TORSDOF 6
ENDMDL
MODEL 5
REMARK VINA RESULT:      -1.2     14.870     14.870
REMARK  6 active torsions:
REMARK  status: ('A' for Active; 'I' for Inactive)
REMARK    1  A    between atoms: C_4  and  N_14 
REMARK    2  A    between atoms: C_5  and  O_12 
REMARK    3  A    between atoms: C_7  and  S_8 
REMARK    4  A    between atoms: N_16  and  C_18 
REMARK    5  A    between atoms: C_19  and  O_32 
REMARK    6  A    between atoms: C_26  and  S_28 
ROOT
HETATM    1 NA   UNL     2     -27.299  -5.621  -9.151  1.00  0.00     0.000 Na
ENDROOT
TORSDOF 6
ENDMDL
MODEL 6
REMARK VINA RESULT:      -1.1     12.630     12.630
REMARK  6 active torsions:
REMARK  status: ('A' for Active; 'I' for Inactive)
REMARK    1  A    between atoms: C_4  and  N_14 
REMARK    2  A    between atoms: C_5  and  O_12 
REMARK    3  A    between atoms: C_7  and  S_8 
REMARK    4  A    between atoms: N_16  and  C_18 
REMARK    5  A    between atoms: C_19  and  O_32 
REMARK    6  A    between atoms: C_26  and  S_28 
ROOT
HETATM    1 NA   UNL     2     -25.101  -4.890  -5.154  1.00  0.00     0.000 Na
ENDROOT
TORSDOF 6
ENDMDL
MODEL 7
REMARK VINA RESULT:      -1.1     10.356     10.356
REMARK  6 active torsions:
REMARK  status: ('A' for Active; 'I' for Inactive)
REMARK    1  A    between atoms: C_4  and  N_14 
REMARK    2  A    between atoms: C_5  and  O_12 
REMARK    3  A    between atoms: C_7  and  S_8 
REMARK    4  A    between atoms: N_16  and  C_18 
REMARK    5  A    between atoms: C_19  and  O_32 
REMARK    6  A    between atoms: C_26  and  S_28 
ROOT
HETATM    1 NA   UNL     2     -25.504  -0.939   2.972  1.00  0.00     0.000 Na
ENDROOT
TORSDOF 6
ENDMDL
MODEL 8
REMARK VINA RESULT:      -1.1     27.173     27.173
REMARK  6 active torsions:
REMARK  status: ('A' for Active; 'I' for Inactive)
REMARK    1  A    between atoms: C_4  and  N_14 
REMARK    2  A    between atoms: C_5  and  O_12 
REMARK    3  A    between atoms: C_7  and  S_8 
REMARK    4  A    between atoms: N_16  and  C_18 
REMARK    5  A    between atoms: C_19  and  O_32 
REMARK    6  A    between atoms: C_26  and  S_28 
ROOT
HETATM    1 NA   UNL     2     -11.561   1.298  -9.956  1.00  0.00     0.000 Na
ENDROOT
TORSDOF 6
ENDMDL
MODEL 9
REMARK VINA RESULT:      -1.0      9.902      9.902
REMARK  6 active torsions:
REMARK  status: ('A' for Active; 'I' for Inactive)
REMARK    1  A    between atoms: C_4  and  N_14 
REMARK    2  A    between atoms: C_5  and  O_12 
REMARK    3  A    between atoms: C_7  and  S_8 
REMARK    4  A    between atoms: N_16  and  C_18 
REMARK    5  A    between atoms: C_19  and  O_32 
REMARK    6  A    between atoms: C_26  and  S_28 
ROOT
HETATM    1 NA   UNL     2     -32.732  -6.045  -5.036  1.00  0.00     0.000 Na
ENDROOT
TORSDOF 6
ENDMDL
