MODEL 1
REMARK VINA RESULT:      -6.7      0.000      0.000
REMARK  18 active torsions:
REMARK  status: ('A' for Active; 'I' for Inactive)
REMARK    1  A    between atoms: C_2  and  C_3 
REMARK    2  A    between atoms: C_3  and  C_4 
REMARK    3  A    between atoms: C_4  and  C_5 
REMARK    4  A    between atoms: C_5  and  C_6 
REMARK    5  A    between atoms: C_6  and  C_7 
REMARK    6  A    between atoms: C_7  and  C_8 
REMARK    7  A    between atoms: C_8  and  O_9 
REMARK    8  A    between atoms: O_9  and  C_10 
REMARK    9  A    between atoms: C_10  and  C_12 
REMARK   10  A    between atoms: C_13  and  C_14 
REMARK   11  A    between atoms: C_14  and  O_16 
REMARK   12  A    between atoms: O_16  and  C_17 
REMARK   13  A    between atoms: C_17  and  C_18 
REMARK   14  A    between atoms: C_18  and  C_19 
REMARK   15  A    between atoms: C_19  and  C_20 
REMARK   16  A    between atoms: C_20  and  C_21 
REMARK   17  A    between atoms: C_21  and  C_22 
REMARK   18  A    between atoms: C_22  and  C_23 
ROOT
HETATM    1  C   UNL     1     -21.358  -5.907  -6.825  1.00  0.00     0.088 C 
HETATM    2  C   UNL     1     -21.501  -6.183  -5.524  1.00  0.00     0.088 C 
ENDROOT
BRANCH   1   3
HETATM    3  C   UNL     1     -21.634  -4.537  -7.327  1.00  0.00     0.283 C 
HETATM    4  O   UNL     1     -20.824  -3.641  -7.402  1.00  0.00    -0.260 OA
BRANCH   3   5
HETATM    5  O   UNL     1     -22.973  -4.431  -7.587  1.00  0.00    -0.318 OA
BRANCH   5   6
HETATM    6  C   UNL     1     -23.306  -3.804  -8.841  1.00  0.00     0.179 C 
BRANCH   6   7
HETATM    7  C   UNL     1     -24.088  -4.713  -9.791  1.00  0.00     0.027 C 
BRANCH   7   8
HETATM    8  C   UNL     1     -23.414  -4.810 -11.172  1.00  0.00     0.002 C 
BRANCH   8   9
HETATM    9  C   UNL     1     -22.048  -4.111 -11.201  1.00  0.00     0.000 C 
BRANCH   9  10
HETATM   10  C   UNL     1     -22.108  -2.775 -11.950  1.00  0.00     0.000 C 
BRANCH  10  11
HETATM   11  C   UNL     1     -23.381  -2.668 -12.793  1.00  0.00    -0.000 C 
BRANCH  11  12
HETATM   12  C   UNL     1     -23.077  -2.780 -14.288  1.00  0.00    -0.005 C 
HETATM   13  C   UNL     1     -23.449  -1.501 -15.020  1.00  0.00     0.005 C 
ENDBRANCH  11  12
ENDBRANCH  10  11
ENDBRANCH   9  10
ENDBRANCH   8   9
ENDBRANCH   7   8
ENDBRANCH   6   7
ENDBRANCH   5   6
ENDBRANCH   3   5
ENDBRANCH   1   3
BRANCH   2  14
HETATM   14  C   UNL     1     -21.262  -7.543  -4.989  1.00  0.00     0.283 C 
HETATM   15  O   UNL     1     -21.253  -8.575  -5.648  1.00  0.00    -0.260 OA
BRANCH  14  16
HETATM   16  O   UNL     1     -21.143  -7.488  -3.630  1.00  0.00    -0.318 OA
BRANCH  16  17
HETATM   17  C   UNL     1     -21.482  -6.214  -3.050  1.00  0.00     0.179 C 
BRANCH  17  18
HETATM   18  C   UNL     1     -22.324  -6.320  -1.777  1.00  0.00     0.027 C 
BRANCH  18  19
HETATM   19  C   UNL     1     -21.770  -7.384  -0.810  1.00  0.00     0.002 C 
BRANCH  19  20
HETATM   20  C   UNL     1     -22.876  -8.033   0.031  1.00  0.00     0.000 C 
BRANCH  20  21
HETATM   21  C   UNL     1     -22.799  -9.564  -0.006  1.00  0.00     0.000 C 
BRANCH  21  22
HETATM   22  C   UNL     1     -22.337 -10.063  -1.378  1.00  0.00    -0.000 C 
BRANCH  22  23
HETATM   23  C   UNL     1     -23.267 -11.146  -1.923  1.00  0.00    -0.005 C 
HETATM   24  C   UNL     1     -24.199 -11.665  -0.840  1.00  0.00     0.005 C 
ENDBRANCH  22  23
ENDBRANCH  21  22
ENDBRANCH  20  21
ENDBRANCH  19  20
ENDBRANCH  18  19
ENDBRANCH  17  18
ENDBRANCH  16  17
ENDBRANCH  14  16
ENDBRANCH   2  14
TORSDOF 18
ENDMDL
MODEL 2
REMARK VINA RESULT:      -6.6      1.702     10.844
REMARK  18 active torsions:
REMARK  status: ('A' for Active; 'I' for Inactive)
REMARK    1  A    between atoms: C_2  and  C_3 
REMARK    2  A    between atoms: C_3  and  C_4 
REMARK    3  A    between atoms: C_4  and  C_5 
REMARK    4  A    between atoms: C_5  and  C_6 
REMARK    5  A    between atoms: C_6  and  C_7 
REMARK    6  A    between atoms: C_7  and  C_8 
REMARK    7  A    between atoms: C_8  and  O_9 
REMARK    8  A    between atoms: O_9  and  C_10 
REMARK    9  A    between atoms: C_10  and  C_12 
REMARK   10  A    between atoms: C_13  and  C_14 
REMARK   11  A    between atoms: C_14  and  O_16 
REMARK   12  A    between atoms: O_16  and  C_17 
REMARK   13  A    between atoms: C_17  and  C_18 
REMARK   14  A    between atoms: C_18  and  C_19 
REMARK   15  A    between atoms: C_19  and  C_20 
REMARK   16  A    between atoms: C_20  and  C_21 
REMARK   17  A    between atoms: C_21  and  C_22 
REMARK   18  A    between atoms: C_22  and  C_23 
ROOT
HETATM    1  C   UNL     1     -21.332  -7.383  -3.177  1.00  0.00     0.088 C 
HETATM    2  C   UNL     1     -21.425  -6.636  -4.282  1.00  0.00     0.088 C 
ENDROOT
BRANCH   1   3
HETATM    3  C   UNL     1     -21.804  -6.846  -1.876  1.00  0.00     0.283 C 
HETATM    4  O   UNL     1     -22.448  -5.831  -1.729  1.00  0.00    -0.260 OA
BRANCH   3   5
HETATM    5  O   UNL     1     -21.301  -7.628  -0.874  1.00  0.00    -0.318 OA
BRANCH   5   6
HETATM    6  C   UNL     1     -22.083  -7.652   0.336  1.00  0.00     0.179 C 
BRANCH   6   7
HETATM    7  C   UNL     1     -23.319  -8.550   0.248  1.00  0.00     0.027 C 
BRANCH   7   8
HETATM    8  C   UNL     1     -22.993  -9.908  -0.401  1.00  0.00     0.002 C 
BRANCH   8   9
HETATM    9  C   UNL     1     -24.049 -10.973  -0.079  1.00  0.00     0.000 C 
BRANCH   9  10
HETATM   10  C   UNL     1     -23.888 -12.218  -0.959  1.00  0.00     0.000 C 
BRANCH  10  11
HETATM   11  C   UNL     1     -23.716 -13.480  -0.109  1.00  0.00    -0.000 C 
BRANCH  11  12
HETATM   12  C   UNL     1     -23.197 -13.149   1.291  1.00  0.00    -0.005 C 
HETATM   13  C   UNL     1     -23.493 -14.277   2.266  1.00  0.00     0.005 C 
ENDBRANCH  11  12
ENDBRANCH  10  11
ENDBRANCH   9  10
ENDBRANCH   8   9
ENDBRANCH   7   8
ENDBRANCH   6   7
ENDBRANCH   5   6
ENDBRANCH   3   5
ENDBRANCH   1   3
BRANCH   2  14
HETATM   14  C   UNL     1     -20.940  -7.126  -5.593  1.00  0.00     0.283 C 
HETATM   15  O   UNL     1     -21.192  -8.221  -6.080  1.00  0.00    -0.260 OA
BRANCH  14  16
HETATM   16  O   UNL     1     -20.089  -6.209  -6.140  1.00  0.00    -0.318 OA
BRANCH  16  17
HETATM   17  C   UNL     1     -20.405  -4.839  -5.831  1.00  0.00     0.179 C 
BRANCH  17  18
HETATM   18  C   UNL     1     -20.799  -4.005  -7.052  1.00  0.00     0.027 C 
BRANCH  18  19
HETATM   19  C   UNL     1     -22.287  -4.179  -7.409  1.00  0.00     0.002 C 
BRANCH  19  20
HETATM   20  C   UNL     1     -22.512  -4.259  -8.924  1.00  0.00     0.000 C 
BRANCH  20  21
HETATM   21  C   UNL     1     -23.931  -3.830  -9.315  1.00  0.00     0.000 C 
BRANCH  21  22
HETATM   22  C   UNL     1     -23.973  -3.294 -10.748  1.00  0.00    -0.000 C 
BRANCH  22  23
HETATM   23  C   UNL     1     -22.585  -3.289 -11.387  1.00  0.00    -0.005 C 
HETATM   24  C   UNL     1     -22.673  -3.051 -12.887  1.00  0.00     0.005 C 
ENDBRANCH  22  23
ENDBRANCH  21  22
ENDBRANCH  20  21
ENDBRANCH  19  20
ENDBRANCH  18  19
ENDBRANCH  17  18
ENDBRANCH  16  17
ENDBRANCH  14  16
ENDBRANCH   2  14
TORSDOF 18
ENDMDL
MODEL 3
REMARK VINA RESULT:      -6.4     13.436     16.069
REMARK  18 active torsions:
REMARK  status: ('A' for Active; 'I' for Inactive)
REMARK    1  A    between atoms: C_2  and  C_3 
REMARK    2  A    between atoms: C_3  and  C_4 
REMARK    3  A    between atoms: C_4  and  C_5 
REMARK    4  A    between atoms: C_5  and  C_6 
REMARK    5  A    between atoms: C_6  and  C_7 
REMARK    6  A    between atoms: C_7  and  C_8 
REMARK    7  A    between atoms: C_8  and  O_9 
REMARK    8  A    between atoms: O_9  and  C_10 
REMARK    9  A    between atoms: C_10  and  C_12 
REMARK   10  A    between atoms: C_13  and  C_14 
REMARK   11  A    between atoms: C_14  and  O_16 
REMARK   12  A    between atoms: O_16  and  C_17 
REMARK   13  A    between atoms: C_17  and  C_18 
REMARK   14  A    between atoms: C_18  and  C_19 
REMARK   15  A    between atoms: C_19  and  C_20 
REMARK   16  A    between atoms: C_20  and  C_21 
REMARK   17  A    between atoms: C_21  and  C_22 
REMARK   18  A    between atoms: C_22  and  C_23 
ROOT
HETATM    1  C   UNL     1     -35.729  -1.216 -15.693  1.00  0.00     0.088 C 
HETATM    2  C   UNL     1     -35.129  -1.693 -16.789  1.00  0.00     0.088 C 
ENDROOT
BRANCH   1   3
HETATM    3  C   UNL     1     -36.629  -0.040 -15.793  1.00  0.00     0.283 C 
HETATM    4  O   UNL     1     -37.603   0.039 -16.508  1.00  0.00    -0.260 OA
BRANCH   3   5
HETATM    5  O   UNL     1     -36.113   0.969 -15.029  1.00  0.00    -0.318 OA
BRANCH   5   6
HETATM    6  C   UNL     1     -34.842   0.683 -14.413  1.00  0.00     0.179 C 
BRANCH   6   7
HETATM    7  C   UNL     1     -34.845   0.855 -12.893  1.00  0.00     0.027 C 
BRANCH   7   8
HETATM    8  C   UNL     1     -36.014   0.099 -12.235  1.00  0.00     0.002 C 
BRANCH   8   9
HETATM    9  C   UNL     1     -35.540  -1.130 -11.448  1.00  0.00     0.000 C 
BRANCH   9  10
HETATM   10  C   UNL     1     -36.477  -1.452 -10.278  1.00  0.00     0.000 C 
BRANCH  10  11
HETATM   11  C   UNL     1     -37.429  -0.289  -9.993  1.00  0.00    -0.000 C 
BRANCH  11  12
HETATM   12  C   UNL     1     -37.640  -0.089  -8.491  1.00  0.00    -0.005 C 
HETATM   13  C   UNL     1     -36.423   0.558  -7.848  1.00  0.00     0.005 C 
ENDBRANCH  11  12
ENDBRANCH  10  11
ENDBRANCH   9  10
ENDBRANCH   8   9
ENDBRANCH   7   8
ENDBRANCH   6   7
ENDBRANCH   5   6
ENDBRANCH   3   5
ENDBRANCH   1   3
BRANCH   2  14
HETATM   14  C   UNL     1     -34.202  -2.847 -16.726  1.00  0.00     0.283 C 
HETATM   15  O   UNL     1     -33.188  -2.983 -17.400  1.00  0.00    -0.260 OA
BRANCH  14  16
HETATM   16  O   UNL     1     -34.697  -3.787 -15.869  1.00  0.00    -0.318 OA
BRANCH  16  17
HETATM   17  C   UNL     1     -33.785  -4.194 -14.833  1.00  0.00     0.179 C 
BRANCH  17  18
HETATM   18  C   UNL     1     -34.295  -3.918 -13.417  1.00  0.00     0.027 C 
BRANCH  18  19
HETATM   19  C   UNL     1     -33.139  -3.781 -12.408  1.00  0.00     0.002 C 
BRANCH  19  20
HETATM   20  C   UNL     1     -33.514  -4.321 -11.022  1.00  0.00     0.000 C 
BRANCH  20  21
HETATM   21  C   UNL     1     -33.510  -5.853 -10.985  1.00  0.00     0.000 C 
BRANCH  21  22
HETATM   22  C   UNL     1     -34.898  -6.403 -10.648  1.00  0.00    -0.000 C 
BRANCH  22  23
HETATM   23  C   UNL     1     -34.833  -7.445  -9.531  1.00  0.00    -0.005 C 
HETATM   24  C   UNL     1     -34.007  -8.650  -9.954  1.00  0.00     0.005 C 
ENDBRANCH  22  23
ENDBRANCH  21  22
ENDBRANCH  20  21
ENDBRANCH  19  20
ENDBRANCH  18  19
ENDBRANCH  17  18
ENDBRANCH  16  17
ENDBRANCH  14  16
ENDBRANCH   2  14
TORSDOF 18
ENDMDL
MODEL 4
REMARK VINA RESULT:      -6.4      2.155      4.342
REMARK  18 active torsions:
REMARK  status: ('A' for Active; 'I' for Inactive)
REMARK    1  A    between atoms: C_2  and  C_3 
REMARK    2  A    between atoms: C_3  and  C_4 
REMARK    3  A    between atoms: C_4  and  C_5 
REMARK    4  A    between atoms: C_5  and  C_6 
REMARK    5  A    between atoms: C_6  and  C_7 
REMARK    6  A    between atoms: C_7  and  C_8 
REMARK    7  A    between atoms: C_8  and  O_9 
REMARK    8  A    between atoms: O_9  and  C_10 
REMARK    9  A    between atoms: C_10  and  C_12 
REMARK   10  A    between atoms: C_13  and  C_14 
REMARK   11  A    between atoms: C_14  and  O_16 
REMARK   12  A    between atoms: O_16  and  C_17 
REMARK   13  A    between atoms: C_17  and  C_18 
REMARK   14  A    between atoms: C_18  and  C_19 
REMARK   15  A    between atoms: C_19  and  C_20 
REMARK   16  A    between atoms: C_20  and  C_21 
REMARK   17  A    between atoms: C_21  and  C_22 
REMARK   18  A    between atoms: C_22  and  C_23 
ROOT
HETATM    1  C   UNL     1     -21.100  -7.781  -3.222  1.00  0.00     0.088 C 
HETATM    2  C   UNL     1     -20.269  -8.119  -2.230  1.00  0.00     0.088 C 
ENDROOT
BRANCH   1   3
HETATM    3  C   UNL     1     -21.834  -6.492  -3.168  1.00  0.00     0.283 C 
HETATM    4  O   UNL     1     -22.390  -6.042  -2.192  1.00  0.00    -0.260 OA
BRANCH   3   5
HETATM    5  O   UNL     1     -21.867  -5.958  -4.427  1.00  0.00    -0.318 OA
BRANCH   5   6
HETATM    6  C   UNL     1     -21.076  -6.654  -5.409  1.00  0.00     0.179 C 
BRANCH   6   7
HETATM    7  C   UNL     1     -21.001  -5.936  -6.757  1.00  0.00     0.027 C 
BRANCH   7   8
HETATM    8  C   UNL     1     -20.571  -4.466  -6.598  1.00  0.00     0.002 C 
BRANCH   8   9
HETATM    9  C   UNL     1     -21.438  -3.515  -7.433  1.00  0.00     0.000 C 
BRANCH   9  10
HETATM   10  C   UNL     1     -22.470  -4.275  -8.274  1.00  0.00     0.000 C 
BRANCH  10  11
HETATM   11  C   UNL     1     -22.197  -4.108  -9.771  1.00  0.00    -0.000 C 
BRANCH  11  12
HETATM   12  C   UNL     1     -23.388  -3.476 -10.492  1.00  0.00    -0.005 C 
HETATM   13  C   UNL     1     -24.584  -3.341  -9.563  1.00  0.00     0.005 C 
ENDBRANCH  11  12
ENDBRANCH  10  11
ENDBRANCH   9  10
ENDBRANCH   8   9
ENDBRANCH   7   8
ENDBRANCH   6   7
ENDBRANCH   5   6
ENDBRANCH   3   5
ENDBRANCH   1   3
BRANCH   2  14
HETATM   14  C   UNL     1     -19.539  -9.408  -2.233  1.00  0.00     0.283 C 
HETATM   15  O   UNL     1     -18.497  -9.633  -2.836  1.00  0.00    -0.260 OA
BRANCH  14  16
HETATM   16  O   UNL     1     -20.252 -10.341  -1.537  1.00  0.00    -0.318 OA
BRANCH  16  17
HETATM   17  C   UNL     1     -20.413 -11.601  -2.215  1.00  0.00     0.179 C 
BRANCH  17  18
HETATM   18  C   UNL     1     -21.841 -12.148  -2.170  1.00  0.00     0.027 C 
BRANCH  18  19
HETATM   19  C   UNL     1     -22.888 -11.019  -2.160  1.00  0.00     0.002 C 
BRANCH  19  20
HETATM   20  C   UNL     1     -23.899 -11.178  -1.018  1.00  0.00     0.000 C 
BRANCH  20  21
HETATM   21  C   UNL     1     -23.543 -10.301   0.187  1.00  0.00     0.000 C 
BRANCH  21  22
HETATM   22  C   UNL     1     -23.121  -8.897  -0.253  1.00  0.00    -0.000 C 
BRANCH  22  23
HETATM   23  C   UNL     1     -22.540  -8.095   0.910  1.00  0.00    -0.005 C 
HETATM   24  C   UNL     1     -21.187  -8.646   1.334  1.00  0.00     0.005 C 
ENDBRANCH  22  23
ENDBRANCH  21  22
ENDBRANCH  20  21
ENDBRANCH  19  20
ENDBRANCH  18  19
ENDBRANCH  17  18
ENDBRANCH  16  17
ENDBRANCH  14  16
ENDBRANCH   2  14
TORSDOF 18
ENDMDL
MODEL 5
REMARK VINA RESULT:      -6.4      2.015      3.752
REMARK  18 active torsions:
REMARK  status: ('A' for Active; 'I' for Inactive)
REMARK    1  A    between atoms: C_2  and  C_3 
REMARK    2  A    between atoms: C_3  and  C_4 
REMARK    3  A    between atoms: C_4  and  C_5 
REMARK    4  A    between atoms: C_5  and  C_6 
REMARK    5  A    between atoms: C_6  and  C_7 
REMARK    6  A    between atoms: C_7  and  C_8 
REMARK    7  A    between atoms: C_8  and  O_9 
REMARK    8  A    between atoms: O_9  and  C_10 
REMARK    9  A    between atoms: C_10  and  C_12 
REMARK   10  A    between atoms: C_13  and  C_14 
REMARK   11  A    between atoms: C_14  and  O_16 
REMARK   12  A    between atoms: O_16  and  C_17 
REMARK   13  A    between atoms: C_17  and  C_18 
REMARK   14  A    between atoms: C_18  and  C_19 
REMARK   15  A    between atoms: C_19  and  C_20 
REMARK   16  A    between atoms: C_20  and  C_21 
REMARK   17  A    between atoms: C_21  and  C_22 
REMARK   18  A    between atoms: C_22  and  C_23 
ROOT
HETATM    1  C   UNL     1     -21.201  -7.392  -3.898  1.00  0.00     0.088 C 
HETATM    2  C   UNL     1     -21.753  -6.616  -2.959  1.00  0.00     0.088 C 
ENDROOT
BRANCH   1   3
HETATM    3  C   UNL     1     -21.115  -6.911  -5.301  1.00  0.00     0.283 C 
HETATM    4  O   UNL     1     -20.742  -7.569  -6.245  1.00  0.00    -0.260 OA
BRANCH   3   5
HETATM    5  O   UNL     1     -21.422  -5.579  -5.323  1.00  0.00    -0.318 OA
BRANCH   5   6
HETATM    6  C   UNL     1     -20.437  -4.734  -5.947  1.00  0.00     0.179 C 
BRANCH   6   7
HETATM    7  C   UNL     1     -20.989  -3.896  -7.101  1.00  0.00     0.027 C 
BRANCH   7   8
HETATM    8  C   UNL     1     -21.883  -4.732  -8.036  1.00  0.00     0.002 C 
BRANCH   8   9
HETATM    9  C   UNL     1     -23.239  -4.062  -8.294  1.00  0.00     0.000 C 
BRANCH   9  10
HETATM   10  C   UNL     1     -23.415  -3.682  -9.768  1.00  0.00     0.000 C 
BRANCH  10  11
HETATM   11  C   UNL     1     -22.590  -4.594 -10.679  1.00  0.00    -0.000 C 
BRANCH  11  12
HETATM   12  C   UNL     1     -21.779  -3.790 -11.696  1.00  0.00    -0.005 C 
HETATM   13  C   UNL     1     -20.439  -3.367 -11.116  1.00  0.00     0.005 C 
ENDBRANCH  11  12
ENDBRANCH  10  11
ENDBRANCH   9  10
ENDBRANCH   8   9
ENDBRANCH   7   8
ENDBRANCH   6   7
ENDBRANCH   5   6
ENDBRANCH   3   5
ENDBRANCH   1   3
BRANCH   2  14
HETATM   14  C   UNL     1     -21.882  -7.071  -1.555  1.00  0.00     0.283 C 
HETATM   15  O   UNL     1     -22.746  -6.707  -0.766  1.00  0.00    -0.260 OA
BRANCH  14  16
HETATM   16  O   UNL     1     -20.836  -7.888  -1.239  1.00  0.00    -0.318 OA
BRANCH  16  17
HETATM   17  C   UNL     1     -21.207  -9.103  -0.561  1.00  0.00     0.179 C 
BRANCH  17  18
HETATM   18  C   UNL     1     -22.398  -9.824  -1.194  1.00  0.00     0.027 C 
BRANCH  18  19
HETATM   19  C   UNL     1     -23.435 -10.254  -0.138  1.00  0.00     0.002 C 
BRANCH  19  20
HETATM   20  C   UNL     1     -23.602 -11.778  -0.080  1.00  0.00     0.000 C 
BRANCH  20  21
HETATM   21  C   UNL     1     -22.257 -12.495   0.080  1.00  0.00     0.000 C 
BRANCH  21  22
HETATM   22  C   UNL     1     -22.156 -13.190   1.440  1.00  0.00    -0.000 C 
BRANCH  22  23
HETATM   23  C   UNL     1     -23.510 -13.738   1.891  1.00  0.00    -0.005 C 
HETATM   24  C   UNL     1     -23.349 -14.708   3.051  1.00  0.00     0.005 C 
ENDBRANCH  22  23
ENDBRANCH  21  22
ENDBRANCH  20  21
ENDBRANCH  19  20
ENDBRANCH  18  19
ENDBRANCH  17  18
ENDBRANCH  16  17
ENDBRANCH  14  16
ENDBRANCH   2  14
TORSDOF 18
ENDMDL
MODEL 6
REMARK VINA RESULT:      -6.3     13.347     16.517
REMARK  18 active torsions:
REMARK  status: ('A' for Active; 'I' for Inactive)
REMARK    1  A    between atoms: C_2  and  C_3 
REMARK    2  A    between atoms: C_3  and  C_4 
REMARK    3  A    between atoms: C_4  and  C_5 
REMARK    4  A    between atoms: C_5  and  C_6 
REMARK    5  A    between atoms: C_6  and  C_7 
REMARK    6  A    between atoms: C_7  and  C_8 
REMARK    7  A    between atoms: C_8  and  O_9 
REMARK    8  A    between atoms: O_9  and  C_10 
REMARK    9  A    between atoms: C_10  and  C_12 
REMARK   10  A    between atoms: C_13  and  C_14 
REMARK   11  A    between atoms: C_14  and  O_16 
REMARK   12  A    between atoms: O_16  and  C_17 
REMARK   13  A    between atoms: C_17  and  C_18 
REMARK   14  A    between atoms: C_18  and  C_19 
REMARK   15  A    between atoms: C_19  and  C_20 
REMARK   16  A    between atoms: C_20  and  C_21 
REMARK   17  A    between atoms: C_21  and  C_22 
REMARK   18  A    between atoms: C_22  and  C_23 
ROOT
HETATM    1  C   UNL     1     -36.041  -0.650 -14.088  1.00  0.00     0.088 C 
HETATM    2  C   UNL     1     -35.367  -0.344 -15.202  1.00  0.00     0.088 C 
ENDROOT
BRANCH   1   3
HETATM    3  C   UNL     1     -35.706   0.028 -12.810  1.00  0.00     0.283 C 
HETATM    4  O   UNL     1     -34.757   0.757 -12.630  1.00  0.00    -0.260 OA
BRANCH   3   5
HETATM    5  O   UNL     1     -36.584  -0.395 -11.850  1.00  0.00    -0.318 OA
BRANCH   5   6
HETATM    6  C   UNL     1     -35.987  -0.761 -10.591  1.00  0.00     0.179 C 
BRANCH   6   7
HETATM    7  C   UNL     1     -35.398  -2.173 -10.579  1.00  0.00     0.027 C 
BRANCH   7   8
HETATM    8  C   UNL     1     -33.858  -2.150 -10.572  1.00  0.00     0.002 C 
BRANCH   8   9
HETATM    9  C   UNL     1     -33.257  -3.405 -11.218  1.00  0.00     0.000 C 
BRANCH   9  10
HETATM   10  C   UNL     1     -34.156  -3.959 -12.330  1.00  0.00     0.000 C 
BRANCH  10  11
HETATM   11  C   UNL     1     -34.571  -5.403 -12.040  1.00  0.00    -0.000 C 
BRANCH  11  12
HETATM   12  C   UNL     1     -34.466  -5.730 -10.550  1.00  0.00    -0.005 C 
HETATM   13  C   UNL     1     -34.565  -7.228 -10.310  1.00  0.00     0.005 C 
ENDBRANCH  11  12
ENDBRANCH  10  11
ENDBRANCH   9  10
ENDBRANCH   8   9
ENDBRANCH   7   8
ENDBRANCH   6   7
ENDBRANCH   5   6
ENDBRANCH   3   5
ENDBRANCH   1   3
BRANCH   2  14
HETATM   14  C   UNL     1     -35.653  -1.017 -16.491  1.00  0.00     0.283 C 
HETATM   15  O   UNL     1     -36.639  -0.824 -17.191  1.00  0.00    -0.260 OA
BRANCH  14  16
HETATM   16  O   UNL     1     -34.696  -1.958 -16.739  1.00  0.00    -0.318 OA
BRANCH  16  17
HETATM   17  C   UNL     1     -34.877  -3.199 -16.031  1.00  0.00     0.179 C 
BRANCH  17  18
HETATM   18  C   UNL     1     -33.741  -4.202 -16.242  1.00  0.00     0.027 C 
BRANCH  18  19
HETATM   19  C   UNL     1     -32.710  -3.693 -17.267  1.00  0.00     0.002 C 
BRANCH  19  20
HETATM   20  C   UNL     1     -31.332  -4.337 -17.069  1.00  0.00     0.000 C 
BRANCH  20  21
HETATM   21  C   UNL     1     -31.399  -5.866 -17.142  1.00  0.00     0.000 C 
BRANCH  21  22
HETATM   22  C   UNL     1     -30.020  -6.494 -16.928  1.00  0.00    -0.000 C 
BRANCH  22  23
HETATM   23  C   UNL     1     -29.425  -7.002 -18.240  1.00  0.00    -0.005 C 
HETATM   24  C   UNL     1     -28.208  -6.185 -18.643  1.00  0.00     0.005 C 
ENDBRANCH  22  23
ENDBRANCH  21  22
ENDBRANCH  20  21
ENDBRANCH  19  20
ENDBRANCH  18  19
ENDBRANCH  17  18
ENDBRANCH  16  17
ENDBRANCH  14  16
ENDBRANCH   2  14
TORSDOF 18
ENDMDL
MODEL 7
REMARK VINA RESULT:      -6.3      1.821      9.858
REMARK  18 active torsions:
REMARK  status: ('A' for Active; 'I' for Inactive)
REMARK    1  A    between atoms: C_2  and  C_3 
REMARK    2  A    between atoms: C_3  and  C_4 
REMARK    3  A    between atoms: C_4  and  C_5 
REMARK    4  A    between atoms: C_5  and  C_6 
REMARK    5  A    between atoms: C_6  and  C_7 
REMARK    6  A    between atoms: C_7  and  C_8 
REMARK    7  A    between atoms: C_8  and  O_9 
REMARK    8  A    between atoms: O_9  and  C_10 
REMARK    9  A    between atoms: C_10  and  C_12 
REMARK   10  A    between atoms: C_13  and  C_14 
REMARK   11  A    between atoms: C_14  and  O_16 
REMARK   12  A    between atoms: O_16  and  C_17 
REMARK   13  A    between atoms: C_17  and  C_18 
REMARK   14  A    between atoms: C_18  and  C_19 
REMARK   15  A    between atoms: C_19  and  C_20 
REMARK   16  A    between atoms: C_20  and  C_21 
REMARK   17  A    between atoms: C_21  and  C_22 
REMARK   18  A    between atoms: C_22  and  C_23 
ROOT
HETATM    1  C   UNL     1     -21.014  -8.291  -5.469  1.00  0.00     0.088 C 
HETATM    2  C   UNL     1     -20.756  -7.149  -4.823  1.00  0.00     0.088 C 
ENDROOT
BRANCH   1   3
HETATM    3  C   UNL     1     -20.245  -9.519  -5.143  1.00  0.00     0.283 C 
HETATM    4  O   UNL     1     -19.980 -10.407  -5.921  1.00  0.00    -0.260 OA
BRANCH   3   5
HETATM    5  O   UNL     1     -19.985  -9.524  -3.801  1.00  0.00    -0.318 OA
BRANCH   5   6
HETATM    6  C   UNL     1     -20.673 -10.542  -3.048  1.00  0.00     0.179 C 
BRANCH   6   7
HETATM    7  C   UNL     1     -22.185 -10.325  -2.964  1.00  0.00     0.027 C 
BRANCH   7   8
HETATM    8  C   UNL     1     -22.812 -11.122  -1.804  1.00  0.00     0.002 C 
BRANCH   8   9
HETATM    9  C   UNL     1     -23.134 -10.231  -0.597  1.00  0.00     0.000 C 
BRANCH   9  10
HETATM   10  C   UNL     1     -21.894  -9.976   0.268  1.00  0.00     0.000 C 
BRANCH  10  11
HETATM   11  C   UNL     1     -21.522  -8.492   0.280  1.00  0.00    -0.000 C 
BRANCH  11  12
HETATM   12  C   UNL     1     -22.676  -7.618  -0.213  1.00  0.00    -0.005 C 
HETATM   13  C   UNL     1     -22.223  -6.691  -1.330  1.00  0.00     0.005 C 
ENDBRANCH  11  12
ENDBRANCH  10  11
ENDBRANCH   9  10
ENDBRANCH   8   9
ENDBRANCH   7   8
ENDBRANCH   6   7
ENDBRANCH   5   6
ENDBRANCH   3   5
ENDBRANCH   1   3
BRANCH   2  14
HETATM   14  C   UNL     1     -21.483  -5.897  -5.139  1.00  0.00     0.283 C 
HETATM   15  O   UNL     1     -22.696  -5.793  -5.266  1.00  0.00    -0.260 OA
BRANCH  14  16
HETATM   16  O   UNL     1     -20.588  -4.891  -5.361  1.00  0.00    -0.318 OA
BRANCH  16  17
HETATM   17  C   UNL     1     -20.701  -4.261  -6.651  1.00  0.00     0.179 C 
BRANCH  17  18
HETATM   18  C   UNL     1     -19.481  -4.470  -7.550  1.00  0.00     0.027 C 
BRANCH  18  19
HETATM   19  C   UNL     1     -19.873  -5.047  -8.924  1.00  0.00     0.002 C 
BRANCH  19  20
HETATM   20  C   UNL     1     -21.002  -4.248  -9.586  1.00  0.00     0.000 C 
BRANCH  20  21
HETATM   21  C   UNL     1     -20.585  -3.694 -10.953  1.00  0.00     0.000 C 
BRANCH  21  22
HETATM   22  C   UNL     1     -21.802  -3.236 -11.760  1.00  0.00    -0.000 C 
BRANCH  22  23
HETATM   23  C   UNL     1     -23.006  -4.147 -11.527  1.00  0.00    -0.005 C 
HETATM   24  C   UNL     1     -24.221  -3.347 -11.083  1.00  0.00     0.005 C 
ENDBRANCH  22  23
ENDBRANCH  21  22
ENDBRANCH  20  21
ENDBRANCH  19  20
ENDBRANCH  18  19
ENDBRANCH  17  18
ENDBRANCH  16  17
ENDBRANCH  14  16
ENDBRANCH   2  14
TORSDOF 18
ENDMDL
MODEL 8
REMARK VINA RESULT:      -6.2      1.676      2.734
REMARK  18 active torsions:
REMARK  status: ('A' for Active; 'I' for Inactive)
REMARK    1  A    between atoms: C_2  and  C_3 
REMARK    2  A    between atoms: C_3  and  C_4 
REMARK    3  A    between atoms: C_4  and  C_5 
REMARK    4  A    between atoms: C_5  and  C_6 
REMARK    5  A    between atoms: C_6  and  C_7 
REMARK    6  A    between atoms: C_7  and  C_8 
REMARK    7  A    between atoms: C_8  and  O_9 
REMARK    8  A    between atoms: O_9  and  C_10 
REMARK    9  A    between atoms: C_10  and  C_12 
REMARK   10  A    between atoms: C_13  and  C_14 
REMARK   11  A    between atoms: C_14  and  O_16 
REMARK   12  A    between atoms: O_16  and  C_17 
REMARK   13  A    between atoms: C_17  and  C_18 
REMARK   14  A    between atoms: C_18  and  C_19 
REMARK   15  A    between atoms: C_19  and  C_20 
REMARK   16  A    between atoms: C_20  and  C_21 
REMARK   17  A    between atoms: C_21  and  C_22 
REMARK   18  A    between atoms: C_22  and  C_23 
ROOT
HETATM    1  C   UNL     1     -20.860  -6.729  -4.378  1.00  0.00     0.088 C 
HETATM    2  C   UNL     1     -21.325  -7.484  -3.376  1.00  0.00     0.088 C 
ENDROOT
BRANCH   1   3
HETATM    3  C   UNL     1     -21.806  -6.104  -5.336  1.00  0.00     0.283 C 
HETATM    4  O   UNL     1     -23.006  -6.042  -5.197  1.00  0.00    -0.260 OA
BRANCH   3   5
HETATM    5  O   UNL     1     -21.106  -5.711  -6.444  1.00  0.00    -0.318 OA
BRANCH   5   6
HETATM    6  C   UNL     1     -21.043  -4.288  -6.655  1.00  0.00     0.179 C 
BRANCH   6   7
HETATM    7  C   UNL     1     -21.932  -3.797  -7.799  1.00  0.00     0.027 C 
BRANCH   7   8
HETATM    8  C   UNL     1     -21.700  -4.606  -9.089  1.00  0.00     0.002 C 
BRANCH   8   9
HETATM    9  C   UNL     1     -20.374  -4.245  -9.770  1.00  0.00     0.000 C 
BRANCH   9  10
HETATM   10  C   UNL     1     -20.594  -3.423 -11.045  1.00  0.00     0.000 C 
BRANCH  10  11
HETATM   11  C   UNL     1     -21.635  -4.079 -11.955  1.00  0.00    -0.000 C 
BRANCH  11  12
HETATM   12  C   UNL     1     -22.657  -3.063 -12.466  1.00  0.00    -0.005 C 
HETATM   13  C   UNL     1     -23.898  -3.046 -11.589  1.00  0.00     0.005 C 
ENDBRANCH  11  12
ENDBRANCH  10  11
ENDBRANCH   9  10
ENDBRANCH   8   9
ENDBRANCH   7   8
ENDBRANCH   6   7
ENDBRANCH   5   6
ENDBRANCH   3   5
ENDBRANCH   1   3
BRANCH   2  14
HETATM   14  C   UNL     1     -20.412  -8.146  -2.416  1.00  0.00     0.283 C 
HETATM   15  O   UNL     1     -19.541  -8.958  -2.706  1.00  0.00    -0.260 OA
BRANCH  14  16
HETATM   16  O   UNL     1     -20.747  -7.788  -1.142  1.00  0.00    -0.318 OA
BRANCH  16  17
HETATM   17  C   UNL     1     -22.040  -7.167  -1.014  1.00  0.00     0.179 C 
BRANCH  17  18
HETATM   18  C   UNL     1     -22.937  -7.820   0.040  1.00  0.00     0.027 C 
BRANCH  18  19
HETATM   19  C   UNL     1     -22.449  -9.232   0.413  1.00  0.00     0.002 C 
BRANCH  19  20
HETATM   20  C   UNL     1     -23.272 -10.328  -0.276  1.00  0.00     0.000 C 
BRANCH  20  21
HETATM   21  C   UNL     1     -22.449 -11.090  -1.321  1.00  0.00     0.000 C 
BRANCH  21  22
HETATM   22  C   UNL     1     -22.987 -10.850  -2.734  1.00  0.00    -0.000 C 
BRANCH  22  23
HETATM   23  C   UNL     1     -21.975 -11.270  -3.799  1.00  0.00    -0.005 C 
HETATM   24  C   UNL     1     -22.595 -12.242  -4.791  1.00  0.00     0.005 C 
ENDBRANCH  22  23
ENDBRANCH  21  22
ENDBRANCH  20  21
ENDBRANCH  19  20
ENDBRANCH  18  19
ENDBRANCH  17  18
ENDBRANCH  16  17
ENDBRANCH  14  16
ENDBRANCH   2  14
TORSDOF 18
ENDMDL
MODEL 9
REMARK VINA RESULT:      -6.2      1.910      9.962
REMARK  18 active torsions:
REMARK  status: ('A' for Active; 'I' for Inactive)
REMARK    1  A    between atoms: C_2  and  C_3 
REMARK    2  A    between atoms: C_3  and  C_4 
REMARK    3  A    between atoms: C_4  and  C_5 
REMARK    4  A    between atoms: C_5  and  C_6 
REMARK    5  A    between atoms: C_6  and  C_7 
REMARK    6  A    between atoms: C_7  and  C_8 
REMARK    7  A    between atoms: C_8  and  O_9 
REMARK    8  A    between atoms: O_9  and  C_10 
REMARK    9  A    between atoms: C_10  and  C_12 
REMARK   10  A    between atoms: C_13  and  C_14 
REMARK   11  A    between atoms: C_14  and  O_16 
REMARK   12  A    between atoms: O_16  and  C_17 
REMARK   13  A    between atoms: C_17  and  C_18 
REMARK   14  A    between atoms: C_18  and  C_19 
REMARK   15  A    between atoms: C_19  and  C_20 
REMARK   16  A    between atoms: C_20  and  C_21 
REMARK   17  A    between atoms: C_21  and  C_22 
REMARK   18  A    between atoms: C_22  and  C_23 
ROOT
HETATM    1  C   UNL     1     -20.991  -7.540  -3.406  1.00  0.00     0.088 C 
HETATM    2  C   UNL     1     -20.803  -7.000  -4.616  1.00  0.00     0.088 C 
ENDROOT
BRANCH   1   3
HETATM    3  C   UNL     1     -21.750  -6.795  -2.371  1.00  0.00     0.283 C 
HETATM    4  O   UNL     1     -22.530  -5.894  -2.586  1.00  0.00    -0.260 OA
BRANCH   3   5
HETATM    5  O   UNL     1     -21.340  -7.222  -1.139  1.00  0.00    -0.318 OA
BRANCH   5   6
HETATM    6  C   UNL     1     -22.379  -7.313  -0.145  1.00  0.00     0.179 C 
BRANCH   6   7
HETATM    7  C   UNL     1     -22.073  -8.312   0.973  1.00  0.00     0.027 C 
BRANCH   7   8
HETATM    8  C   UNL     1     -22.131  -9.767   0.470  1.00  0.00     0.002 C 
BRANCH   8   9
HETATM    9  C   UNL     1     -23.428 -10.066  -0.292  1.00  0.00     0.000 C 
BRANCH   9  10
HETATM   10  C   UNL     1     -23.662 -11.573  -0.448  1.00  0.00     0.000 C 
BRANCH  10  11
HETATM   11  C   UNL     1     -22.986 -12.111  -1.711  1.00  0.00    -0.000 C 
BRANCH  11  12
HETATM   12  C   UNL     1     -22.941 -11.057  -2.818  1.00  0.00    -0.005 C 
HETATM   13  C   UNL     1     -21.688 -11.206  -3.666  1.00  0.00     0.005 C 
ENDBRANCH  11  12
ENDBRANCH  10  11
ENDBRANCH   9  10
ENDBRANCH   8   9
ENDBRANCH   7   8
ENDBRANCH   6   7
ENDBRANCH   5   6
ENDBRANCH   3   5
ENDBRANCH   1   3
BRANCH   2  14
HETATM   14  C   UNL     1     -20.028  -7.701  -5.666  1.00  0.00     0.283 C 
HETATM   15  O   UNL     1     -19.573  -8.834  -5.577  1.00  0.00    -0.260 OA
BRANCH  14  16
HETATM   16  O   UNL     1     -19.815  -6.858  -6.718  1.00  0.00    -0.318 OA
BRANCH  16  17
HETATM   17  C   UNL     1     -20.156  -5.482  -6.463  1.00  0.00     0.179 C 
BRANCH  17  18
HETATM   18  C   UNL     1     -19.563  -4.501  -7.477  1.00  0.00     0.027 C 
BRANCH  18  19
HETATM   19  C   UNL     1     -20.609  -4.045  -8.512  1.00  0.00     0.002 C 
BRANCH  19  20
HETATM   20  C   UNL     1     -20.259  -4.513  -9.931  1.00  0.00     0.000 C 
BRANCH  20  21
HETATM   21  C   UNL     1     -20.935  -3.649 -11.001  1.00  0.00     0.000 C 
BRANCH  21  22
HETATM   22  C   UNL     1     -22.174  -4.342 -11.573  1.00  0.00    -0.000 C 
BRANCH  22  23
HETATM   23  C   UNL     1     -23.416  -3.461 -11.453  1.00  0.00    -0.005 C 
HETATM   24  C   UNL     1     -23.951  -3.458 -10.029  1.00  0.00     0.005 C 
ENDBRANCH  22  23
ENDBRANCH  21  22
ENDBRANCH  20  21
ENDBRANCH  19  20
ENDBRANCH  18  19
ENDBRANCH  17  18
ENDBRANCH  16  17
ENDBRANCH  14  16
ENDBRANCH   2  14
TORSDOF 18
ENDMDL
