MODEL 1
REMARK VINA RESULT:      -5.2      0.000      0.000
REMARK  18 active torsions:
REMARK  status: ('A' for Active; 'I' for Inactive)
REMARK       I    between atoms: C_2  and  N_4 
REMARK    1  A    between atoms: N_4  and  C_5 
REMARK    2  A    between atoms: C_6  and  O_37 
REMARK    3  A    between atoms: C_7  and  O_25 
REMARK    4  A    between atoms: C_8  and  C_23 
REMARK    5  A    between atoms: C_10  and  O_11 
REMARK    6  A    between atoms: O_11  and  C_12 
REMARK    7  A    between atoms: C_13  and  C_21 
REMARK    8  A    between atoms: C_15  and  O_20 
REMARK    9  A    between atoms: C_16  and  N_19 
REMARK   10  A    between atoms: C_17  and  O_18 
REMARK   11  A    between atoms: C_21  and  O_22 
REMARK   12  A    between atoms: C_23  and  O_24 
REMARK   13  A    between atoms: O_25  and  C_26 
REMARK   14  A    between atoms: C_27  and  N_36 
REMARK   15  A    between atoms: C_28  and  O_35 
REMARK   16  A    between atoms: C_29  and  O_34 
REMARK   17  A    between atoms: C_30  and  C_32 
REMARK   18  A    between atoms: C_32  and  O_33 
ROOT
HETATM    1  C   UNL     1     -18.239 -12.021  -3.178  1.00  0.00     0.170 C 
HETATM    2  C   UNL     1     -17.980 -11.019  -2.028  1.00  0.00     0.177 C 
HETATM    3  C   UNL     1     -18.506 -11.635  -0.728  1.00  0.00     0.186 C 
HETATM    4  C   UNL     1     -17.752 -13.013  -0.570  1.00  0.00     0.180 C 
HETATM    5  O   UNL     1     -17.508 -13.844  -1.751  1.00  0.00    -0.349 OA
HETATM    6  C   UNL     1     -17.264 -13.236  -3.038  1.00  0.00     0.286 C 
ENDROOT
BRANCH   3   7
HETATM    7  O   UNL     1     -19.966 -11.530  -0.825  1.00  0.00    -0.348 OA
BRANCH   7   8
HETATM    8  C   UNL     1     -20.725 -10.827   0.186  1.00  0.00     0.296 C 
HETATM    9  C   UNL     1     -22.256 -11.266   0.314  1.00  0.00     0.303 C 
HETATM   10  C   UNL     1     -23.260 -10.420  -0.514  1.00  0.00     0.187 C 
HETATM   11  C   UNL     1     -22.973  -8.920  -0.435  1.00  0.00     0.180 C 
HETATM   12  C   UNL     1     -21.479  -8.566  -0.525  1.00  0.00     0.179 C 
HETATM   13  O   UNL     1     -20.562  -9.414   0.180  1.00  0.00    -0.349 OA
BRANCH   9  14
HETATM   14  N   UNL     1     -22.526 -12.712   0.112  1.00  0.00     0.090 N 
HETATM   15  H   UNL     1     -21.621 -13.183   0.073  1.00  0.00     0.313 HD
HETATM   16  H   UNL     1     -22.881 -12.838  -0.844  1.00  0.00     0.313 HD
ENDBRANCH   9  14
BRANCH  10  17
HETATM   17  O   UNL     1     -23.318 -10.916  -1.856  1.00  0.00    -0.391 OA
HETATM   18  H   UNL     1     -24.235 -11.198  -2.042  1.00  0.00     0.210 HD
ENDBRANCH  10  17
BRANCH  11  19
HETATM   19  O   UNL     1     -23.539  -8.370   0.768  1.00  0.00    -0.390 OA
HETATM   20  H   UNL     1     -22.944  -8.526   1.519  1.00  0.00     0.210 HD
ENDBRANCH  11  19
BRANCH  12  21
HETATM   21  C   UNL     1     -21.036  -8.292  -1.969  1.00  0.00     0.198 C 
BRANCH  21  22
HETATM   22  O   UNL     1     -20.986  -9.459  -2.775  1.00  0.00    -0.398 OA
HETATM   23  H   UNL     1     -20.285  -9.338  -3.439  1.00  0.00     0.209 HD
ENDBRANCH  21  22
ENDBRANCH  12  21
ENDBRANCH   7   8
ENDBRANCH   3   7
BRANCH   2  24
HETATM   24  O   UNL     1     -16.611 -10.631  -1.921  1.00  0.00    -0.391 OA
HETATM   25  H   UNL     1     -16.348 -10.711  -0.981  1.00  0.00     0.210 HD
ENDBRANCH   2  24
BRANCH   4  26
HETATM   26  C   UNL     1     -16.356 -12.775   0.069  1.00  0.00     0.198 C 
BRANCH  26  27
HETATM   27  O   UNL     1     -16.362 -11.694   1.003  1.00  0.00    -0.398 OA
HETATM   28  H   UNL     1     -15.442 -11.520   1.268  1.00  0.00     0.209 HD
ENDBRANCH  26  27
ENDBRANCH   4  26
BRANCH   1  29
HETATM   29  N   UNL     1     -18.234 -11.343  -4.468  1.00  0.00    -0.349 N 
HETATM   30  C   UNL     1     -19.246 -11.349  -5.402  1.00  0.00     0.214 C 
HETATM   31  C   UNL     1     -20.522 -12.111  -5.139  1.00  0.00     0.117 C 
HETATM   32  O   UNL     1     -19.093 -10.695  -6.423  1.00  0.00    -0.274 OA
HETATM   33  H   UNL     1     -17.423 -10.790  -4.741  1.00  0.00     0.163 HD
ENDBRANCH   1  29
BRANCH   6  34
HETATM   34  O   UNL     1     -15.889 -12.852  -3.369  1.00  0.00    -0.348 OA
BRANCH  34  35
HETATM   35  C   UNL     1     -15.357 -13.179  -4.700  1.00  0.00     0.186 C 
HETATM   36  C   UNL     1     -13.812 -13.085  -4.878  1.00  0.00     0.179 C 
HETATM   37  O   UNL     1     -13.067 -14.231  -4.423  1.00  0.00    -0.349 OA
HETATM   38  C   UNL     1     -13.430 -15.503  -4.939  1.00  0.00     0.292 C 
HETATM   39  C   UNL     1     -14.939 -15.802  -4.754  1.00  0.00     0.303 C 
HETATM   40  C   UNL     1     -15.860 -14.602  -5.134  1.00  0.00     0.187 C 
BRANCH  36  41
HETATM   41  C   UNL     1     -13.426 -12.659  -6.314  1.00  0.00     0.198 C 
BRANCH  41  42
HETATM   42  O   UNL     1     -14.541 -12.049  -6.968  1.00  0.00    -0.398 OA
HETATM   43  H   UNL     1     -15.291 -12.657  -6.832  1.00  0.00     0.209 HD
ENDBRANCH  41  42
ENDBRANCH  36  41
BRANCH  38  44
HETATM   44  O   UNL     1     -12.942 -15.675  -6.264  1.00  0.00    -0.369 OA
HETATM   45  H   UNL     1     -13.160 -16.594  -6.511  1.00  0.00     0.212 HD
ENDBRANCH  38  44
BRANCH  39  46
HETATM   46  N   UNL     1     -15.331 -17.086  -5.405  1.00  0.00     0.090 N 
HETATM   47  H   UNL     1     -16.186 -17.408  -4.937  1.00  0.00     0.313 HD
HETATM   48  H   UNL     1     -14.639 -17.805  -5.198  1.00  0.00     0.313 HD
ENDBRANCH  39  46
BRANCH  40  49
HETATM   49  O   UNL     1     -16.097 -14.626  -6.552  1.00  0.00    -0.391 OA
HETATM   50  H   UNL     1     -16.623 -15.423  -6.746  1.00  0.00     0.210 HD
ENDBRANCH  40  49
ENDBRANCH  34  35
ENDBRANCH   6  34
TORSDOF 18
ENDMDL
MODEL 2
REMARK VINA RESULT:      -5.2      1.827      8.245
REMARK  18 active torsions:
REMARK  status: ('A' for Active; 'I' for Inactive)
REMARK       I    between atoms: C_2  and  N_4 
REMARK    1  A    between atoms: N_4  and  C_5 
REMARK    2  A    between atoms: C_6  and  O_37 
REMARK    3  A    between atoms: C_7  and  O_25 
REMARK    4  A    between atoms: C_8  and  C_23 
REMARK    5  A    between atoms: C_10  and  O_11 
REMARK    6  A    between atoms: O_11  and  C_12 
REMARK    7  A    between atoms: C_13  and  C_21 
REMARK    8  A    between atoms: C_15  and  O_20 
REMARK    9  A    between atoms: C_16  and  N_19 
REMARK   10  A    between atoms: C_17  and  O_18 
REMARK   11  A    between atoms: C_21  and  O_22 
REMARK   12  A    between atoms: C_23  and  O_24 
REMARK   13  A    between atoms: O_25  and  C_26 
REMARK   14  A    between atoms: C_27  and  N_36 
REMARK   15  A    between atoms: C_28  and  O_35 
REMARK   16  A    between atoms: C_29  and  O_34 
REMARK   17  A    between atoms: C_30  and  C_32 
REMARK   18  A    between atoms: C_32  and  O_33 
ROOT
HETATM    1  C   UNL     1     -18.815 -12.162  -3.008  1.00  0.00     0.170 C 
HETATM    2  C   UNL     1     -18.323 -13.446  -2.298  1.00  0.00     0.177 C 
HETATM    3  C   UNL     1     -16.800 -13.358  -2.148  1.00  0.00     0.186 C 
HETATM    4  C   UNL     1     -16.525 -12.026  -1.347  1.00  0.00     0.180 C 
HETATM    5  O   UNL     1     -17.323 -10.832  -1.631  1.00  0.00    -0.349 OA
HETATM    6  C   UNL     1     -18.707 -10.950  -2.025  1.00  0.00     0.286 C 
ENDROOT
BRANCH   3   7
HETATM    7  O   UNL     1     -16.275 -13.603  -3.496  1.00  0.00    -0.348 OA
BRANCH   7   8
HETATM    8  C   UNL     1     -14.971 -13.109  -3.882  1.00  0.00     0.296 C 
HETATM    9  C   UNL     1     -14.985 -11.837  -4.848  1.00  0.00     0.303 C 
HETATM   10  C   UNL     1     -14.916 -12.156  -6.366  1.00  0.00     0.187 C 
HETATM   11  C   UNL     1     -13.896 -13.248  -6.693  1.00  0.00     0.180 C 
HETATM   12  C   UNL     1     -13.905 -14.426  -5.703  1.00  0.00     0.179 C 
HETATM   13  O   UNL     1     -14.058 -14.110  -4.312  1.00  0.00    -0.349 OA
BRANCH   9  14
HETATM   14  N   UNL     1     -16.063 -10.848  -4.588  1.00  0.00     0.090 N 
HETATM   15  H   UNL     1     -15.658  -9.921  -4.725  1.00  0.00     0.313 HD
HETATM   16  H   UNL     1     -16.264 -10.855  -3.581  1.00  0.00     0.313 HD
ENDBRANCH   9  14
BRANCH  10  17
HETATM   17  O   UNL     1     -16.228 -12.440  -6.861  1.00  0.00    -0.391 OA
HETATM   18  H   UNL     1     -16.292 -13.399  -7.036  1.00  0.00     0.210 HD
ENDBRANCH  10  17
BRANCH  11  19
HETATM   19  O   UNL     1     -12.575 -12.683  -6.775  1.00  0.00    -0.390 OA
HETATM   20  H   UNL     1     -12.116 -13.017  -7.563  1.00  0.00     0.210 HD
ENDBRANCH  11  19
BRANCH  12  21
HETATM   21  C   UNL     1     -14.842 -15.554  -6.158  1.00  0.00     0.198 C 
BRANCH  21  22
HETATM   22  O   UNL     1     -16.218 -15.239  -6.007  1.00  0.00    -0.398 OA
HETATM   23  H   UNL     1     -16.714 -16.074  -5.940  1.00  0.00     0.209 HD
ENDBRANCH  21  22
ENDBRANCH  12  21
ENDBRANCH   7   8
ENDBRANCH   3   7
BRANCH   2  24
HETATM   24  O   UNL     1     -18.971 -13.677  -1.047  1.00  0.00    -0.391 OA
HETATM   25  H   UNL     1     -18.893 -12.860  -0.512  1.00  0.00     0.210 HD
ENDBRANCH   2  24
BRANCH   4  26
HETATM   26  C   UNL     1     -16.691 -12.287   0.176  1.00  0.00     0.198 C 
BRANCH  26  27
HETATM   27  O   UNL     1     -15.744 -11.558   0.959  1.00  0.00    -0.398 OA
HETATM   28  H   UNL     1     -15.141 -12.199   1.375  1.00  0.00     0.209 HD
ENDBRANCH  26  27
ENDBRANCH   4  26
BRANCH   1  29
HETATM   29  N   UNL     1     -20.121 -12.376  -3.618  1.00  0.00    -0.349 N 
HETATM   30  C   UNL     1     -20.557 -11.866  -4.820  1.00  0.00     0.214 C 
HETATM   31  C   UNL     1     -19.653 -10.988  -5.650  1.00  0.00     0.117 C 
HETATM   32  O   UNL     1     -21.676 -12.172  -5.205  1.00  0.00    -0.274 OA
HETATM   33  H   UNL     1     -20.806 -12.963  -3.145  1.00  0.00     0.163 HD
ENDBRANCH   1  29
BRANCH   6  34
HETATM   34  O   UNL     1     -19.719 -11.034  -0.968  1.00  0.00    -0.348 OA
BRANCH  34  35
HETATM   35  C   UNL     1     -21.067 -10.507  -1.226  1.00  0.00     0.186 C 
HETATM   36  C   UNL     1     -21.951 -10.206   0.021  1.00  0.00     0.179 C 
HETATM   37  O   UNL     1     -21.702  -8.942   0.664  1.00  0.00    -0.349 OA
HETATM   38  C   UNL     1     -21.764  -7.770  -0.134  1.00  0.00     0.292 C 
HETATM   39  C   UNL     1     -20.855  -7.864  -1.386  1.00  0.00     0.303 C 
HETATM   40  C   UNL     1     -20.967  -9.228  -2.133  1.00  0.00     0.187 C 
BRANCH  36  41
HETATM   41  C   UNL     1     -23.452 -10.437  -0.273  1.00  0.00     0.198 C 
BRANCH  41  42
HETATM   42  O   UNL     1     -23.613 -11.190  -1.477  1.00  0.00    -0.398 OA
HETATM   43  H   UNL     1     -24.550 -11.092  -1.726  1.00  0.00     0.209 HD
ENDBRANCH  41  42
ENDBRANCH  36  41
BRANCH  38  44
HETATM   44  O   UNL     1     -23.113  -7.403  -0.399  1.00  0.00    -0.369 OA
HETATM   45  H   UNL     1     -23.641  -8.212  -0.265  1.00  0.00     0.212 HD
ENDBRANCH  38  44
BRANCH  39  46
HETATM   46  N   UNL     1     -21.021  -6.678  -2.278  1.00  0.00     0.090 N 
HETATM   47  H   UNL     1     -21.982  -6.710  -2.638  1.00  0.00     0.313 HD
HETATM   48  H   UNL     1     -20.433  -6.782  -3.104  1.00  0.00     0.313 HD
ENDBRANCH  39  46
BRANCH  40  49
HETATM   49  O   UNL     1     -22.088  -9.177  -3.033  1.00  0.00    -0.391 OA
HETATM   50  H   UNL     1     -22.309  -8.238  -3.170  1.00  0.00     0.210 HD
ENDBRANCH  40  49
ENDBRANCH  34  35
ENDBRANCH   6  34
TORSDOF 18
ENDMDL
MODEL 3
REMARK VINA RESULT:      -5.1      1.626      8.575
REMARK  18 active torsions:
REMARK  status: ('A' for Active; 'I' for Inactive)
REMARK       I    between atoms: C_2  and  N_4 
REMARK    1  A    between atoms: N_4  and  C_5 
REMARK    2  A    between atoms: C_6  and  O_37 
REMARK    3  A    between atoms: C_7  and  O_25 
REMARK    4  A    between atoms: C_8  and  C_23 
REMARK    5  A    between atoms: C_10  and  O_11 
REMARK    6  A    between atoms: O_11  and  C_12 
REMARK    7  A    between atoms: C_13  and  C_21 
REMARK    8  A    between atoms: C_15  and  O_20 
REMARK    9  A    between atoms: C_16  and  N_19 
REMARK   10  A    between atoms: C_17  and  O_18 
REMARK   11  A    between atoms: C_21  and  O_22 
REMARK   12  A    between atoms: C_23  and  O_24 
REMARK   13  A    between atoms: O_25  and  C_26 
REMARK   14  A    between atoms: C_27  and  N_36 
REMARK   15  A    between atoms: C_28  and  O_35 
REMARK   16  A    between atoms: C_29  and  O_34 
REMARK   17  A    between atoms: C_30  and  C_32 
REMARK   18  A    between atoms: C_32  and  O_33 
ROOT
HETATM    1  C   UNL     1     -17.575 -11.608  -2.499  1.00  0.00     0.170 C 
HETATM    2  C   UNL     1     -17.117 -10.988  -3.840  1.00  0.00     0.177 C 
HETATM    3  C   UNL     1     -17.759 -11.785  -4.981  1.00  0.00     0.186 C 
HETATM    4  C   UNL     1     -19.316 -11.713  -4.730  1.00  0.00     0.180 C 
HETATM    5  O   UNL     1     -19.834 -11.804  -3.364  1.00  0.00    -0.349 OA
HETATM    6  C   UNL     1     -19.082 -11.266  -2.256  1.00  0.00     0.286 C 
ENDROOT
BRANCH   3   7
HETATM    7  O   UNL     1     -17.014 -13.047  -5.024  1.00  0.00    -0.348 OA
BRANCH   7   8
HETATM    8  C   UNL     1     -16.037 -13.293  -6.062  1.00  0.00     0.296 C 
HETATM    9  C   UNL     1     -15.745 -14.834  -6.369  1.00  0.00     0.303 C 
HETATM   10  C   UNL     1     -14.547 -15.448  -5.596  1.00  0.00     0.187 C 
HETATM   11  C   UNL     1     -13.332 -14.520  -5.555  1.00  0.00     0.180 C 
HETATM   12  C   UNL     1     -13.684 -13.045  -5.296  1.00  0.00     0.179 C 
HETATM   13  O   UNL     1     -14.846 -12.524  -5.955  1.00  0.00    -0.349 OA
BRANCH   9  14
HETATM   14  N   UNL     1     -16.920 -15.738  -6.281  1.00  0.00     0.090 N 
HETATM   15  H   UNL     1     -17.621 -15.263  -5.710  1.00  0.00     0.313 HD
HETATM   16  H   UNL     1     -16.662 -16.539  -5.692  1.00  0.00     0.313 HD
ENDBRANCH   9  14
BRANCH  10  17
HETATM   17  O   UNL     1     -14.977 -15.876  -4.299  1.00  0.00    -0.391 OA
HETATM   18  H   UNL     1     -15.904 -15.595  -4.172  1.00  0.00     0.210 HD
ENDBRANCH  10  17
BRANCH  11  19
HETATM   19  O   UNL     1     -12.577 -14.640  -6.774  1.00  0.00    -0.390 OA
HETATM   20  H   UNL     1     -12.028 -15.441  -6.750  1.00  0.00     0.210 HD
ENDBRANCH  11  19
BRANCH  12  21
HETATM   21  C   UNL     1     -13.649 -12.698  -3.801  1.00  0.00     0.198 C 
BRANCH  21  22
HETATM   22  O   UNL     1     -14.688 -13.313  -3.055  1.00  0.00    -0.398 OA
HETATM   23  H   UNL     1     -15.379 -12.646  -2.892  1.00  0.00     0.209 HD
ENDBRANCH  21  22
ENDBRANCH  12  21
ENDBRANCH   7   8
ENDBRANCH   3   7
BRANCH   2  24
HETATM   24  O   UNL     1     -17.399  -9.592  -3.937  1.00  0.00    -0.391 OA
HETATM   25  H   UNL     1     -17.036  -9.270  -4.788  1.00  0.00     0.210 HD
ENDBRANCH   2  24
BRANCH   4  26
HETATM   26  C   UNL     1     -19.877 -10.381  -5.301  1.00  0.00     0.198 C 
BRANCH  26  27
HETATM   27  O   UNL     1     -21.055  -9.949  -4.615  1.00  0.00    -0.398 OA
HETATM   28  H   UNL     1     -21.416 -10.711  -4.129  1.00  0.00     0.209 HD
ENDBRANCH  26  27
ENDBRANCH   4  26
BRANCH   1  29
HETATM   29  N   UNL     1     -16.657 -11.253  -1.424  1.00  0.00    -0.349 N 
HETATM   30  C   UNL     1     -16.405 -11.986  -0.286  1.00  0.00     0.214 C 
HETATM   31  C   UNL     1     -17.109 -13.300  -0.052  1.00  0.00     0.117 C 
HETATM   32  O   UNL     1     -15.576 -11.558   0.504  1.00  0.00    -0.274 OA
HETATM   33  H   UNL     1     -16.122 -10.389  -1.486  1.00  0.00     0.163 HD
ENDBRANCH   1  29
BRANCH   6  34
HETATM   34  O   UNL     1     -19.256  -9.848  -1.928  1.00  0.00    -0.348 OA
BRANCH  34  35
HETATM   35  C   UNL     1     -20.253  -9.466  -0.917  1.00  0.00     0.186 C 
HETATM   36  C   UNL     1     -21.576  -8.832  -1.443  1.00  0.00     0.179 C 
HETATM   37  O   UNL     1     -22.568  -9.768  -1.905  1.00  0.00    -0.349 OA
HETATM   38  C   UNL     1     -22.971 -10.797  -1.014  1.00  0.00     0.292 C 
HETATM   39  C   UNL     1     -21.767 -11.602  -0.464  1.00  0.00     0.303 C 
HETATM   40  C   UNL     1     -20.578 -10.703  -0.005  1.00  0.00     0.187 C 
BRANCH  36  41
HETATM   41  C   UNL     1     -22.152  -7.801  -0.445  1.00  0.00     0.198 C 
BRANCH  41  42
HETATM   42  O   UNL     1     -22.700  -6.683  -1.146  1.00  0.00    -0.398 OA
HETATM   43  H   UNL     1     -23.048  -6.086  -0.459  1.00  0.00     0.209 HD
ENDBRANCH  41  42
ENDBRANCH  36  41
BRANCH  38  44
HETATM   44  O   UNL     1     -23.861 -10.297  -0.024  1.00  0.00    -0.369 OA
HETATM   45  H   UNL     1     -23.755  -9.327  -0.034  1.00  0.00     0.212 HD
ENDBRANCH  38  44
BRANCH  39  46
HETATM   46  N   UNL     1     -22.192 -12.601   0.560  1.00  0.00     0.090 N 
HETATM   47  H   UNL     1     -22.872 -13.221   0.106  1.00  0.00     0.313 HD
HETATM   48  H   UNL     1     -22.720 -12.137   1.298  1.00  0.00     0.313 HD
ENDBRANCH  39  46
BRANCH  40  49
HETATM   49  O   UNL     1     -20.817 -10.266   1.345  1.00  0.00    -0.391 OA
HETATM   50  H   UNL     1     -20.288  -9.461   1.488  1.00  0.00     0.210 HD
ENDBRANCH  40  49
ENDBRANCH  34  35
ENDBRANCH   6  34
TORSDOF 18
ENDMDL
MODEL 4
REMARK VINA RESULT:      -5.0      1.997      8.950
REMARK  18 active torsions:
REMARK  status: ('A' for Active; 'I' for Inactive)
REMARK       I    between atoms: C_2  and  N_4 
REMARK    1  A    between atoms: N_4  and  C_5 
REMARK    2  A    between atoms: C_6  and  O_37 
REMARK    3  A    between atoms: C_7  and  O_25 
REMARK    4  A    between atoms: C_8  and  C_23 
REMARK    5  A    between atoms: C_10  and  O_11 
REMARK    6  A    between atoms: O_11  and  C_12 
REMARK    7  A    between atoms: C_13  and  C_21 
REMARK    8  A    between atoms: C_15  and  O_20 
REMARK    9  A    between atoms: C_16  and  N_19 
REMARK   10  A    between atoms: C_17  and  O_18 
REMARK   11  A    between atoms: C_21  and  O_22 
REMARK   12  A    between atoms: C_23  and  O_24 
REMARK   13  A    between atoms: O_25  and  C_26 
REMARK   14  A    between atoms: C_27  and  N_36 
REMARK   15  A    between atoms: C_28  and  O_35 
REMARK   16  A    between atoms: C_29  and  O_34 
REMARK   17  A    between atoms: C_30  and  C_32 
REMARK   18  A    between atoms: C_32  and  O_33 
ROOT
HETATM    1  C   UNL     1     -17.218 -11.744  -2.310  1.00  0.00     0.170 C 
HETATM    2  C   UNL     1     -16.604 -11.029  -3.537  1.00  0.00     0.177 C 
HETATM    3  C   UNL     1     -16.897 -11.874  -4.781  1.00  0.00     0.186 C 
HETATM    4  C   UNL     1     -18.467 -12.024  -4.836  1.00  0.00     0.180 C 
HETATM    5  O   UNL     1     -19.219 -12.225  -3.596  1.00  0.00    -0.349 OA
HETATM    6  C   UNL     1     -18.776 -11.620  -2.363  1.00  0.00     0.286 C 
ENDROOT
BRANCH   3   7
HETATM    7  O   UNL     1     -15.987 -13.020  -4.680  1.00  0.00    -0.348 OA
BRANCH   7   8
HETATM    8  C   UNL     1     -15.217 -13.455  -5.825  1.00  0.00     0.296 C 
HETATM    9  C   UNL     1     -15.716 -14.813  -6.503  1.00  0.00     0.303 C 
HETATM   10  C   UNL     1     -15.017 -16.103  -5.996  1.00  0.00     0.187 C 
HETATM   11  C   UNL     1     -13.504 -15.933  -5.844  1.00  0.00     0.180 C 
HETATM   12  C   UNL     1     -13.087 -14.589  -5.223  1.00  0.00     0.179 C 
HETATM   13  O   UNL     1     -13.807 -13.423  -5.643  1.00  0.00    -0.349 OA
BRANCH   9  14
HETATM   14  N   UNL     1     -17.188 -15.012  -6.529  1.00  0.00     0.090 N 
HETATM   15  H   UNL     1     -17.549 -14.692  -5.629  1.00  0.00     0.313 HD
HETATM   16  H   UNL     1     -17.372 -16.023  -6.494  1.00  0.00     0.313 HD
ENDBRANCH   9  14
BRANCH  10  17
HETATM   17  O   UNL     1     -15.658 -16.563  -4.802  1.00  0.00    -0.391 OA
HETATM   18  H   UNL     1     -16.226 -15.846  -4.460  1.00  0.00     0.210 HD
ENDBRANCH  10  17
BRANCH  11  19
HETATM   19  O   UNL     1     -12.856 -16.110  -7.117  1.00  0.00    -0.390 OA
HETATM   20  H   UNL     1     -12.397 -15.294  -7.375  1.00  0.00     0.210 HD
ENDBRANCH  11  19
BRANCH  12  21
HETATM   21  C   UNL     1     -12.950 -14.679  -3.696  1.00  0.00     0.198 C 
BRANCH  21  22
HETATM   22  O   UNL     1     -14.196 -14.659  -3.015  1.00  0.00    -0.398 OA
HETATM   23  H   UNL     1     -14.088 -14.136  -2.202  1.00  0.00     0.209 HD
ENDBRANCH  21  22
ENDBRANCH  12  21
ENDBRANCH   7   8
ENDBRANCH   3   7
BRANCH   2  24
HETATM   24  O   UNL     1     -17.055  -9.683  -3.685  1.00  0.00    -0.391 OA
HETATM   25  H   UNL     1     -16.323  -9.161  -4.072  1.00  0.00     0.210 HD
ENDBRANCH   2  24
BRANCH   4  26
HETATM   26  C   UNL     1     -19.090 -10.766  -5.503  1.00  0.00     0.198 C 
BRANCH  26  27
HETATM   27  O   UNL     1     -18.200 -10.148  -6.435  1.00  0.00    -0.398 OA
HETATM   28  H   UNL     1     -18.007 -10.791  -7.139  1.00  0.00     0.209 HD
ENDBRANCH  26  27
ENDBRANCH   4  26
BRANCH   1  29
HETATM   29  N   UNL     1     -16.583 -11.296  -1.077  1.00  0.00    -0.349 N 
HETATM   30  C   UNL     1     -16.115 -12.096  -0.059  1.00  0.00     0.214 C 
HETATM   31  C   UNL     1     -16.234 -13.598  -0.152  1.00  0.00     0.117 C 
HETATM   32  O   UNL     1     -15.574 -11.558   0.896  1.00  0.00    -0.274 OA
HETATM   33  H   UNL     1     -16.443 -10.300  -0.917  1.00  0.00     0.163 HD
ENDBRANCH   1  29
BRANCH   6  34
HETATM   34  O   UNL     1     -19.208 -10.249  -2.074  1.00  0.00    -0.348 OA
BRANCH  34  35
HETATM   35  C   UNL     1     -20.633  -9.908  -2.195  1.00  0.00     0.186 C 
HETATM   36  C   UNL     1     -21.472  -9.934  -0.882  1.00  0.00     0.179 C 
HETATM   37  O   UNL     1     -21.376  -8.754  -0.063  1.00  0.00    -0.349 OA
HETATM   38  C   UNL     1     -21.662  -7.503  -0.670  1.00  0.00     0.292 C 
HETATM   39  C   UNL     1     -20.830  -7.270  -1.956  1.00  0.00     0.303 C 
HETATM   40  C   UNL     1     -20.783  -8.512  -2.898  1.00  0.00     0.187 C 
BRANCH  36  41
HETATM   41  C   UNL     1     -22.937 -10.353  -1.149  1.00  0.00     0.198 C 
BRANCH  41  42
HETATM   42  O   UNL     1     -23.753 -10.058  -0.013  1.00  0.00    -0.398 OA
HETATM   43  H   UNL     1     -23.863 -10.904   0.459  1.00  0.00     0.209 HD
ENDBRANCH  41  42
ENDBRANCH  36  41
BRANCH  38  44
HETATM   44  O   UNL     1     -23.064  -7.318  -0.822  1.00  0.00    -0.369 OA
HETATM   45  H   UNL     1     -23.457  -8.211  -0.788  1.00  0.00     0.212 HD
ENDBRANCH  38  44
BRANCH  39  46
HETATM   46  N   UNL     1     -21.226  -6.009  -2.649  1.00  0.00     0.090 N 
HETATM   47  H   UNL     1     -20.862  -6.070  -3.607  1.00  0.00     0.313 HD
HETATM   48  H   UNL     1     -20.733  -5.217  -2.237  1.00  0.00     0.313 HD
ENDBRANCH  39  46
BRANCH  40  49
HETATM   49  O   UNL     1     -21.953  -8.508  -3.735  1.00  0.00    -0.391 OA
HETATM   50  H   UNL     1     -21.696  -8.887  -4.595  1.00  0.00     0.210 HD
ENDBRANCH  40  49
ENDBRANCH  34  35
ENDBRANCH   6  34
TORSDOF 18
ENDMDL
MODEL 5
REMARK VINA RESULT:      -4.8      1.900      2.781
REMARK  18 active torsions:
REMARK  status: ('A' for Active; 'I' for Inactive)
REMARK       I    between atoms: C_2  and  N_4 
REMARK    1  A    between atoms: N_4  and  C_5 
REMARK    2  A    between atoms: C_6  and  O_37 
REMARK    3  A    between atoms: C_7  and  O_25 
REMARK    4  A    between atoms: C_8  and  C_23 
REMARK    5  A    between atoms: C_10  and  O_11 
REMARK    6  A    between atoms: O_11  and  C_12 
REMARK    7  A    between atoms: C_13  and  C_21 
REMARK    8  A    between atoms: C_15  and  O_20 
REMARK    9  A    between atoms: C_16  and  N_19 
REMARK   10  A    between atoms: C_17  and  O_18 
REMARK   11  A    between atoms: C_21  and  O_22 
REMARK   12  A    between atoms: C_23  and  O_24 
REMARK   13  A    between atoms: O_25  and  C_26 
REMARK   14  A    between atoms: C_27  and  N_36 
REMARK   15  A    between atoms: C_28  and  O_35 
REMARK   16  A    between atoms: C_29  and  O_34 
REMARK   17  A    between atoms: C_30  and  C_32 
REMARK   18  A    between atoms: C_32  and  O_33 
ROOT
HETATM    1  C   UNL     1     -17.615 -12.114  -1.540  1.00  0.00     0.170 C 
HETATM    2  C   UNL     1     -18.050 -12.261  -0.062  1.00  0.00     0.177 C 
HETATM    3  C   UNL     1     -19.321 -13.116  -0.020  1.00  0.00     0.186 C 
HETATM    4  C   UNL     1     -18.945 -14.478  -0.724  1.00  0.00     0.180 C 
HETATM    5  O   UNL     1     -18.086 -14.467  -1.910  1.00  0.00    -0.349 OA
HETATM    6  C   UNL     1     -17.043 -13.478  -2.051  1.00  0.00     0.286 C 
ENDROOT
BRANCH   3   7
HETATM    7  O   UNL     1     -20.386 -12.232  -0.506  1.00  0.00    -0.348 OA
BRANCH   7   8
HETATM    8  C   UNL     1     -21.188 -11.463   0.421  1.00  0.00     0.296 C 
HETATM    9  C   UNL     1     -22.768 -11.597   0.225  1.00  0.00     0.303 C 
HETATM   10  C   UNL     1     -23.418 -10.514  -0.677  1.00  0.00     0.187 C 
HETATM   11  C   UNL     1     -22.884  -9.110  -0.392  1.00  0.00     0.180 C 
HETATM   12  C   UNL     1     -21.363  -9.054  -0.173  1.00  0.00     0.179 C 
HETATM   13  O   UNL     1     -20.772 -10.114   0.592  1.00  0.00    -0.349 OA
BRANCH   9  14
HETATM   14  N   UNL     1     -23.251 -12.944  -0.173  1.00  0.00     0.090 N 
HETATM   15  H   UNL     1     -22.721 -13.625   0.371  1.00  0.00     0.313 HD
HETATM   16  H   UNL     1     -22.928 -13.127  -1.131  1.00  0.00     0.313 HD
ENDBRANCH   9  14
BRANCH  10  17
HETATM   17  O   UNL     1     -23.302 -10.896  -2.052  1.00  0.00    -0.391 OA
HETATM   18  H   UNL     1     -23.437 -10.103  -2.606  1.00  0.00     0.210 HD
ENDBRANCH  10  17
BRANCH  11  19
HETATM   19  O   UNL     1     -23.566  -8.542   0.741  1.00  0.00    -0.390 OA
HETATM   20  H   UNL     1     -24.238  -9.160   1.072  1.00  0.00     0.210 HD
ENDBRANCH  11  19
BRANCH  12  21
HETATM   21  C   UNL     1     -20.603  -8.775  -1.478  1.00  0.00     0.198 C 
BRANCH  21  22
HETATM   22  O   UNL     1     -20.559  -9.891  -2.355  1.00  0.00    -0.398 OA
HETATM   23  H   UNL     1     -21.003  -9.641  -3.184  1.00  0.00     0.209 HD
ENDBRANCH  21  22
ENDBRANCH  12  21
ENDBRANCH   7   8
ENDBRANCH   3   7
BRANCH   2  24
HETATM   24  O   UNL     1     -17.022 -12.789   0.775  1.00  0.00    -0.391 OA
HETATM   25  H   UNL     1     -16.358 -12.084   0.917  1.00  0.00     0.210 HD
ENDBRANCH   2  24
BRANCH   4  26
HETATM   26  C   UNL     1     -18.240 -15.417   0.293  1.00  0.00     0.198 C 
BRANCH  26  27
HETATM   27  O   UNL     1     -18.722 -15.234   1.626  1.00  0.00    -0.398 OA
HETATM   28  H   UNL     1     -19.118 -16.073   1.921  1.00  0.00     0.209 HD
ENDBRANCH  26  27
ENDBRANCH   4  26
BRANCH   1  29
HETATM   29  N   UNL     1     -16.750 -10.954  -1.711  1.00  0.00    -0.349 N 
HETATM   30  C   UNL     1     -16.722 -10.107  -2.797  1.00  0.00     0.214 C 
HETATM   31  C   UNL     1     -17.647 -10.334  -3.967  1.00  0.00     0.117 C 
HETATM   32  O   UNL     1     -15.955  -9.155  -2.766  1.00  0.00    -0.274 OA
HETATM   33  H   UNL     1     -16.093 -10.704  -0.975  1.00  0.00     0.163 HD
ENDBRANCH   1  29
BRANCH   6  34
HETATM   34  O   UNL     1     -15.737 -13.763  -1.450  1.00  0.00    -0.348 OA
BRANCH  34  35
HETATM   35  C   UNL     1     -14.618 -14.147  -2.323  1.00  0.00     0.186 C 
HETATM   36  C   UNL     1     -14.828 -15.407  -3.215  1.00  0.00     0.179 C 
HETATM   37  O   UNL     1     -15.557 -15.186  -4.437  1.00  0.00    -0.349 OA
HETATM   38  C   UNL     1     -15.084 -14.176  -5.315  1.00  0.00     0.292 C 
HETATM   39  C   UNL     1     -14.909 -12.812  -4.601  1.00  0.00     0.303 C 
HETATM   40  C   UNL     1     -14.203 -12.923  -3.216  1.00  0.00     0.187 C 
BRANCH  36  41
HETATM   41  C   UNL     1     -13.502 -16.171  -3.446  1.00  0.00     0.198 C 
BRANCH  41  42
HETATM   42  O   UNL     1     -13.676 -17.177  -4.445  1.00  0.00    -0.398 OA
HETATM   43  H   UNL     1     -13.381 -16.772  -5.281  1.00  0.00     0.209 HD
ENDBRANCH  41  42
ENDBRANCH  36  41
BRANCH  38  44
HETATM   44  O   UNL     1     -13.946 -14.623  -6.042  1.00  0.00    -0.369 OA
HETATM   45  H   UNL     1     -13.195 -14.571  -5.421  1.00  0.00     0.212 HD
ENDBRANCH  38  44
BRANCH  39  46
HETATM   46  N   UNL     1     -14.299 -11.791  -5.503  1.00  0.00     0.090 N 
HETATM   47  H   UNL     1     -14.392 -12.149  -6.462  1.00  0.00     0.313 HD
HETATM   48  H   UNL     1     -13.294 -11.744  -5.343  1.00  0.00     0.313 HD
ENDBRANCH  39  46
BRANCH  40  49
HETATM   49  O   UNL     1     -12.778 -12.925  -3.416  1.00  0.00    -0.391 OA
HETATM   50  H   UNL     1     -12.376 -12.472  -2.653  1.00  0.00     0.210 HD
ENDBRANCH  40  49
ENDBRANCH  34  35
ENDBRANCH   6  34
TORSDOF 18
ENDMDL
MODEL 6
REMARK VINA RESULT:      -4.6      3.016      5.864
REMARK  18 active torsions:
REMARK  status: ('A' for Active; 'I' for Inactive)
REMARK       I    between atoms: C_2  and  N_4 
REMARK    1  A    between atoms: N_4  and  C_5 
REMARK    2  A    between atoms: C_6  and  O_37 
REMARK    3  A    between atoms: C_7  and  O_25 
REMARK    4  A    between atoms: C_8  and  C_23 
REMARK    5  A    between atoms: C_10  and  O_11 
REMARK    6  A    between atoms: O_11  and  C_12 
REMARK    7  A    between atoms: C_13  and  C_21 
REMARK    8  A    between atoms: C_15  and  O_20 
REMARK    9  A    between atoms: C_16  and  N_19 
REMARK   10  A    between atoms: C_17  and  O_18 
REMARK   11  A    between atoms: C_21  and  O_22 
REMARK   12  A    between atoms: C_23  and  O_24 
REMARK   13  A    between atoms: O_25  and  C_26 
REMARK   14  A    between atoms: C_27  and  N_36 
REMARK   15  A    between atoms: C_28  and  O_35 
REMARK   16  A    between atoms: C_29  and  O_34 
REMARK   17  A    between atoms: C_30  and  C_32 
REMARK   18  A    between atoms: C_32  and  O_33 
ROOT
HETATM    1  C   UNL     1     -19.482 -10.407  -2.616  1.00  0.00     0.170 C 
HETATM    2  C   UNL     1     -19.471 -10.588  -4.153  1.00  0.00     0.177 C 
HETATM    3  C   UNL     1     -18.556  -9.517  -4.756  1.00  0.00     0.186 C 
HETATM    4  C   UNL     1     -17.149  -9.719  -4.068  1.00  0.00     0.180 C 
HETATM    5  O   UNL     1     -17.081 -10.052  -2.644  1.00  0.00    -0.349 OA
HETATM    6  C   UNL     1     -18.105 -10.863  -2.030  1.00  0.00     0.286 C 
ENDROOT
BRANCH   3   7
HETATM    7  O   UNL     1     -19.322  -8.269  -4.658  1.00  0.00    -0.348 OA
BRANCH   7   8
HETATM    8  C   UNL     1     -20.631  -8.158  -5.263  1.00  0.00     0.296 C 
HETATM    9  C   UNL     1     -20.804  -6.944  -6.287  1.00  0.00     0.303 C 
HETATM   10  C   UNL     1     -21.371  -5.635  -5.676  1.00  0.00     0.187 C 
HETATM   11  C   UNL     1     -22.535  -5.888  -4.717  1.00  0.00     0.180 C 
HETATM   12  C   UNL     1     -22.324  -7.093  -3.784  1.00  0.00     0.179 C 
HETATM   13  O   UNL     1     -21.719  -8.262  -4.353  1.00  0.00    -0.349 OA
BRANCH   9  14
HETATM   14  N   UNL     1     -19.615  -6.638  -7.124  1.00  0.00     0.090 N 
HETATM   15  H   UNL     1     -19.874  -5.867  -7.741  1.00  0.00     0.313 HD
HETATM   16  H   UNL     1     -19.483  -7.415  -7.784  1.00  0.00     0.313 HD
ENDBRANCH   9  14
BRANCH  10  17
HETATM   17  O   UNL     1     -20.308  -4.876  -5.089  1.00  0.00    -0.391 OA
HETATM   18  H   UNL     1     -19.628  -5.496  -4.763  1.00  0.00     0.210 HD
ENDBRANCH  10  17
BRANCH  11  19
HETATM   19  O   UNL     1     -23.760  -6.045  -5.456  1.00  0.00    -0.390 OA
HETATM   20  H   UNL     1     -23.996  -6.985  -5.517  1.00  0.00     0.210 HD
ENDBRANCH  11  19
BRANCH  12  21
HETATM   21  C   UNL     1     -21.680  -6.685  -2.452  1.00  0.00     0.198 C 
BRANCH  21  22
HETATM   22  O   UNL     1     -22.406  -5.681  -1.758  1.00  0.00    -0.398 OA
HETATM   23  H   UNL     1     -21.888  -5.418  -0.977  1.00  0.00     0.209 HD
ENDBRANCH  21  22
ENDBRANCH  12  21
ENDBRANCH   7   8
ENDBRANCH   3   7
BRANCH   2  24
HETATM   24  O   UNL     1     -19.094 -11.904  -4.559  1.00  0.00    -0.391 OA
HETATM   25  H   UNL     1     -18.116 -11.945  -4.578  1.00  0.00     0.210 HD
ENDBRANCH   2  24
BRANCH   4  26
HETATM   26  C   UNL     1     -16.366 -10.845  -4.798  1.00  0.00     0.198 C 
BRANCH  26  27
HETATM   27  O   UNL     1     -16.716 -10.942  -6.180  1.00  0.00    -0.398 OA
HETATM   28  H   UNL     1     -15.922 -10.742  -6.707  1.00  0.00     0.209 HD
ENDBRANCH  26  27
ENDBRANCH   4  26
BRANCH   1  29
HETATM   29  N   UNL     1     -20.663 -11.027  -2.030  1.00  0.00    -0.349 N 
HETATM   30  C   UNL     1     -21.365 -10.579  -0.933  1.00  0.00     0.214 C 
HETATM   31  C   UNL     1     -20.932  -9.328  -0.209  1.00  0.00     0.117 C 
HETATM   32  O   UNL     1     -22.360 -11.202  -0.591  1.00  0.00    -0.274 OA
HETATM   33  H   UNL     1     -21.047 -11.873  -2.449  1.00  0.00     0.163 HD
ENDBRANCH   1  29
BRANCH   6  34
HETATM   34  O   UNL     1     -17.960 -12.320  -2.091  1.00  0.00    -0.348 OA
BRANCH  34  35
HETATM   35  C   UNL     1     -17.922 -13.087  -0.838  1.00  0.00     0.186 C 
HETATM   36  C   UNL     1     -17.877 -14.640  -0.970  1.00  0.00     0.179 C 
HETATM   37  O   UNL     1     -16.575 -15.201  -1.222  1.00  0.00    -0.349 OA
HETATM   38  C   UNL     1     -15.527 -14.868  -0.325  1.00  0.00     0.292 C 
HETATM   39  C   UNL     1     -15.368 -13.337  -0.150  1.00  0.00     0.303 C 
HETATM   40  C   UNL     1     -16.723 -12.591   0.047  1.00  0.00     0.187 C 
BRANCH  36  41
HETATM   41  C   UNL     1     -18.606 -15.334   0.205  1.00  0.00     0.198 C 
BRANCH  41  42
HETATM   42  O   UNL     1     -19.564 -14.450   0.788  1.00  0.00    -0.398 OA
HETATM   43  H   UNL     1     -20.192 -15.021   1.268  1.00  0.00     0.209 HD
ENDBRANCH  41  42
ENDBRANCH  36  41
BRANCH  38  44
HETATM   44  O   UNL     1     -15.640 -15.601   0.889  1.00  0.00    -0.369 OA
HETATM   45  H   UNL     1     -15.733 -16.537   0.628  1.00  0.00     0.212 HD
ENDBRANCH  38  44
BRANCH  39  46
HETATM   46  N   UNL     1     -14.345 -13.002   0.884  1.00  0.00     0.090 N 
HETATM   47  H   UNL     1     -14.274 -11.978   0.910  1.00  0.00     0.313 HD
HETATM   48  H   UNL     1     -13.426 -13.316   0.576  1.00  0.00     0.313 HD
ENDBRANCH  39  46
BRANCH  40  49
HETATM   49  O   UNL     1     -17.087 -12.644   1.438  1.00  0.00    -0.391 OA
HETATM   50  H   UNL     1     -16.686 -11.870   1.874  1.00  0.00     0.210 HD
ENDBRANCH  40  49
ENDBRANCH  34  35
ENDBRANCH   6  34
TORSDOF 18
ENDMDL
MODEL 7
REMARK VINA RESULT:      -4.5      2.054      8.703
REMARK  18 active torsions:
REMARK  status: ('A' for Active; 'I' for Inactive)
REMARK       I    between atoms: C_2  and  N_4 
REMARK    1  A    between atoms: N_4  and  C_5 
REMARK    2  A    between atoms: C_6  and  O_37 
REMARK    3  A    between atoms: C_7  and  O_25 
REMARK    4  A    between atoms: C_8  and  C_23 
REMARK    5  A    between atoms: C_10  and  O_11 
REMARK    6  A    between atoms: O_11  and  C_12 
REMARK    7  A    between atoms: C_13  and  C_21 
REMARK    8  A    between atoms: C_15  and  O_20 
REMARK    9  A    between atoms: C_16  and  N_19 
REMARK   10  A    between atoms: C_17  and  O_18 
REMARK   11  A    between atoms: C_21  and  O_22 
REMARK   12  A    between atoms: C_23  and  O_24 
REMARK   13  A    between atoms: O_25  and  C_26 
REMARK   14  A    between atoms: C_27  and  N_36 
REMARK   15  A    between atoms: C_28  and  O_35 
REMARK   16  A    between atoms: C_29  and  O_34 
REMARK   17  A    between atoms: C_30  and  C_32 
REMARK   18  A    between atoms: C_32  and  O_33 
ROOT
HETATM    1  C   UNL     1     -16.956 -11.648  -2.329  1.00  0.00     0.170 C 
HETATM    2  C   UNL     1     -16.635 -10.604  -3.425  1.00  0.00     0.177 C 
HETATM    3  C   UNL     1     -16.882 -11.252  -4.791  1.00  0.00     0.186 C 
HETATM    4  C   UNL     1     -18.385 -11.733  -4.772  1.00  0.00     0.180 C 
HETATM    5  O   UNL     1     -18.944 -12.316  -3.551  1.00  0.00    -0.349 OA
HETATM    6  C   UNL     1     -18.503 -11.863  -2.253  1.00  0.00     0.286 C 
ENDROOT
BRANCH   3   7
HETATM    7  O   UNL     1     -15.752 -12.169  -4.983  1.00  0.00    -0.348 OA
BRANCH   7   8
HETATM    8  C   UNL     1     -15.631 -13.368  -4.183  1.00  0.00     0.296 C 
HETATM    9  C   UNL     1     -14.133 -13.860  -3.921  1.00  0.00     0.303 C 
HETATM   10  C   UNL     1     -13.594 -14.910  -4.928  1.00  0.00     0.187 C 
HETATM   11  C   UNL     1     -14.620 -15.996  -5.254  1.00  0.00     0.180 C 
HETATM   12  C   UNL     1     -16.049 -15.463  -5.456  1.00  0.00     0.179 C 
HETATM   13  O   UNL     1     -16.494 -14.431  -4.565  1.00  0.00    -0.349 OA
BRANCH   9  14
HETATM   14  N   UNL     1     -13.130 -12.781  -3.729  1.00  0.00     0.090 N 
HETATM   15  H   UNL     1     -13.633 -11.961  -3.389  1.00  0.00     0.313 HD
HETATM   16  H   UNL     1     -12.811 -12.476  -4.657  1.00  0.00     0.313 HD
ENDBRANCH   9  14
BRANCH  10  17
HETATM   17  O   UNL     1     -13.082 -14.247  -6.090  1.00  0.00    -0.391 OA
HETATM   18  H   UNL     1     -12.157 -14.530  -6.225  1.00  0.00     0.210 HD
ENDBRANCH  10  17
BRANCH  11  19
HETATM   19  O   UNL     1     -14.611 -17.008  -4.231  1.00  0.00    -0.390 OA
HETATM   20  H   UNL     1     -15.520 -17.220  -3.962  1.00  0.00     0.210 HD
ENDBRANCH  11  19
BRANCH  12  21
HETATM   21  C   UNL     1     -16.341 -15.138  -6.928  1.00  0.00     0.198 C 
BRANCH  21  22
HETATM   22  O   UNL     1     -17.726 -15.123  -7.239  1.00  0.00    -0.398 OA
HETATM   23  H   UNL     1     -18.130 -14.365  -6.781  1.00  0.00     0.209 HD
ENDBRANCH  21  22
ENDBRANCH  12  21
ENDBRANCH   7   8
ENDBRANCH   3   7
BRANCH   2  24
HETATM   24  O   UNL     1     -17.364  -9.387  -3.270  1.00  0.00    -0.391 OA
HETATM   25  H   UNL     1     -18.197  -9.593  -2.798  1.00  0.00     0.210 HD
ENDBRANCH   2  24
BRANCH   4  26
HETATM   26  C   UNL     1     -19.319 -10.544  -5.131  1.00  0.00     0.198 C 
BRANCH  26  27
HETATM   27  O   UNL     1     -18.689  -9.600  -5.999  1.00  0.00    -0.398 OA
HETATM   28  H   UNL     1     -18.550  -8.776  -5.498  1.00  0.00     0.209 HD
ENDBRANCH  26  27
ENDBRANCH   4  26
BRANCH   1  29
HETATM   29  N   UNL     1     -16.296 -11.302  -1.076  1.00  0.00    -0.349 N 
HETATM   30  C   UNL     1     -15.848 -12.182  -0.116  1.00  0.00     0.214 C 
HETATM   31  C   UNL     1     -16.019 -13.670  -0.305  1.00  0.00     0.117 C 
HETATM   32  O   UNL     1     -15.282 -11.725   0.866  1.00  0.00    -0.274 OA
HETATM   33  H   UNL     1     -16.122 -10.324  -0.853  1.00  0.00     0.163 HD
ENDBRANCH   1  29
BRANCH   6  34
HETATM   34  O   UNL     1     -19.171 -10.697  -1.667  1.00  0.00    -0.348 OA
BRANCH  34  35
HETATM   35  C   UNL     1     -20.639 -10.625  -1.697  1.00  0.00     0.186 C 
HETATM   36  C   UNL     1     -21.389 -11.092  -0.413  1.00  0.00     0.179 C 
HETATM   37  O   UNL     1     -21.475 -10.116   0.642  1.00  0.00    -0.349 OA
HETATM   38  C   UNL     1     -22.025  -8.847   0.325  1.00  0.00     0.292 C 
HETATM   39  C   UNL     1     -21.320  -8.188  -0.888  1.00  0.00     0.303 C 
HETATM   40  C   UNL     1     -21.088  -9.168  -2.078  1.00  0.00     0.187 C 
BRANCH  36  41
HETATM   41  C   UNL     1     -22.760 -11.724  -0.750  1.00  0.00     0.198 C 
BRANCH  41  42
HETATM   42  O   UNL     1     -23.507 -11.958   0.446  1.00  0.00    -0.398 OA
HETATM   43  H   UNL     1     -23.343 -11.183   1.014  1.00  0.00     0.209 HD
ENDBRANCH  41  42
ENDBRANCH  36  41
BRANCH  38  44
HETATM   44  O   UNL     1     -23.443  -8.913   0.231  1.00  0.00    -0.369 OA
HETATM   45  H   UNL     1     -23.744  -7.996   0.086  1.00  0.00     0.212 HD
ENDBRANCH  38  44
BRANCH  39  46
HETATM   46  N   UNL     1     -21.984  -6.912  -1.286  1.00  0.00     0.090 N 
HETATM   47  H   UNL     1     -22.996  -7.082  -1.255  1.00  0.00     0.313 HD
HETATM   48  H   UNL     1     -21.787  -6.709  -2.265  1.00  0.00     0.313 HD
ENDBRANCH  39  46
BRANCH  40  49
HETATM   49  O   UNL     1     -22.279  -9.218  -2.882  1.00  0.00    -0.391 OA
HETATM   50  H   UNL     1     -23.004  -9.531  -2.310  1.00  0.00     0.210 HD
ENDBRANCH  40  49
ENDBRANCH  34  35
ENDBRANCH   6  34
TORSDOF 18
ENDMDL
MODEL 8
REMARK VINA RESULT:      -4.5      1.986      3.862
REMARK  18 active torsions:
REMARK  status: ('A' for Active; 'I' for Inactive)
REMARK       I    between atoms: C_2  and  N_4 
REMARK    1  A    between atoms: N_4  and  C_5 
REMARK    2  A    between atoms: C_6  and  O_37 
REMARK    3  A    between atoms: C_7  and  O_25 
REMARK    4  A    between atoms: C_8  and  C_23 
REMARK    5  A    between atoms: C_10  and  O_11 
REMARK    6  A    between atoms: O_11  and  C_12 
REMARK    7  A    between atoms: C_13  and  C_21 
REMARK    8  A    between atoms: C_15  and  O_20 
REMARK    9  A    between atoms: C_16  and  N_19 
REMARK   10  A    between atoms: C_17  and  O_18 
REMARK   11  A    between atoms: C_21  and  O_22 
REMARK   12  A    between atoms: C_23  and  O_24 
REMARK   13  A    between atoms: O_25  and  C_26 
REMARK   14  A    between atoms: C_27  and  N_36 
REMARK   15  A    between atoms: C_28  and  O_35 
REMARK   16  A    between atoms: C_29  and  O_34 
REMARK   17  A    between atoms: C_30  and  C_32 
REMARK   18  A    between atoms: C_32  and  O_33 
ROOT
HETATM    1  C   UNL     1     -18.285 -11.757  -3.291  1.00  0.00     0.170 C 
HETATM    2  C   UNL     1     -19.676 -12.262  -2.840  1.00  0.00     0.177 C 
HETATM    3  C   UNL     1     -20.736 -11.611  -3.735  1.00  0.00     0.186 C 
HETATM    4  C   UNL     1     -20.350 -12.008  -5.213  1.00  0.00     0.180 C 
HETATM    5  O   UNL     1     -18.941 -12.033  -5.611  1.00  0.00    -0.349 OA
HETATM    6  C   UNL     1     -17.917 -12.407  -4.665  1.00  0.00     0.286 C 
ENDROOT
BRANCH   3   7
HETATM    7  O   UNL     1     -20.815 -10.220  -3.275  1.00  0.00    -0.348 OA
BRANCH   7   8
HETATM    8  C   UNL     1     -22.051  -9.687  -2.746  1.00  0.00     0.296 C 
HETATM    9  C   UNL     1     -21.978  -8.171  -2.246  1.00  0.00     0.303 C 
HETATM   10  C   UNL     1     -21.670  -7.985  -0.736  1.00  0.00     0.187 C 
HETATM   11  C   UNL     1     -22.452  -8.956   0.149  1.00  0.00     0.180 C 
HETATM   12  C   UNL     1     -22.520 -10.389  -0.406  1.00  0.00     0.179 C 
HETATM   13  O   UNL     1     -22.718 -10.535  -1.819  1.00  0.00    -0.349 OA
BRANCH   9  14
HETATM   14  N   UNL     1     -21.113  -7.273  -3.053  1.00  0.00     0.090 N 
HETATM   15  H   UNL     1     -21.429  -6.318  -2.880  1.00  0.00     0.313 HD
HETATM   16  H   UNL     1     -21.351  -7.408  -4.044  1.00  0.00     0.313 HD
ENDBRANCH   9  14
BRANCH  10  17
HETATM   17  O   UNL     1     -20.256  -8.035  -0.521  1.00  0.00    -0.391 OA
HETATM   18  H   UNL     1     -19.811  -8.044  -1.391  1.00  0.00     0.210 HD
ENDBRANCH  10  17
BRANCH  11  19
HETATM   19  O   UNL     1     -23.780  -8.454   0.382  1.00  0.00    -0.390 OA
HETATM   20  H   UNL     1     -24.413  -9.190   0.425  1.00  0.00     0.210 HD
ENDBRANCH  11  19
BRANCH  12  21
HETATM   21  C   UNL     1     -21.375 -11.267   0.121  1.00  0.00     0.198 C 
BRANCH  21  22
HETATM   22  O   UNL     1     -20.604 -10.640   1.135  1.00  0.00    -0.398 OA
HETATM   23  H   UNL     1     -20.947  -9.737   1.261  1.00  0.00     0.209 HD
ENDBRANCH  21  22
ENDBRANCH  12  21
ENDBRANCH   7   8
ENDBRANCH   3   7
BRANCH   2  24
HETATM   24  O   UNL     1     -19.781 -13.685  -2.834  1.00  0.00    -0.391 OA
HETATM   25  H   UNL     1     -19.985 -13.968  -1.919  1.00  0.00     0.210 HD
ENDBRANCH   2  24
BRANCH   4  26
HETATM   26  C   UNL     1     -20.899 -13.425  -5.536  1.00  0.00     0.198 C 
BRANCH  26  27
HETATM   27  O   UNL     1     -20.533 -13.865  -6.846  1.00  0.00    -0.398 OA
HETATM   28  H   UNL     1     -20.863 -13.210  -7.486  1.00  0.00     0.209 HD
ENDBRANCH  26  27
ENDBRANCH   4  26
BRANCH   1  29
HETATM   29  N   UNL     1     -17.305 -11.918  -2.225  1.00  0.00    -0.349 N 
HETATM   30  C   UNL     1     -16.321 -11.020  -1.873  1.00  0.00     0.214 C 
HETATM   31  C   UNL     1     -16.177  -9.715  -2.618  1.00  0.00     0.117 C 
HETATM   32  O   UNL     1     -15.599 -11.296  -0.926  1.00  0.00    -0.274 OA
HETATM   33  H   UNL     1     -17.319 -12.760  -1.652  1.00  0.00     0.163 HD
ENDBRANCH   1  29
BRANCH   6  34
HETATM   34  O   UNL     1     -17.609 -13.832  -4.511  1.00  0.00    -0.348 OA
BRANCH  34  35
HETATM   35  C   UNL     1     -16.265 -14.314  -4.861  1.00  0.00     0.186 C 
HETATM   36  C   UNL     1     -15.182 -13.228  -5.134  1.00  0.00     0.179 C 
HETATM   37  O   UNL     1     -14.554 -12.673  -3.962  1.00  0.00    -0.349 OA
HETATM   38  C   UNL     1     -13.962 -13.574  -3.040  1.00  0.00     0.292 C 
HETATM   39  C   UNL     1     -14.947 -14.679  -2.583  1.00  0.00     0.303 C 
HETATM   40  C   UNL     1     -15.759 -15.309  -3.756  1.00  0.00     0.187 C 
BRANCH  36  41
HETATM   41  C   UNL     1     -14.154 -13.698  -6.190  1.00  0.00     0.198 C 
BRANCH  41  42
HETATM   42  O   UNL     1     -13.110 -12.733  -6.332  1.00  0.00    -0.398 OA
HETATM   43  H   UNL     1     -12.495 -12.899  -5.594  1.00  0.00     0.209 HD
ENDBRANCH  41  42
ENDBRANCH  36  41
BRANCH  38  44
HETATM   44  O   UNL     1     -12.710 -14.048  -3.521  1.00  0.00    -0.369 OA
HETATM   45  H   UNL     1     -12.385 -13.365  -4.138  1.00  0.00     0.212 HD
ENDBRANCH  38  44
BRANCH  39  46
HETATM   46  N   UNL     1     -14.279 -15.688  -1.709  1.00  0.00     0.090 N 
HETATM   47  H   UNL     1     -14.622 -15.527  -0.755  1.00  0.00     0.313 HD
HETATM   48  H   UNL     1     -13.279 -15.494  -1.658  1.00  0.00     0.313 HD
ENDBRANCH  39  46
BRANCH  40  49
HETATM   49  O   UNL     1     -14.973 -16.352  -4.361  1.00  0.00    -0.391 OA
HETATM   50  H   UNL     1     -14.208 -15.928  -4.790  1.00  0.00     0.210 HD
ENDBRANCH  40  49
ENDBRANCH  34  35
ENDBRANCH   6  34
TORSDOF 18
ENDMDL
MODEL 9
REMARK VINA RESULT:      -4.4     20.950     24.638
REMARK  18 active torsions:
REMARK  status: ('A' for Active; 'I' for Inactive)
REMARK       I    between atoms: C_2  and  N_4 
REMARK    1  A    between atoms: N_4  and  C_5 
REMARK    2  A    between atoms: C_6  and  O_37 
REMARK    3  A    between atoms: C_7  and  O_25 
REMARK    4  A    between atoms: C_8  and  C_23 
REMARK    5  A    between atoms: C_10  and  O_11 
REMARK    6  A    between atoms: O_11  and  C_12 
REMARK    7  A    between atoms: C_13  and  C_21 
REMARK    8  A    between atoms: C_15  and  O_20 
REMARK    9  A    between atoms: C_16  and  N_19 
REMARK   10  A    between atoms: C_17  and  O_18 
REMARK   11  A    between atoms: C_21  and  O_22 
REMARK   12  A    between atoms: C_23  and  O_24 
REMARK   13  A    between atoms: O_25  and  C_26 
REMARK   14  A    between atoms: C_27  and  N_36 
REMARK   15  A    between atoms: C_28  and  O_35 
REMARK   16  A    between atoms: C_29  and  O_34 
REMARK   17  A    between atoms: C_30  and  C_32 
REMARK   18  A    between atoms: C_32  and  O_33 
ROOT
HETATM    1  C   UNL     1     -25.823   9.210   1.378  1.00  0.00     0.170 C 
HETATM    2  C   UNL     1     -25.955  10.343   0.333  1.00  0.00     0.177 C 
HETATM    3  C   UNL     1     -26.785   9.816  -0.843  1.00  0.00     0.186 C 
HETATM    4  C   UNL     1     -28.156   9.344  -0.221  1.00  0.00     0.180 C 
HETATM    5  O   UNL     1     -28.167   8.659   1.073  1.00  0.00    -0.349 OA
HETATM    6  C   UNL     1     -27.199   8.997   2.090  1.00  0.00     0.286 C 
ENDROOT
BRANCH   3   7
HETATM    7  O   UNL     1     -25.882   8.915  -1.567  1.00  0.00    -0.348 OA
BRANCH   7   8
HETATM    8  C   UNL     1     -26.404   7.942  -2.502  1.00  0.00     0.296 C 
HETATM    9  C   UNL     1     -25.327   6.918  -3.088  1.00  0.00     0.303 C 
HETATM   10  C   UNL     1     -24.681   7.334  -4.437  1.00  0.00     0.187 C 
HETATM   11  C   UNL     1     -25.700   7.894  -5.431  1.00  0.00     0.180 C 
HETATM   12  C   UNL     1     -26.733   8.841  -4.798  1.00  0.00     0.179 C 
HETATM   13  O   UNL     1     -27.251   8.478  -3.510  1.00  0.00    -0.349 OA
BRANCH   9  14
HETATM   14  N   UNL     1     -24.273   6.483  -2.136  1.00  0.00     0.090 N 
HETATM   15  H   UNL     1     -24.632   6.650  -1.195  1.00  0.00     0.313 HD
HETATM   16  H   UNL     1     -23.495   7.151  -2.197  1.00  0.00     0.313 HD
ENDBRANCH   9  14
BRANCH  10  17
HETATM   17  O   UNL     1     -23.582   8.219  -4.194  1.00  0.00    -0.391 OA
HETATM   18  H   UNL     1     -22.790   7.858  -4.638  1.00  0.00     0.210 HD
ENDBRANCH  10  17
BRANCH  11  19
HETATM   19  O   UNL     1     -26.370   6.817  -6.111  1.00  0.00    -0.390 OA
HETATM   20  H   UNL     1     -26.790   6.224  -5.467  1.00  0.00     0.210 HD
ENDBRANCH  11  19
BRANCH  12  21
HETATM   21  C   UNL     1     -26.284  10.308  -4.859  1.00  0.00     0.198 C 
BRANCH  21  22
HETATM   22  O   UNL     1     -25.224  10.612  -3.966  1.00  0.00    -0.398 OA
HETATM   23  H   UNL     1     -24.984  11.547  -4.088  1.00  0.00     0.209 HD
ENDBRANCH  21  22
ENDBRANCH  12  21
ENDBRANCH   7   8
ENDBRANCH   3   7
BRANCH   2  24
HETATM   24  O   UNL     1     -26.499  11.545   0.876  1.00  0.00    -0.391 OA
HETATM   25  H   UNL     1     -27.386  11.679   0.483  1.00  0.00     0.210 HD
ENDBRANCH   2  24
BRANCH   4  26
HETATM   26  C   UNL     1     -29.104  10.564  -0.056  1.00  0.00     0.198 C 
BRANCH  26  27
HETATM   27  O   UNL     1     -28.869  11.573  -1.040  1.00  0.00    -0.398 OA
HETATM   28  H   UNL     1     -29.025  11.179  -1.917  1.00  0.00     0.209 HD
ENDBRANCH  26  27
ENDBRANCH   4  26
BRANCH   1  29
HETATM   29  N   UNL     1     -24.680   9.442   2.252  1.00  0.00    -0.349 N 
HETATM   30  C   UNL     1     -23.363   9.150   1.974  1.00  0.00     0.214 C 
HETATM   31  C   UNL     1     -22.981   8.526   0.654  1.00  0.00     0.117 C 
HETATM   32  O   UNL     1     -22.519   9.442   2.809  1.00  0.00    -0.274 OA
HETATM   33  H   UNL     1     -24.825   9.870   3.165  1.00  0.00     0.163 HD
ENDBRANCH   1  29
BRANCH   6  34
HETATM   34  O   UNL     1     -27.507  10.110   2.991  1.00  0.00    -0.348 OA
BRANCH  34  35
HETATM   35  C   UNL     1     -27.632   9.849   4.432  1.00  0.00     0.186 C 
HETATM   36  C   UNL     1     -28.465  10.874   5.259  1.00  0.00     0.179 C 
HETATM   37  O   UNL     1     -29.892  10.688   5.217  1.00  0.00    -0.349 OA
HETATM   38  C   UNL     1     -30.404   9.412   5.571  1.00  0.00     0.292 C 
HETATM   39  C   UNL     1     -29.742   8.269   4.761  1.00  0.00     0.303 C 
HETATM   40  C   UNL     1     -28.192   8.399   4.658  1.00  0.00     0.187 C 
BRANCH  36  41
HETATM   41  C   UNL     1     -27.928  11.014   6.703  1.00  0.00     0.198 C 
BRANCH  41  42
HETATM   42  O   UNL     1     -26.589  10.522   6.786  1.00  0.00    -0.398 OA
HETATM   43  H   UNL     1     -26.219  10.904   7.603  1.00  0.00     0.209 HD
ENDBRANCH  41  42
ENDBRANCH  36  41
BRANCH  38  44
HETATM   44  O   UNL     1     -30.394   9.231   6.982  1.00  0.00    -0.369 OA
HETATM   45  H   UNL     1     -31.257   8.836   7.207  1.00  0.00     0.212 HD
ENDBRANCH  38  44
BRANCH  39  46
HETATM   46  N   UNL     1     -30.200   6.927   5.226  1.00  0.00     0.090 N 
HETATM   47  H   UNL     1     -30.529   6.421   4.395  1.00  0.00     0.313 HD
HETATM   48  H   UNL     1     -31.029   7.026   5.810  1.00  0.00     0.313 HD
ENDBRANCH  39  46
BRANCH  40  49
HETATM   49  O   UNL     1     -27.595   7.821   5.833  1.00  0.00    -0.391 OA
HETATM   50  H   UNL     1     -27.411   6.885   5.636  1.00  0.00     0.210 HD
ENDBRANCH  40  49
ENDBRANCH  34  35
ENDBRANCH   6  34
TORSDOF 18
ENDMDL
