MODEL 1
REMARK VINA RESULT:      -7.2      0.000      0.000
REMARK  29 active torsions:
REMARK  status: ('A' for Active; 'I' for Inactive)
REMARK    1  A    between atoms: C_3  and  C_5 
REMARK    2  A    between atoms: C_5  and  O_7 
REMARK    3  A    between atoms: O_7  and  C_8 
REMARK    4  A    between atoms: C_9  and  O_76 
REMARK    5  A    between atoms: C_10  and  C_74 
REMARK    6  A    between atoms: C_23  and  O_38 
REMARK    7  A    between atoms: C_24  and  C_36 
REMARK    8  A    between atoms: C_31  and  O_32 
REMARK    9  A    between atoms: C_36  and  O_37 
REMARK   10  A    between atoms: O_38  and  C_39 
REMARK   11  A    between atoms: C_40  and  O_61 
REMARK   12  A    between atoms: C_41  and  O_60 
REMARK   13  A    between atoms: C_42  and  O_48 
REMARK   14  A    between atoms: C_43  and  C_45 
REMARK   15  A    between atoms: C_45  and  O_47 
REMARK   16  A    between atoms: O_48  and  C_49 
REMARK   17  A    between atoms: C_50  and  O_59 
REMARK   18  A    between atoms: C_51  and  O_58 
REMARK   19  A    between atoms: C_52  and  O_57 
REMARK   20  A    between atoms: C_53  and  C_55 
REMARK   21  A    between atoms: C_55  and  O_56 
REMARK   22  A    between atoms: O_61  and  C_62 
REMARK   23  A    between atoms: C_63  and  O_72 
REMARK   24  A    between atoms: C_64  and  O_71 
REMARK   25  A    between atoms: C_65  and  O_70 
REMARK   26  A    between atoms: C_66  and  C_68 
REMARK   27  A    between atoms: C_68  and  O_69 
REMARK   28  A    between atoms: C_74  and  O_75 
REMARK   29  A    between atoms: O_76  and  C_77 
ROOT
HETATM    1  C   UNL     1     -14.253 -14.778  -2.658  1.00  0.00     0.170 C 
HETATM    2  C   UNL     1     -14.330 -13.609  -1.530  1.00  0.00     0.176 C 
HETATM    3  C   UNL     1     -15.631 -12.947  -1.986  1.00  0.00     0.043 C 
HETATM    4  C   UNL     1     -16.721 -14.389  -1.674  1.00  0.00     0.032 C 
HETATM    5  C   UNL     1     -16.419 -15.795  -2.374  1.00  0.00     0.021 C 
HETATM    6  C   UNL     1     -14.913 -16.096  -2.168  1.00  0.00    -0.018 C 
HETATM    7  C   UNL     1     -14.774 -16.616  -0.704  1.00  0.00     0.018 C 
HETATM    8  C   UNL     1     -14.238 -17.183  -2.998  1.00  0.00     0.018 C 
HETATM    9  C   UNL     1     -18.058 -14.357  -0.907  1.00  0.00    -0.069 C 
HETATM   10  C   UNL     1     -18.897 -15.448  -0.723  1.00  0.00    -0.022 C 
HETATM   11  C   UNL     1     -20.499 -15.478  -0.613  1.00  0.00     0.033 C 
HETATM   12  C   UNL     1     -21.038 -14.075  -0.356  1.00  0.00     0.007 C 
HETATM   13  C   UNL     1     -22.699 -13.166  -0.456  1.00  0.00    -0.035 C 
HETATM   14  C   UNL     1     -23.421 -12.828  -1.759  1.00  0.00     0.012 C 
HETATM   15  C   UNL     1     -22.935 -11.618  -2.575  1.00  0.00     0.034 C 
HETATM   16  C   UNL     1     -22.060 -10.401  -2.025  1.00  0.00     0.135 C 
HETATM   17  C   UNL     1     -21.853  -9.906  -0.316  1.00  0.00     0.008 C 
HETATM   18  C   UNL     1     -22.549 -11.527   0.220  1.00  0.00     0.007 C 
HETATM   19  C   UNL     1     -21.467 -12.059   1.028  1.00  0.00     0.007 C 
HETATM   20  C   UNL     1     -20.492 -12.000  -0.332  1.00  0.00     0.011 C 
HETATM   21  C   UNL     1     -19.967 -13.168  -0.977  1.00  0.00    -0.028 C 
HETATM   22  C   UNL     1     -18.470 -12.955  -0.594  1.00  0.00    -0.011 C 
HETATM   23  C   UNL     1     -17.741 -11.882  -1.522  1.00  0.00     0.047 C 
HETATM   24  C   UNL     1     -16.242 -11.810  -1.182  1.00  0.00     0.133 C 
HETATM   25  C   UNL     1     -18.103 -12.300   0.826  1.00  0.00     0.021 C 
HETATM   26  C   UNL     1     -20.079 -13.440  -2.550  1.00  0.00     0.016 C 
HETATM   27  C   UNL     1     -20.623  -9.796   1.076  1.00  0.00     0.020 C 
HETATM   28  C   UNL     1     -23.748 -13.887   0.472  1.00  0.00     0.016 C 
ENDROOT
BRANCH  16  29
HETATM   29  O   UNL     1     -22.147  -9.343  -2.970  1.00  0.00    -0.352 OA
BRANCH  29  30
HETATM   30  C   UNL     1     -21.154  -9.129  -3.956  1.00  0.00     0.293 C 
HETATM   31  C   UNL     1     -21.623  -9.312  -5.388  1.00  0.00     0.211 C 
HETATM   32  C   UNL     1     -21.322 -10.712  -5.863  1.00  0.00     0.184 C 
HETATM   33  C   UNL     1     -19.875 -11.215  -5.704  1.00  0.00     0.195 C 
HETATM   34  C   UNL     1     -19.120 -10.448  -4.580  1.00  0.00     0.253 C 
HETATM   35  O   UNL     1     -19.948  -9.791  -3.607  1.00  0.00    -0.340 OA
BRANCH  31  36
HETATM   36  O   UNL     1     -21.368  -8.237  -6.303  1.00  0.00    -0.346 OA
BRANCH  36  37
HETATM   37  C   UNL     1     -20.841  -7.017  -5.815  1.00  0.00     0.292 C 
HETATM   38  C   UNL     1     -21.906  -6.043  -5.299  1.00  0.00     0.204 C 
HETATM   39  C   UNL     1     -22.853  -5.739  -6.461  1.00  0.00     0.183 C 
HETATM   40  C   UNL     1     -22.068  -4.949  -7.506  1.00  0.00     0.180 C 
HETATM   41  C   UNL     1     -20.784  -5.727  -7.906  1.00  0.00     0.179 C 
HETATM   42  O   UNL     1     -20.074  -6.370  -6.832  1.00  0.00    -0.348 OA
BRANCH  38  43
HETATM   43  O   UNL     1     -21.285  -4.853  -4.801  1.00  0.00    -0.388 OA
HETATM   44  H   UNL     1     -22.028  -4.299  -4.489  1.00  0.00     0.210 HD
ENDBRANCH  38  43
BRANCH  39  45
HETATM   45  O   UNL     1     -23.989  -5.028  -5.955  1.00  0.00    -0.390 OA
HETATM   46  H   UNL     1     -24.783  -5.399  -6.377  1.00  0.00     0.210 HD
ENDBRANCH  39  45
BRANCH  40  47
HETATM   47  O   UNL     1     -21.773  -3.640  -6.995  1.00  0.00    -0.390 OA
HETATM   48  H   UNL     1     -22.482  -3.061  -7.370  1.00  0.00     0.210 HD
ENDBRANCH  40  47
BRANCH  41  49
HETATM   49  C   UNL     1     -19.753  -4.803  -8.587  1.00  0.00     0.198 C 
BRANCH  49  50
HETATM   50  O   UNL     1     -20.344  -3.863  -9.492  1.00  0.00    -0.398 OA
HETATM   51  H   UNL     1     -19.623  -3.300  -9.831  1.00  0.00     0.209 HD
ENDBRANCH  49  50
ENDBRANCH  41  49
ENDBRANCH  36  37
ENDBRANCH  31  36
BRANCH  32  52
HETATM   52  O   UNL     1     -21.935 -10.868  -7.137  1.00  0.00    -0.390 OA
HETATM   53  H   UNL     1     -22.903 -10.858  -7.013  1.00  0.00     0.210 HD
ENDBRANCH  32  52
BRANCH  33  54
HETATM   54  O   UNL     1     -19.171 -11.505  -6.952  1.00  0.00    -0.347 OA
BRANCH  54  55
HETATM   55  C   UNL     1     -18.395 -12.746  -6.830  1.00  0.00     0.292 C 
HETATM   56  C   UNL     1     -17.861 -13.283  -8.171  1.00  0.00     0.204 C 
HETATM   57  C   UNL     1     -18.895 -14.201  -8.815  1.00  0.00     0.183 C 
HETATM   58  C   UNL     1     -19.308 -15.307  -7.851  1.00  0.00     0.180 C 
HETATM   59  C   UNL     1     -19.864 -14.698  -6.551  1.00  0.00     0.179 C 
HETATM   60  O   UNL     1     -18.986 -13.731  -5.973  1.00  0.00    -0.348 OA
BRANCH  56  61
HETATM   61  O   UNL     1     -16.611 -13.968  -7.926  1.00  0.00    -0.388 OA
HETATM   62  H   UNL     1     -16.500 -14.618  -8.652  1.00  0.00     0.210 HD
ENDBRANCH  56  61
BRANCH  57  63
HETATM   63  O   UNL     1     -18.358 -14.800 -10.000  1.00  0.00    -0.390 OA
HETATM   64  H   UNL     1     -17.521 -15.224  -9.712  1.00  0.00     0.210 HD
ENDBRANCH  57  63
BRANCH  58  65
HETATM   65  O   UNL     1     -18.133 -16.123  -7.650  1.00  0.00    -0.390 OA
HETATM   66  H   UNL     1     -17.585 -16.044  -8.466  1.00  0.00     0.210 HD
ENDBRANCH  58  65
BRANCH  59  67
HETATM   67  C   UNL     1     -20.134 -15.809  -5.504  1.00  0.00     0.198 C 
BRANCH  67  68
HETATM   68  O   UNL     1     -18.932 -16.173  -4.804  1.00  0.00    -0.398 OA
HETATM   69  H   UNL     1     -19.142 -16.179  -3.852  1.00  0.00     0.209 HD
ENDBRANCH  67  68
ENDBRANCH  59  67
ENDBRANCH  54  55
ENDBRANCH  33  54
BRANCH  34  70
HETATM   70  C   UNL     1     -17.819  -9.680  -4.859  1.00  0.00     0.172 C 
HETATM   71  O   UNL     1     -17.032  -9.385  -3.968  1.00  0.00    -0.648 OA
BRANCH  70  72
HETATM   72  O   UNL     1     -17.542  -9.430  -6.153  1.00  0.00    -0.774 OA
HETATM   73  H   UNL     1     -17.968  -8.629  -6.528  1.00  0.00     0.167 HD
ENDBRANCH  70  72
ENDBRANCH  34  70
ENDBRANCH  29  30
ENDBRANCH  16  29
BRANCH  17  74
HETATM   74  C   UNL     1     -20.532  -8.904  -0.899  1.00  0.00     0.176 C 
BRANCH  74  75
HETATM   75  O   UNL     1     -20.860  -7.539  -1.103  1.00  0.00    -0.400 OA
HETATM   76  H   UNL     1     -20.716  -7.111  -0.243  1.00  0.00     0.209 HD
ENDBRANCH  74  75
ENDBRANCH  17  74
BRANCH  24  77
HETATM   77  O   UNL     1     -15.768 -10.472  -1.396  1.00  0.00    -0.395 OA
HETATM   78  H   UNL     1     -15.594 -10.055  -0.524  1.00  0.00     0.210 HD
ENDBRANCH  24  77
BRANCH   3  79
HETATM   79  C   UNL     1     -15.063 -12.113  -3.257  1.00  0.00     0.179 C 
BRANCH  79  80
HETATM   80  O   UNL     1     -15.987 -11.890  -4.315  1.00  0.00    -0.400 OA
HETATM   81  H   UNL     1     -15.806 -11.006  -4.677  1.00  0.00     0.209 HD
ENDBRANCH  79  80
ENDBRANCH   3  79
BRANCH   2  82
HETATM   82  O   UNL     1     -14.545 -14.111  -0.156  1.00  0.00    -0.313 OA
BRANCH  82  83
HETATM   83  C   UNL     1     -14.011 -13.721   1.021  1.00  0.00     0.255 C 
HETATM   84  O   UNL     1     -12.820 -13.564   1.222  1.00  0.00    -0.266 OA
HETATM   85  C   UNL     1     -15.103 -13.503   2.074  1.00  0.00     0.126 C 
ENDBRANCH  82  83
ENDBRANCH   2  82
BRANCH   1  86
HETATM   86  O   UNL     1     -15.245 -14.456  -3.936  1.00  0.00    -0.309 OA
BRANCH  86  87
HETATM   87  C   UNL     1     -15.330 -14.985  -5.121  1.00  0.00     0.289 C 
HETATM   88  O   UNL     1     -16.300 -15.410  -5.659  1.00  0.00    -0.260 OA
BRANCH  87  89
HETATM   89  C   UNL     1     -13.925 -15.105  -5.914  1.00  0.00     0.009 C 
HETATM   90  C   UNL     1     -13.342 -16.266  -6.241  1.00  0.00    -0.018 C 
HETATM   91  C   UNL     1     -11.911 -16.431  -6.761  1.00  0.00     0.036 C 
HETATM   92  C   UNL     1     -13.266 -13.796  -6.257  1.00  0.00     0.054 C 
ENDBRANCH  87  89
ENDBRANCH  86  87
ENDBRANCH   1  86
TORSDOF 29
ENDMDL
