MODEL 1
REMARK VINA RESULT:      -5.6      0.000      0.000
REMARK  13 active torsions:
REMARK  status: ('A' for Active; 'I' for Inactive)
REMARK       I    between atoms: C_2  and  N_4 
REMARK    1  A    between atoms: N_4  and  C_5 
REMARK    2  A    between atoms: C_6  and  O_18 
REMARK    3  A    between atoms: C_7  and  O_17 
REMARK    4  A    between atoms: C_8  and  O_12 
REMARK    5  A    between atoms: C_10  and  O_11 
REMARK    6  A    between atoms: O_12  and  S_13 
REMARK    7  A    between atoms: S_13  and  O_16 
REMARK    8  A    between atoms: O_18  and  C_19 
REMARK    9  A    between atoms: C_20  and  O_30 
REMARK   10  A    between atoms: C_21  and  O_29 
REMARK   11  A    between atoms: C_22  and  O_28 
REMARK   12  A    between atoms: C_23  and  C_25 
REMARK   13  A    between atoms: C_25  and  O_27 
ROOT
HETATM    1  C   UNL     1     -19.972  -9.754  -4.808  1.00  0.00     0.171 C 
HETATM    2  C   UNL     1     -19.188  -9.574  -3.476  1.00  0.00     0.185 C 
HETATM    3  C   UNL     1     -17.676  -9.600  -3.815  1.00  0.00     0.205 C 
HETATM    4  C   UNL     1     -17.287 -10.882  -4.576  1.00  0.00     0.315 C 
HETATM    5  O   UNL     1     -18.030 -10.940  -5.798  1.00  0.00    -0.326 OA
HETATM    6  C   UNL     1     -19.441 -10.996  -5.575  1.00  0.00     0.285 C 
ENDROOT
BRANCH   2   7
HETATM    7  O   UNL     1     -19.496 -10.558  -2.451  1.00  0.00    -0.348 OA
BRANCH   7   8
HETATM    8  C   UNL     1     -19.754 -10.034  -1.134  1.00  0.00     0.292 C 
HETATM    9  C   UNL     1     -20.706 -10.900  -0.264  1.00  0.00     0.204 C 
HETATM   10  C   UNL     1     -22.166 -10.654  -0.666  1.00  0.00     0.183 C 
HETATM   11  C   UNL     1     -22.479  -9.160  -0.580  1.00  0.00     0.189 C 
HETATM   12  C   UNL     1     -21.560  -8.471  -1.594  1.00  0.00     0.253 C 
HETATM   13  O   UNL     1     -20.179  -8.647  -1.243  1.00  0.00    -0.340 OA
BRANCH   9  14
HETATM   14  O   UNL     1     -20.507 -10.597   1.132  1.00  0.00    -0.388 OA
HETATM   15  H   UNL     1     -21.217 -11.059   1.631  1.00  0.00     0.210 HD
ENDBRANCH   9  14
BRANCH  10  16
HETATM   16  O   UNL     1     -23.056 -11.393   0.172  1.00  0.00    -0.390 OA
HETATM   17  H   UNL     1     -22.996 -12.325  -0.116  1.00  0.00     0.210 HD
ENDBRANCH  10  16
BRANCH  11  18
HETATM   18  O   UNL     1     -22.193  -8.703   0.763  1.00  0.00    -0.390 OA
HETATM   19  H   UNL     1     -21.225  -8.576   0.834  1.00  0.00     0.210 HD
ENDBRANCH  11  18
BRANCH  12  20
HETATM   20  C   UNL     1     -21.945  -6.984  -1.655  1.00  0.00     0.172 C 
HETATM   21  O   UNL     1     -22.778  -6.459  -0.928  1.00  0.00    -0.648 OA
BRANCH  20  22
HETATM   22  O   UNL     1     -21.259  -6.304  -2.592  1.00  0.00    -0.774 OA
HETATM   23  H   UNL     1     -21.353  -5.332  -2.454  1.00  0.00     0.167 HD
ENDBRANCH  20  22
ENDBRANCH  12  20
ENDBRANCH   7   8
ENDBRANCH   2   7
BRANCH   1  24
HETATM   24  N   UNL     1     -19.944  -8.536  -5.638  1.00  0.00    -0.349 N 
HETATM   25  C   UNL     1     -21.033  -7.688  -5.655  1.00  0.00     0.214 C 
HETATM   26  C   UNL     1     -20.900  -6.491  -6.553  1.00  0.00     0.117 C 
HETATM   27  O   UNL     1     -22.025  -7.879  -4.964  1.00  0.00    -0.274 OA
HETATM   28  H   UNL     1     -19.153  -8.361  -6.251  1.00  0.00     0.163 HD
ENDBRANCH   1  24
BRANCH   3  29
HETATM   29  O   UNL     1     -16.877  -9.406  -2.651  1.00  0.00    -0.388 OA
HETATM   30  H   UNL     1     -16.789 -10.277  -2.215  1.00  0.00     0.210 HD
ENDBRANCH   3  29
BRANCH   6  31
HETATM   31  O   UNL     1     -20.067 -11.126  -6.847  1.00  0.00    -0.369 OA
HETATM   32  H   UNL     1     -20.678 -11.880  -6.813  1.00  0.00     0.212 HD
ENDBRANCH   6  31
BRANCH   4  33
HETATM   33  O   UNL     1     -17.504 -12.021  -3.771  1.00  0.00    -0.228 OA
BRANCH  33  34
HETATM   34  S   UNL     1     -16.323 -12.518  -2.776  1.00  0.00     0.243 S 
HETATM   35  O   UNL     1     -16.372 -13.961  -2.708  1.00  0.00    -0.579 OA
HETATM   36  O   UNL     1     -15.125 -11.806  -3.142  1.00  0.00    -0.579 OA
BRANCH  34  37
HETATM   37  O   UNL     1     -16.802 -11.975  -1.337  1.00  0.00    -0.273 OA
HETATM   38  H   UNL     1     -16.030 -11.889  -0.738  1.00  0.00     0.234 HD
ENDBRANCH  34  37
ENDBRANCH  33  34
ENDBRANCH   4  33
TORSDOF 13
ENDMDL
MODEL 2
REMARK VINA RESULT:      -5.5      2.205      4.591
REMARK  13 active torsions:
REMARK  status: ('A' for Active; 'I' for Inactive)
REMARK       I    between atoms: C_2  and  N_4 
REMARK    1  A    between atoms: N_4  and  C_5 
REMARK    2  A    between atoms: C_6  and  O_18 
REMARK    3  A    between atoms: C_7  and  O_17 
REMARK    4  A    between atoms: C_8  and  O_12 
REMARK    5  A    between atoms: C_10  and  O_11 
REMARK    6  A    between atoms: O_12  and  S_13 
REMARK    7  A    between atoms: S_13  and  O_16 
REMARK    8  A    between atoms: O_18  and  C_19 
REMARK    9  A    between atoms: C_20  and  O_30 
REMARK   10  A    between atoms: C_21  and  O_29 
REMARK   11  A    between atoms: C_22  and  O_28 
REMARK   12  A    between atoms: C_23  and  C_25 
REMARK   13  A    between atoms: C_25  and  O_27 
ROOT
HETATM    1  C   UNL     1     -17.761 -11.140  -3.074  1.00  0.00     0.171 C 
HETATM    2  C   UNL     1     -19.128 -11.323  -3.795  1.00  0.00     0.185 C 
HETATM    3  C   UNL     1     -18.965 -10.807  -5.247  1.00  0.00     0.205 C 
HETATM    4  C   UNL     1     -18.454  -9.354  -5.279  1.00  0.00     0.315 C 
HETATM    5  O   UNL     1     -17.182  -9.294  -4.628  1.00  0.00    -0.326 OA
HETATM    6  C   UNL     1     -17.254  -9.682  -3.254  1.00  0.00     0.285 C 
ENDROOT
BRANCH   2   7
HETATM    7  O   UNL     1     -20.250 -10.665  -3.144  1.00  0.00    -0.348 OA
BRANCH   7   8
HETATM    8  C   UNL     1     -20.041 -10.274  -1.773  1.00  0.00     0.292 C 
HETATM    9  C   UNL     1     -20.672 -11.229  -0.722  1.00  0.00     0.204 C 
HETATM   10  C   UNL     1     -22.175 -10.953  -0.588  1.00  0.00     0.183 C 
HETATM   11  C   UNL     1     -22.401  -9.476  -0.261  1.00  0.00     0.189 C 
HETATM   12  C   UNL     1     -21.853  -8.685  -1.452  1.00  0.00     0.253 C 
HETATM   13  O   UNL     1     -20.439  -8.887  -1.601  1.00  0.00    -0.340 OA
BRANCH   9  14
HETATM   14  O   UNL     1     -20.011 -11.064   0.550  1.00  0.00    -0.388 OA
HETATM   15  H   UNL     1     -20.212 -11.864   1.084  1.00  0.00     0.210 HD
ENDBRANCH   9  14
BRANCH  10  16
HETATM   16  O   UNL     1     -22.755 -11.777   0.425  1.00  0.00    -0.390 OA
HETATM   17  H   UNL     1     -23.327 -12.421  -0.038  1.00  0.00     0.210 HD
ENDBRANCH  10  16
BRANCH  11  18
HETATM   18  O   UNL     1     -21.672  -9.153   0.947  1.00  0.00    -0.390 OA
HETATM   19  H   UNL     1     -21.249  -9.976   1.268  1.00  0.00     0.210 HD
ENDBRANCH  11  18
BRANCH  12  20
HETATM   20  C   UNL     1     -22.196  -7.202  -1.239  1.00  0.00     0.172 C 
HETATM   21  O   UNL     1     -21.796  -6.294  -1.954  1.00  0.00    -0.648 OA
BRANCH  20  22
HETATM   22  O   UNL     1     -23.000  -6.999  -0.179  1.00  0.00    -0.774 OA
HETATM   23  H   UNL     1     -23.856  -6.599  -0.464  1.00  0.00     0.167 HD
ENDBRANCH  20  22
ENDBRANCH  12  20
ENDBRANCH   7   8
ENDBRANCH   2   7
BRANCH   1  24
HETATM   24  N   UNL     1     -16.765 -12.133  -3.515  1.00  0.00    -0.349 N 
HETATM   25  C   UNL     1     -15.857 -12.648  -2.612  1.00  0.00     0.214 C 
HETATM   26  C   UNL     1     -14.876 -13.634  -3.179  1.00  0.00     0.117 C 
HETATM   27  O   UNL     1     -15.869 -12.347  -1.425  1.00  0.00    -0.274 OA
HETATM   28  H   UNL     1     -16.702 -12.382  -4.498  1.00  0.00     0.163 HD
ENDBRANCH   1  24
BRANCH   3  29
HETATM   29  O   UNL     1     -20.167 -10.969  -5.996  1.00  0.00    -0.388 OA
HETATM   30  H   UNL     1     -20.709 -11.635  -5.528  1.00  0.00     0.210 HD
ENDBRANCH   3  29
BRANCH   6  31
HETATM   31  O   UNL     1     -15.956  -9.513  -2.696  1.00  0.00    -0.369 OA
HETATM   32  H   UNL     1     -15.367  -9.168  -3.387  1.00  0.00     0.212 HD
ENDBRANCH   6  31
BRANCH   4  33
HETATM   33  O   UNL     1     -19.394  -8.486  -4.684  1.00  0.00    -0.228 OA
BRANCH  33  34
HETATM   34  S   UNL     1     -20.319  -7.552  -5.637  1.00  0.00     0.243 S 
HETATM   35  O   UNL     1     -19.465  -6.942  -6.630  1.00  0.00    -0.579 OA
HETATM   36  O   UNL     1     -21.483  -8.324  -5.993  1.00  0.00    -0.579 OA
BRANCH  34  37
HETATM   37  O   UNL     1     -20.791  -6.371  -4.648  1.00  0.00    -0.273 OA
HETATM   38  H   UNL     1     -21.234  -6.751  -3.860  1.00  0.00     0.234 HD
ENDBRANCH  34  37
ENDBRANCH  33  34
ENDBRANCH   4  33
TORSDOF 13
ENDMDL
MODEL 3
REMARK VINA RESULT:      -5.4      1.432      2.679
REMARK  13 active torsions:
REMARK  status: ('A' for Active; 'I' for Inactive)
REMARK       I    between atoms: C_2  and  N_4 
REMARK    1  A    between atoms: N_4  and  C_5 
REMARK    2  A    between atoms: C_6  and  O_18 
REMARK    3  A    between atoms: C_7  and  O_17 
REMARK    4  A    between atoms: C_8  and  O_12 
REMARK    5  A    between atoms: C_10  and  O_11 
REMARK    6  A    between atoms: O_12  and  S_13 
REMARK    7  A    between atoms: S_13  and  O_16 
REMARK    8  A    between atoms: O_18  and  C_19 
REMARK    9  A    between atoms: C_20  and  O_30 
REMARK   10  A    between atoms: C_21  and  O_29 
REMARK   11  A    between atoms: C_22  and  O_28 
REMARK   12  A    between atoms: C_23  and  C_25 
REMARK   13  A    between atoms: C_25  and  O_27 
ROOT
HETATM    1  C   UNL     1     -20.342  -8.748  -4.765  1.00  0.00     0.171 C 
HETATM    2  C   UNL     1     -19.420  -8.659  -3.514  1.00  0.00     0.185 C 
HETATM    3  C   UNL     1     -18.113  -9.425  -3.840  1.00  0.00     0.205 C 
HETATM    4  C   UNL     1     -18.398 -10.874  -4.280  1.00  0.00     0.315 C 
HETATM    5  O   UNL     1     -19.219 -10.850  -5.452  1.00  0.00    -0.326 OA
HETATM    6  C   UNL     1     -20.483 -10.226  -5.220  1.00  0.00     0.285 C 
ENDROOT
BRANCH   2   7
HETATM    7  O   UNL     1     -20.013  -9.165  -2.286  1.00  0.00    -0.348 OA
BRANCH   7   8
HETATM    8  C   UNL     1     -21.352  -8.715  -2.003  1.00  0.00     0.292 C 
HETATM    9  C   UNL     1     -21.477  -7.786  -0.763  1.00  0.00     0.204 C 
HETATM   10  C   UNL     1     -21.466  -8.616   0.527  1.00  0.00     0.183 C 
HETATM   11  C   UNL     1     -22.566  -9.677   0.466  1.00  0.00     0.189 C 
HETATM   12  C   UNL     1     -22.218 -10.588  -0.716  1.00  0.00     0.253 C 
HETATM   13  O   UNL     1     -22.245  -9.860  -1.954  1.00  0.00    -0.340 OA
BRANCH   9  14
HETATM   14  O   UNL     1     -22.687  -7.006  -0.853  1.00  0.00    -0.388 OA
HETATM   15  H   UNL     1     -22.712  -6.618  -1.755  1.00  0.00     0.210 HD
ENDBRANCH   9  14
BRANCH  10  16
HETATM   16  O   UNL     1     -21.649  -7.781   1.671  1.00  0.00    -0.390 OA
HETATM   17  H   UNL     1     -22.217  -8.282   2.290  1.00  0.00     0.210 HD
ENDBRANCH  10  16
BRANCH  11  18
HETATM   18  O   UNL     1     -23.835  -9.016   0.248  1.00  0.00    -0.390 OA
HETATM   19  H   UNL     1     -24.177  -8.734   1.120  1.00  0.00     0.210 HD
ENDBRANCH  11  18
BRANCH  12  20
HETATM   20  C   UNL     1     -23.212 -11.760  -0.723  1.00  0.00     0.172 C 
HETATM   21  O   UNL     1     -23.904 -12.081   0.232  1.00  0.00    -0.648 OA
BRANCH  20  22
HETATM   22  O   UNL     1     -23.253 -12.402  -1.906  1.00  0.00    -0.774 OA
HETATM   23  H   UNL     1     -22.479 -13.006  -2.000  1.00  0.00     0.167 HD
ENDBRANCH  20  22
ENDBRANCH  12  20
ENDBRANCH   7   8
ENDBRANCH   2   7
BRANCH   1  24
HETATM   24  N   UNL     1     -19.880  -7.872  -5.857  1.00  0.00    -0.349 N 
HETATM   25  C   UNL     1     -20.347  -6.577  -5.948  1.00  0.00     0.214 C 
HETATM   26  C   UNL     1     -19.825  -5.786  -7.113  1.00  0.00     0.117 C 
HETATM   27  O   UNL     1     -21.110  -6.094  -5.121  1.00  0.00    -0.274 OA
HETATM   28  H   UNL     1     -19.274  -8.247  -6.582  1.00  0.00     0.163 HD
ENDBRANCH   1  24
BRANCH   3  29
HETATM   29  O   UNL     1     -17.190  -9.367  -2.756  1.00  0.00    -0.388 OA
HETATM   30  H   UNL     1     -16.330  -9.085  -3.126  1.00  0.00     0.210 HD
ENDBRANCH   3  29
BRANCH   6  31
HETATM   31  O   UNL     1     -21.234 -10.327  -6.424  1.00  0.00    -0.369 OA
HETATM   32  H   UNL     1     -21.587  -9.449  -6.641  1.00  0.00     0.212 HD
ENDBRANCH   6  31
BRANCH   4  33
HETATM   33  O   UNL     1     -18.998 -11.601  -3.230  1.00  0.00    -0.228 OA
BRANCH  33  34
HETATM   34  S   UNL     1     -18.049 -12.383  -2.170  1.00  0.00     0.243 S 
HETATM   35  O   UNL     1     -18.699 -13.626  -1.821  1.00  0.00    -0.579 OA
HETATM   36  O   UNL     1     -16.704 -12.336  -2.684  1.00  0.00    -0.579 OA
BRANCH  34  37
HETATM   37  O   UNL     1     -18.113 -11.448  -0.860  1.00  0.00    -0.273 OA
HETATM   38  H   UNL     1     -18.029 -10.506  -1.117  1.00  0.00     0.234 HD
ENDBRANCH  34  37
ENDBRANCH  33  34
ENDBRANCH   4  33
TORSDOF 13
ENDMDL
MODEL 4
REMARK VINA RESULT:      -5.3      3.377      6.846
REMARK  13 active torsions:
REMARK  status: ('A' for Active; 'I' for Inactive)
REMARK       I    between atoms: C_2  and  N_4 
REMARK    1  A    between atoms: N_4  and  C_5 
REMARK    2  A    between atoms: C_6  and  O_18 
REMARK    3  A    between atoms: C_7  and  O_17 
REMARK    4  A    between atoms: C_8  and  O_12 
REMARK    5  A    between atoms: C_10  and  O_11 
REMARK    6  A    between atoms: O_12  and  S_13 
REMARK    7  A    between atoms: S_13  and  O_16 
REMARK    8  A    between atoms: O_18  and  C_19 
REMARK    9  A    between atoms: C_20  and  O_30 
REMARK   10  A    between atoms: C_21  and  O_29 
REMARK   11  A    between atoms: C_22  and  O_28 
REMARK   12  A    between atoms: C_23  and  C_25 
REMARK   13  A    between atoms: C_25  and  O_27 
ROOT
HETATM    1  C   UNL     1     -21.920 -12.488  -0.054  1.00  0.00     0.171 C 
HETATM    2  C   UNL     1     -20.938 -11.325   0.267  1.00  0.00     0.185 C 
HETATM    3  C   UNL     1     -21.787 -10.057   0.540  1.00  0.00     0.205 C 
HETATM    4  C   UNL     1     -22.733  -9.744  -0.635  1.00  0.00     0.315 C 
HETATM    5  O   UNL     1     -23.617 -10.853  -0.829  1.00  0.00    -0.326 OA
HETATM    6  C   UNL     1     -22.918 -12.054  -1.163  1.00  0.00     0.285 C 
ENDROOT
BRANCH   2   7
HETATM    7  O   UNL     1     -19.950 -11.061  -0.767  1.00  0.00    -0.348 OA
BRANCH   7   8
HETATM    8  C   UNL     1     -19.079 -12.161  -1.097  1.00  0.00     0.292 C 
HETATM    9  C   UNL     1     -18.357 -12.807   0.118  1.00  0.00     0.204 C 
HETATM   10  C   UNL     1     -17.151 -11.956   0.534  1.00  0.00     0.183 C 
HETATM   11  C   UNL     1     -16.226 -11.751  -0.666  1.00  0.00     0.189 C 
HETATM   12  C   UNL     1     -17.042 -10.982  -1.709  1.00  0.00     0.253 C 
HETATM   13  O   UNL     1     -18.169 -11.753  -2.155  1.00  0.00    -0.340 OA
BRANCH   9  14
HETATM   14  O   UNL     1     -17.941 -14.148  -0.215  1.00  0.00    -0.388 OA
HETATM   15  H   UNL     1     -18.293 -14.344  -1.110  1.00  0.00     0.210 HD
ENDBRANCH   9  14
BRANCH  10  16
HETATM   16  O   UNL     1     -16.438 -12.574   1.607  1.00  0.00    -0.390 OA
HETATM   17  H   UNL     1     -15.527 -12.722   1.284  1.00  0.00     0.210 HD
ENDBRANCH  10  16
BRANCH  11  18
HETATM   18  O   UNL     1     -15.835 -13.048  -1.175  1.00  0.00    -0.390 OA
HETATM   19  H   UNL     1     -16.615 -13.442  -1.616  1.00  0.00     0.210 HD
ENDBRANCH  11  18
BRANCH  12  20
HETATM   20  C   UNL     1     -16.106 -10.618  -2.874  1.00  0.00     0.172 C 
HETATM   21  O   UNL     1     -15.644 -11.429  -3.663  1.00  0.00    -0.648 OA
BRANCH  20  22
HETATM   22  O   UNL     1     -15.852  -9.298  -2.946  1.00  0.00    -0.774 OA
HETATM   23  H   UNL     1     -16.172  -8.838  -2.134  1.00  0.00     0.167 HD
ENDBRANCH  20  22
ENDBRANCH  12  20
ENDBRANCH   7   8
ENDBRANCH   2   7
BRANCH   1  24
HETATM   24  N   UNL     1     -22.609 -12.981   1.152  1.00  0.00    -0.349 N 
HETATM   25  C   UNL     1     -22.154 -14.115   1.793  1.00  0.00     0.214 C 
HETATM   26  C   UNL     1     -22.948 -14.536   2.996  1.00  0.00     0.117 C 
HETATM   27  O   UNL     1     -21.154 -14.719   1.426  1.00  0.00    -0.274 OA
HETATM   28  H   UNL     1     -23.462 -12.527   1.466  1.00  0.00     0.163 HD
ENDBRANCH   1  24
BRANCH   3  29
HETATM   29  O   UNL     1     -20.967  -8.943   0.879  1.00  0.00    -0.388 OA
HETATM   30  H   UNL     1     -20.156  -9.299   1.294  1.00  0.00     0.210 HD
ENDBRANCH   3  29
BRANCH   6  31
HETATM   31  O   UNL     1     -23.895 -13.060  -1.403  1.00  0.00    -0.369 OA
HETATM   32  H   UNL     1     -23.982 -13.602  -0.601  1.00  0.00     0.212 HD
ENDBRANCH   6  31
BRANCH   4  33
HETATM   33  O   UNL     1     -21.994  -9.447  -1.800  1.00  0.00    -0.228 OA
BRANCH  33  34
HETATM   34  S   UNL     1     -21.520  -7.918  -2.065  1.00  0.00     0.243 S 
HETATM   35  O   UNL     1     -21.563  -7.676  -3.489  1.00  0.00    -0.579 OA
HETATM   36  O   UNL     1     -22.220  -7.083  -1.122  1.00  0.00    -0.579 OA
BRANCH  34  37
HETATM   37  O   UNL     1     -19.964  -7.938  -1.649  1.00  0.00    -0.273 OA
HETATM   38  H   UNL     1     -19.790  -8.688  -1.042  1.00  0.00     0.234 HD
ENDBRANCH  34  37
ENDBRANCH  33  34
ENDBRANCH   4  33
TORSDOF 13
ENDMDL
MODEL 5
REMARK VINA RESULT:      -5.2      2.282      6.032
REMARK  13 active torsions:
REMARK  status: ('A' for Active; 'I' for Inactive)
REMARK       I    between atoms: C_2  and  N_4 
REMARK    1  A    between atoms: N_4  and  C_5 
REMARK    2  A    between atoms: C_6  and  O_18 
REMARK    3  A    between atoms: C_7  and  O_17 
REMARK    4  A    between atoms: C_8  and  O_12 
REMARK    5  A    between atoms: C_10  and  O_11 
REMARK    6  A    between atoms: O_12  and  S_13 
REMARK    7  A    between atoms: S_13  and  O_16 
REMARK    8  A    between atoms: O_18  and  C_19 
REMARK    9  A    between atoms: C_20  and  O_30 
REMARK   10  A    between atoms: C_21  and  O_29 
REMARK   11  A    between atoms: C_22  and  O_28 
REMARK   12  A    between atoms: C_23  and  C_25 
REMARK   13  A    between atoms: C_25  and  O_27 
ROOT
HETATM    1  C   UNL     1     -20.102  -7.546  -4.870  1.00  0.00     0.171 C 
HETATM    2  C   UNL     1     -19.640  -9.030  -4.928  1.00  0.00     0.185 C 
HETATM    3  C   UNL     1     -20.910  -9.917  -4.938  1.00  0.00     0.205 C 
HETATM    4  C   UNL     1     -21.823  -9.614  -3.733  1.00  0.00     0.315 C 
HETATM    5  O   UNL     1     -22.223  -8.241  -3.787  1.00  0.00    -0.326 OA
HETATM    6  C   UNL     1     -21.111  -7.346  -3.706  1.00  0.00     0.285 C 
ENDROOT
BRANCH   2   7
HETATM    7  O   UNL     1     -18.748  -9.431  -3.852  1.00  0.00    -0.348 OA
BRANCH   7   8
HETATM    8  C   UNL     1     -17.350  -9.512  -4.192  1.00  0.00     0.292 C 
HETATM    9  C   UNL     1     -17.051 -10.176  -5.564  1.00  0.00     0.204 C 
HETATM   10  C   UNL     1     -17.126 -11.704  -5.443  1.00  0.00     0.183 C 
HETATM   11  C   UNL     1     -16.185 -12.180  -4.335  1.00  0.00     0.189 C 
HETATM   12  C   UNL     1     -16.700 -11.551  -3.037  1.00  0.00     0.253 C 
HETATM   13  O   UNL     1     -16.620 -10.117  -3.090  1.00  0.00    -0.340 OA
BRANCH   9  14
HETATM   14  O   UNL     1     -15.750  -9.769  -6.035  1.00  0.00    -0.388 OA
HETATM   15  H   UNL     1     -15.501 -10.382  -6.760  1.00  0.00     0.210 HD
ENDBRANCH   9  14
BRANCH  10  16
HETATM   16  O   UNL     1     -16.787 -12.330  -6.681  1.00  0.00    -0.390 OA
HETATM   17  H   UNL     1     -16.854 -13.294  -6.530  1.00  0.00     0.210 HD
ENDBRANCH  10  16
BRANCH  11  18
HETATM   18  O   UNL     1     -14.847 -11.716  -4.634  1.00  0.00    -0.390 OA
HETATM   19  H   UNL     1     -14.526 -11.214  -3.858  1.00  0.00     0.210 HD
ENDBRANCH  11  18
BRANCH  12  20
HETATM   20  C   UNL     1     -15.877 -12.122  -1.871  1.00  0.00     0.172 C 
HETATM   21  O   UNL     1     -15.078 -13.042  -1.979  1.00  0.00    -0.648 OA
BRANCH  20  22
HETATM   22  O   UNL     1     -16.118 -11.495  -0.704  1.00  0.00    -0.774 OA
HETATM   23  H   UNL     1     -16.943 -10.956  -0.764  1.00  0.00     0.167 HD
ENDBRANCH  20  22
ENDBRANCH  12  20
ENDBRANCH   7   8
ENDBRANCH   2   7
BRANCH   1  24
HETATM   24  N   UNL     1     -20.643  -7.082  -6.161  1.00  0.00    -0.349 N 
HETATM   25  C   UNL     1     -20.440  -5.779  -6.567  1.00  0.00     0.214 C 
HETATM   26  C   UNL     1     -21.057  -5.415  -7.887  1.00  0.00     0.117 C 
HETATM   27  O   UNL     1     -19.778  -4.984  -5.914  1.00  0.00    -0.274 OA
HETATM   28  H   UNL     1     -21.227  -7.703  -6.715  1.00  0.00     0.163 HD
ENDBRANCH   1  24
BRANCH   3  29
HETATM   29  O   UNL     1     -20.581 -11.300  -5.025  1.00  0.00    -0.388 OA
HETATM   30  H   UNL     1     -19.666 -11.356  -5.368  1.00  0.00     0.210 HD
ENDBRANCH   3  29
BRANCH   6  31
HETATM   31  O   UNL     1     -21.632  -6.022  -3.694  1.00  0.00    -0.369 OA
HETATM   32  H   UNL     1     -21.339  -5.584  -2.878  1.00  0.00     0.212 HD
ENDBRANCH   6  31
BRANCH   4  33
HETATM   33  O   UNL     1     -21.165  -9.926  -2.524  1.00  0.00    -0.228 OA
BRANCH  33  34
HETATM   34  S   UNL     1     -22.048 -10.125  -1.176  1.00  0.00     0.243 S 
HETATM   35  O   UNL     1     -23.250 -10.844  -1.530  1.00  0.00    -0.579 OA
HETATM   36  O   UNL     1     -21.154 -10.582  -0.142  1.00  0.00    -0.579 OA
BRANCH  34  37
HETATM   37  O   UNL     1     -22.502  -8.623  -0.810  1.00  0.00    -0.273 OA
HETATM   38  H   UNL     1     -22.770  -8.147  -1.624  1.00  0.00     0.234 HD
ENDBRANCH  34  37
ENDBRANCH  33  34
ENDBRANCH   4  33
TORSDOF 13
ENDMDL
MODEL 6
REMARK VINA RESULT:      -5.2      2.507      4.578
REMARK  13 active torsions:
REMARK  status: ('A' for Active; 'I' for Inactive)
REMARK       I    between atoms: C_2  and  N_4 
REMARK    1  A    between atoms: N_4  and  C_5 
REMARK    2  A    between atoms: C_6  and  O_18 
REMARK    3  A    between atoms: C_7  and  O_17 
REMARK    4  A    between atoms: C_8  and  O_12 
REMARK    5  A    between atoms: C_10  and  O_11 
REMARK    6  A    between atoms: O_12  and  S_13 
REMARK    7  A    between atoms: S_13  and  O_16 
REMARK    8  A    between atoms: O_18  and  C_19 
REMARK    9  A    between atoms: C_20  and  O_30 
REMARK   10  A    between atoms: C_21  and  O_29 
REMARK   11  A    between atoms: C_22  and  O_28 
REMARK   12  A    between atoms: C_23  and  C_25 
REMARK   13  A    between atoms: C_25  and  O_27 
ROOT
HETATM    1  C   UNL     1     -17.791 -11.643  -1.293  1.00  0.00     0.171 C 
HETATM    2  C   UNL     1     -19.268 -11.709  -1.780  1.00  0.00     0.185 C 
HETATM    3  C   UNL     1     -19.325 -12.700  -2.970  1.00  0.00     0.205 C 
HETATM    4  C   UNL     1     -18.337 -12.305  -4.085  1.00  0.00     0.315 C 
HETATM    5  O   UNL     1     -17.009 -12.307  -3.552  1.00  0.00    -0.326 OA
HETATM    6  C   UNL     1     -16.846 -11.361  -2.493  1.00  0.00     0.285 C 
ENDROOT
BRANCH   2   7
HETATM    7  O   UNL     1     -19.841 -10.427  -2.158  1.00  0.00    -0.348 OA
BRANCH   7   8
HETATM    8  C   UNL     1     -20.052  -9.492  -1.082  1.00  0.00     0.292 C 
HETATM    9  C   UNL     1     -21.174  -9.892  -0.084  1.00  0.00     0.204 C 
HETATM   10  C   UNL     1     -22.552  -9.556  -0.669  1.00  0.00     0.183 C 
HETATM   11  C   UNL     1     -22.600  -8.077  -1.055  1.00  0.00     0.189 C 
HETATM   12  C   UNL     1     -21.536  -7.882  -2.140  1.00  0.00     0.253 C 
HETATM   13  O   UNL     1     -20.222  -8.157  -1.631  1.00  0.00    -0.340 OA
BRANCH   9  14
HETATM   14  O   UNL     1     -20.978  -9.213   1.174  1.00  0.00    -0.388 OA
HETATM   15  H   UNL     1     -21.775  -8.659   1.329  1.00  0.00     0.210 HD
ENDBRANCH   9  14
BRANCH  10  16
HETATM   16  O   UNL     1     -23.589  -9.855   0.266  1.00  0.00    -0.390 OA
HETATM   17  H   UNL     1     -24.201  -9.093   0.253  1.00  0.00     0.210 HD
ENDBRANCH  10  16
BRANCH  11  18
HETATM   18  O   UNL     1     -22.290  -7.283   0.115  1.00  0.00    -0.390 OA
HETATM   19  H   UNL     1     -22.655  -7.748   0.894  1.00  0.00     0.210 HD
ENDBRANCH  11  18
BRANCH  12  20
HETATM   20  C   UNL     1     -21.652  -6.444  -2.670  1.00  0.00     0.172 C 
HETATM   21  O   UNL     1     -20.940  -5.975  -3.547  1.00  0.00    -0.648 OA
BRANCH  20  22
HETATM   22  O   UNL     1     -22.635  -5.744  -2.072  1.00  0.00    -0.774 OA
HETATM   23  H   UNL     1     -23.081  -5.150  -2.721  1.00  0.00     0.167 HD
ENDBRANCH  20  22
ENDBRANCH  12  20
ENDBRANCH   7   8
ENDBRANCH   2   7
BRANCH   1  24
HETATM   24  N   UNL     1     -17.398 -12.853  -0.548  1.00  0.00    -0.349 N 
HETATM   25  C   UNL     1     -16.535 -12.754   0.524  1.00  0.00     0.214 C 
HETATM   26  C   UNL     1     -16.188 -14.053   1.191  1.00  0.00     0.117 C 
HETATM   27  O   UNL     1     -16.105 -11.679   0.924  1.00  0.00    -0.274 OA
HETATM   28  H   UNL     1     -17.707 -13.766  -0.870  1.00  0.00     0.163 HD
ENDBRANCH   1  24
BRANCH   3  29
HETATM   29  O   UNL     1     -20.654 -12.850  -3.460  1.00  0.00    -0.388 OA
HETATM   30  H   UNL     1     -20.744 -13.774  -3.768  1.00  0.00     0.210 HD
ENDBRANCH   3  29
BRANCH   6  31
HETATM   31  O   UNL     1     -15.480 -11.400  -2.096  1.00  0.00    -0.369 OA
HETATM   32  H   UNL     1     -15.093 -10.521  -2.241  1.00  0.00     0.212 HD
ENDBRANCH   6  31
BRANCH   4  33
HETATM   33  O   UNL     1     -18.685 -11.052  -4.633  1.00  0.00    -0.228 OA
BRANCH  33  34
HETATM   34  S   UNL     1     -18.239 -10.706  -6.155  1.00  0.00     0.243 S 
HETATM   35  O   UNL     1     -19.069 -11.480  -7.050  1.00  0.00    -0.579 OA
HETATM   36  O   UNL     1     -18.128  -9.273  -6.254  1.00  0.00    -0.579 OA
BRANCH  34  37
HETATM   37  O   UNL     1     -16.756 -11.326  -6.253  1.00  0.00    -0.273 OA
HETATM   38  H   UNL     1     -16.351 -11.370  -5.361  1.00  0.00     0.234 HD
ENDBRANCH  34  37
ENDBRANCH  33  34
ENDBRANCH   4  33
TORSDOF 13
ENDMDL
MODEL 7
REMARK VINA RESULT:      -5.2      2.728      6.583
REMARK  13 active torsions:
REMARK  status: ('A' for Active; 'I' for Inactive)
REMARK       I    between atoms: C_2  and  N_4 
REMARK    1  A    between atoms: N_4  and  C_5 
REMARK    2  A    between atoms: C_6  and  O_18 
REMARK    3  A    between atoms: C_7  and  O_17 
REMARK    4  A    between atoms: C_8  and  O_12 
REMARK    5  A    between atoms: C_10  and  O_11 
REMARK    6  A    between atoms: O_12  and  S_13 
REMARK    7  A    between atoms: S_13  and  O_16 
REMARK    8  A    between atoms: O_18  and  C_19 
REMARK    9  A    between atoms: C_20  and  O_30 
REMARK   10  A    between atoms: C_21  and  O_29 
REMARK   11  A    between atoms: C_22  and  O_28 
REMARK   12  A    between atoms: C_23  and  C_25 
REMARK   13  A    between atoms: C_25  and  O_27 
ROOT
HETATM    1  C   UNL     1     -21.477 -12.089  -0.357  1.00  0.00     0.171 C 
HETATM    2  C   UNL     1     -20.700 -10.800   0.038  1.00  0.00     0.185 C 
HETATM    3  C   UNL     1     -21.745  -9.711   0.387  1.00  0.00     0.205 C 
HETATM    4  C   UNL     1     -22.740  -9.487  -0.769  1.00  0.00     0.315 C 
HETATM    5  O   UNL     1     -23.428 -10.714  -1.033  1.00  0.00    -0.326 OA
HETATM    6  C   UNL     1     -22.542 -11.759  -1.439  1.00  0.00     0.285 C 
ENDROOT
BRANCH   2   7
HETATM    7  O   UNL     1     -19.777 -10.313  -0.975  1.00  0.00    -0.348 OA
BRANCH   7   8
HETATM    8  C   UNL     1     -19.299 -11.296  -1.915  1.00  0.00     0.292 C 
HETATM    9  C   UNL     1     -17.809 -11.697  -1.734  1.00  0.00     0.204 C 
HETATM   10  C   UNL     1     -16.893 -10.635  -2.355  1.00  0.00     0.183 C 
HETATM   11  C   UNL     1     -17.276 -10.416  -3.819  1.00  0.00     0.189 C 
HETATM   12  C   UNL     1     -18.715  -9.890  -3.811  1.00  0.00     0.253 C 
HETATM   13  O   UNL     1     -19.618 -10.865  -3.266  1.00  0.00    -0.340 OA
BRANCH   9  14
HETATM   14  O   UNL     1     -17.571 -12.986  -2.337  1.00  0.00    -0.388 OA
HETATM   15  H   UNL     1     -16.646 -12.983  -2.667  1.00  0.00     0.210 HD
ENDBRANCH   9  14
BRANCH  10  16
HETATM   16  O   UNL     1     -15.522 -11.025  -2.257  1.00  0.00    -0.390 OA
HETATM   17  H   UNL     1     -15.521 -11.970  -2.007  1.00  0.00     0.210 HD
ENDBRANCH  10  16
BRANCH  11  18
HETATM   18  O   UNL     1     -17.197 -11.684  -4.513  1.00  0.00    -0.390 OA
HETATM   19  H   UNL     1     -16.315 -12.067  -4.333  1.00  0.00     0.210 HD
ENDBRANCH  11  18
BRANCH  12  20
HETATM   20  C   UNL     1     -19.092  -9.510  -5.252  1.00  0.00     0.172 C 
HETATM   21  O   UNL     1     -18.367  -9.683  -6.221  1.00  0.00    -0.648 OA
BRANCH  20  22
HETATM   22  O   UNL     1     -20.322  -8.969  -5.345  1.00  0.00    -0.774 OA
HETATM   23  H   UNL     1     -20.455  -8.562  -6.234  1.00  0.00     0.167 HD
ENDBRANCH  20  22
ENDBRANCH  12  20
ENDBRANCH   7   8
ENDBRANCH   2   7
BRANCH   1  24
HETATM   24  N   UNL     1     -22.065 -12.763   0.814  1.00  0.00    -0.349 N 
HETATM   25  C   UNL     1     -21.527 -13.949   1.271  1.00  0.00     0.214 C 
HETATM   26  C   UNL     1     -22.222 -14.556   2.456  1.00  0.00     0.117 C 
HETATM   27  O   UNL     1     -20.534 -14.457   0.766  1.00  0.00    -0.274 OA
HETATM   28  H   UNL     1     -22.910 -12.391   1.239  1.00  0.00     0.163 HD
ENDBRANCH   1  24
BRANCH   3  29
HETATM   29  O   UNL     1     -21.119  -8.499   0.796  1.00  0.00    -0.388 OA
HETATM   30  H   UNL     1     -21.041  -7.934   0.001  1.00  0.00     0.210 HD
ENDBRANCH   3  29
BRANCH   6  31
HETATM   31  O   UNL     1     -23.340 -12.897  -1.744  1.00  0.00    -0.369 OA
HETATM   32  H   UNL     1     -23.191 -13.137  -2.673  1.00  0.00     0.212 HD
ENDBRANCH   6  31
BRANCH   4  33
HETATM   33  O   UNL     1     -22.069  -9.001  -1.911  1.00  0.00    -0.228 OA
BRANCH  33  34
HETATM   34  S   UNL     1     -21.768  -7.411  -2.030  1.00  0.00     0.243 S 
HETATM   35  O   UNL     1     -21.795  -7.054  -3.431  1.00  0.00    -0.579 OA
HETATM   36  O   UNL     1     -22.588  -6.744  -1.051  1.00  0.00    -0.579 OA
BRANCH  34  37
HETATM   37  O   UNL     1     -20.233  -7.291  -1.556  1.00  0.00    -0.273 OA
HETATM   38  H   UNL     1     -20.186  -6.845  -0.684  1.00  0.00     0.234 HD
ENDBRANCH  34  37
ENDBRANCH  33  34
ENDBRANCH   4  33
TORSDOF 13
ENDMDL
MODEL 8
REMARK VINA RESULT:      -5.2      2.000      5.749
REMARK  13 active torsions:
REMARK  status: ('A' for Active; 'I' for Inactive)
REMARK       I    between atoms: C_2  and  N_4 
REMARK    1  A    between atoms: N_4  and  C_5 
REMARK    2  A    between atoms: C_6  and  O_18 
REMARK    3  A    between atoms: C_7  and  O_17 
REMARK    4  A    between atoms: C_8  and  O_12 
REMARK    5  A    between atoms: C_10  and  O_11 
REMARK    6  A    between atoms: O_12  and  S_13 
REMARK    7  A    between atoms: S_13  and  O_16 
REMARK    8  A    between atoms: O_18  and  C_19 
REMARK    9  A    between atoms: C_20  and  O_30 
REMARK   10  A    between atoms: C_21  and  O_29 
REMARK   11  A    between atoms: C_22  and  O_28 
REMARK   12  A    between atoms: C_23  and  C_25 
REMARK   13  A    between atoms: C_25  and  O_27 
ROOT
HETATM    1  C   UNL     1     -20.678  -7.356  -3.388  1.00  0.00     0.171 C 
HETATM    2  C   UNL     1     -20.275  -8.856  -3.309  1.00  0.00     0.185 C 
HETATM    3  C   UNL     1     -21.495  -9.641  -2.762  1.00  0.00     0.205 C 
HETATM    4  C   UNL     1     -21.976  -9.072  -1.413  1.00  0.00     0.315 C 
HETATM    5  O   UNL     1     -22.357  -7.705  -1.595  1.00  0.00    -0.326 OA
HETATM    6  C   UNL     1     -21.266  -6.889  -2.028  1.00  0.00     0.285 C 
ENDROOT
BRANCH   2   7
HETATM    7  O   UNL     1     -19.094  -9.127  -2.505  1.00  0.00    -0.348 OA
BRANCH   7   8
HETATM    8  C   UNL     1     -17.876  -9.361  -3.237  1.00  0.00     0.292 C 
HETATM    9  C   UNL     1     -18.052 -10.180  -4.547  1.00  0.00     0.204 C 
HETATM   10  C   UNL     1     -18.166 -11.676  -4.227  1.00  0.00     0.183 C 
HETATM   11  C   UNL     1     -16.956 -12.121  -3.406  1.00  0.00     0.189 C 
HETATM   12  C   UNL     1     -17.010 -11.327  -2.097  1.00  0.00     0.253 C 
HETATM   13  O   UNL     1     -16.875  -9.918  -2.342  1.00  0.00    -0.340 OA
BRANCH   9  14
HETATM   14  O   UNL     1     -16.939  -9.934  -5.432  1.00  0.00    -0.388 OA
HETATM   15  H   UNL     1     -17.173  -9.151  -5.977  1.00  0.00     0.210 HD
ENDBRANCH   9  14
BRANCH  10  16
HETATM   16  O   UNL     1     -18.259 -12.446  -5.426  1.00  0.00    -0.390 OA
HETATM   17  H   UNL     1     -18.890 -11.977  -6.007  1.00  0.00     0.210 HD
ENDBRANCH  10  16
BRANCH  11  18
HETATM   18  O   UNL     1     -15.753 -11.807  -4.147  1.00  0.00    -0.390 OA
HETATM   19  H   UNL     1     -14.988 -12.080  -3.601  1.00  0.00     0.210 HD
ENDBRANCH  11  18
BRANCH  12  20
HETATM   20  C   UNL     1     -15.899 -11.852  -1.174  1.00  0.00     0.172 C 
HETATM   21  O   UNL     1     -15.660 -11.403  -0.062  1.00  0.00    -0.648 OA
BRANCH  20  22
HETATM   22  O   UNL     1     -15.212 -12.877  -1.713  1.00  0.00    -0.774 OA
HETATM   23  H   UNL     1     -15.060 -13.583  -1.041  1.00  0.00     0.167 HD
ENDBRANCH  20  22
ENDBRANCH  12  20
ENDBRANCH   7   8
ENDBRANCH   2   7
BRANCH   1  24
HETATM   24  N   UNL     1     -21.594  -7.085  -4.511  1.00  0.00    -0.349 N 
HETATM   25  C   UNL     1     -21.480  -5.912  -5.228  1.00  0.00     0.214 C 
HETATM   26  C   UNL     1     -22.480  -5.735  -6.334  1.00  0.00     0.117 C 
HETATM   27  O   UNL     1     -20.605  -5.086  -5.000  1.00  0.00    -0.274 OA
HETATM   28  H   UNL     1     -22.354  -7.731  -4.709  1.00  0.00     0.163 HD
ENDBRANCH   1  24
BRANCH   3  29
HETATM   29  O   UNL     1     -21.226 -11.038  -2.688  1.00  0.00    -0.388 OA
HETATM   30  H   UNL     1     -20.644 -11.178  -1.914  1.00  0.00     0.210 HD
ENDBRANCH   3  29
BRANCH   6  31
HETATM   31  O   UNL     1     -21.741  -5.549  -2.102  1.00  0.00    -0.369 OA
HETATM   32  H   UNL     1     -21.988  -5.262  -1.207  1.00  0.00     0.212 HD
ENDBRANCH   6  31
BRANCH   4  33
HETATM   33  O   UNL     1     -20.975  -9.216  -0.429  1.00  0.00    -0.228 OA
BRANCH  33  34
HETATM   34  S   UNL     1     -20.943 -10.565   0.472  1.00  0.00     0.243 S 
HETATM   35  O   UNL     1     -20.448 -10.216   1.784  1.00  0.00    -0.579 OA
HETATM   36  O   UNL     1     -22.202 -11.239   0.280  1.00  0.00    -0.579 OA
BRANCH  34  37
HETATM   37  O   UNL     1     -19.796 -11.450  -0.232  1.00  0.00    -0.273 OA
HETATM   38  H   UNL     1     -18.952 -10.951  -0.249  1.00  0.00     0.234 HD
ENDBRANCH  34  37
ENDBRANCH  33  34
ENDBRANCH   4  33
TORSDOF 13
ENDMDL
MODEL 9
REMARK VINA RESULT:      -5.1      2.057      3.463
REMARK  13 active torsions:
REMARK  status: ('A' for Active; 'I' for Inactive)
REMARK       I    between atoms: C_2  and  N_4 
REMARK    1  A    between atoms: N_4  and  C_5 
REMARK    2  A    between atoms: C_6  and  O_18 
REMARK    3  A    between atoms: C_7  and  O_17 
REMARK    4  A    between atoms: C_8  and  O_12 
REMARK    5  A    between atoms: C_10  and  O_11 
REMARK    6  A    between atoms: O_12  and  S_13 
REMARK    7  A    between atoms: S_13  and  O_16 
REMARK    8  A    between atoms: O_18  and  C_19 
REMARK    9  A    between atoms: C_20  and  O_30 
REMARK   10  A    between atoms: C_21  and  O_29 
REMARK   11  A    between atoms: C_22  and  O_28 
REMARK   12  A    between atoms: C_23  and  C_25 
REMARK   13  A    between atoms: C_25  and  O_27 
ROOT
HETATM    1  C   UNL     1     -19.726 -10.370  -5.024  1.00  0.00     0.171 C 
HETATM    2  C   UNL     1     -18.273 -10.227  -4.485  1.00  0.00     0.185 C 
HETATM    3  C   UNL     1     -17.339 -10.021  -5.705  1.00  0.00     0.205 C 
HETATM    4  C   UNL     1     -17.493 -11.158  -6.735  1.00  0.00     0.315 C 
HETATM    5  O   UNL     1     -18.847 -11.187  -7.196  1.00  0.00    -0.326 OA
HETATM    6  C   UNL     1     -19.776 -11.448  -6.142  1.00  0.00     0.285 C 
ENDROOT
BRANCH   2   7
HETATM    7  O   UNL     1     -17.813 -11.343  -3.674  1.00  0.00    -0.348 OA
BRANCH   7   8
HETATM    8  C   UNL     1     -17.395 -11.015  -2.335  1.00  0.00     0.292 C 
HETATM    9  C   UNL     1     -16.659 -12.160  -1.585  1.00  0.00     0.204 C 
HETATM   10  C   UNL     1     -17.671 -13.175  -1.038  1.00  0.00     0.183 C 
HETATM   11  C   UNL     1     -18.700 -12.457  -0.164  1.00  0.00     0.189 C 
HETATM   12  C   UNL     1     -19.429 -11.471  -1.082  1.00  0.00     0.253 C 
HETATM   13  O   UNL     1     -18.526 -10.479  -1.595  1.00  0.00    -0.340 OA
BRANCH   9  14
HETATM   14  O   UNL     1     -15.862 -11.612  -0.514  1.00  0.00    -0.388 OA
HETATM   15  H   UNL     1     -16.216 -10.716  -0.322  1.00  0.00     0.210 HD
ENDBRANCH   9  14
BRANCH  10  16
HETATM   16  O   UNL     1     -17.012 -14.196  -0.288  1.00  0.00    -0.390 OA
HETATM   17  H   UNL     1     -16.269 -14.509  -0.841  1.00  0.00     0.210 HD
ENDBRANCH  10  16
BRANCH  11  18
HETATM   18  O   UNL     1     -18.001 -11.754   0.891  1.00  0.00    -0.390 OA
HETATM   19  H   UNL     1     -18.659 -11.217   1.377  1.00  0.00     0.210 HD
ENDBRANCH  11  18
BRANCH  12  20
HETATM   20  C   UNL     1     -20.578 -10.835  -0.283  1.00  0.00     0.172 C 
HETATM   21  O   UNL     1     -21.063 -11.321   0.729  1.00  0.00    -0.648 OA
BRANCH  20  22
HETATM   22  O   UNL     1     -20.996  -9.668  -0.808  1.00  0.00    -0.774 OA
HETATM   23  H   UNL     1     -20.672  -9.569  -1.735  1.00  0.00     0.167 HD
ENDBRANCH  20  22
ENDBRANCH  12  20
ENDBRANCH   7   8
ENDBRANCH   2   7
BRANCH   1  24
HETATM   24  N   UNL     1     -20.282  -9.080  -5.471  1.00  0.00    -0.349 N 
HETATM   25  C   UNL     1     -21.203  -8.417  -4.687  1.00  0.00     0.214 C 
HETATM   26  C   UNL     1     -21.717  -7.124  -5.253  1.00  0.00     0.117 C 
HETATM   27  O   UNL     1     -21.555  -8.835  -3.591  1.00  0.00    -0.274 OA
HETATM   28  H   UNL     1     -20.041  -8.718  -6.389  1.00  0.00     0.163 HD
ENDBRANCH   1  24
BRANCH   3  29
HETATM   29  O   UNL     1     -15.985  -9.845  -5.301  1.00  0.00    -0.388 OA
HETATM   30  H   UNL     1     -15.486  -9.550  -6.089  1.00  0.00     0.210 HD
ENDBRANCH   3  29
BRANCH   6  31
HETATM   31  O   UNL     1     -21.071 -11.527  -6.727  1.00  0.00    -0.369 OA
HETATM   32  H   UNL     1     -21.127 -10.868  -7.438  1.00  0.00     0.212 HD
ENDBRANCH   6  31
BRANCH   4  33
HETATM   33  O   UNL     1     -17.100 -12.391  -6.173  1.00  0.00    -0.228 OA
BRANCH  33  34
HETATM   34  S   UNL     1     -15.535 -12.819  -6.228  1.00  0.00     0.243 S 
HETATM   35  O   UNL     1     -15.468 -14.252  -6.401  1.00  0.00    -0.579 OA
HETATM   36  O   UNL     1     -14.872 -11.904  -7.123  1.00  0.00    -0.579 OA
BRANCH  34  37
HETATM   37  O   UNL     1     -15.017 -12.512  -4.734  1.00  0.00    -0.273 OA
HETATM   38  H   UNL     1     -14.121 -12.117  -4.765  1.00  0.00     0.234 HD
ENDBRANCH  34  37
ENDBRANCH  33  34
ENDBRANCH   4  33
TORSDOF 13
ENDMDL
