MODEL 1
REMARK VINA RESULT:      -6.0      0.000      0.000
REMARK  2 active torsions:
REMARK  status: ('A' for Active; 'I' for Inactive)
REMARK    1  A    between atoms: C_4  and  C_7 
REMARK    2  A    between atoms: C_7  and  O_9 
ROOT
HETATM    1  C   UNL     1     -20.295  -4.452  -9.803  1.00  0.00     0.000 A 
HETATM    2  C   UNL     1     -20.710  -4.020 -11.064  1.00  0.00     0.001 A 
HETATM    3  C   UNL     1     -22.031  -3.615 -11.270  1.00  0.00     0.018 A 
HETATM    4  C   UNL     1     -22.939  -3.630 -10.203  1.00  0.00     0.037 A 
HETATM    5  C   UNL     1     -22.521  -4.075  -8.943  1.00  0.00     0.018 A 
HETATM    6  C   UNL     1     -21.202  -4.483  -8.744  1.00  0.00     0.001 A 
ENDROOT
BRANCH   4   7
HETATM    7  C   UNL     1     -24.365  -3.239 -10.362  1.00  0.00     0.176 C 
HETATM    8  O   UNL     1     -24.922  -3.198 -11.445  1.00  0.00    -0.646 OA
BRANCH   7   9
HETATM    9  O   UNL     1     -25.000  -2.975  -9.200  1.00  0.00    -0.773 OA
HETATM   10  H   UNL     1     -24.799  -3.588  -8.471  1.00  0.00     0.167 HD
ENDBRANCH   7   9
ENDBRANCH   4   7
TORSDOF 2
ENDMDL
MODEL 2
REMARK VINA RESULT:      -5.9      2.372      3.498
REMARK  2 active torsions:
REMARK  status: ('A' for Active; 'I' for Inactive)
REMARK    1  A    between atoms: C_4  and  C_7 
REMARK    2  A    between atoms: C_7  and  O_9 
ROOT
HETATM    1  C   UNL     1     -22.843  -3.938 -10.117  1.00  0.00     0.000 A 
HETATM    2  C   UNL     1     -24.135  -3.649 -10.558  1.00  0.00     0.001 A 
HETATM    3  C   UNL     1     -24.344  -3.152 -11.847  1.00  0.00     0.018 A 
HETATM    4  C   UNL     1     -23.252  -2.955 -12.704  1.00  0.00     0.037 A 
HETATM    5  C   UNL     1     -21.957  -3.235 -12.252  1.00  0.00     0.018 A 
HETATM    6  C   UNL     1     -21.754  -3.727 -10.962  1.00  0.00     0.001 A 
ENDROOT
BRANCH   4   7
HETATM    7  C   UNL     1     -23.404  -2.403 -14.076  1.00  0.00     0.176 C 
HETATM    8  O   UNL     1     -22.757  -2.807 -15.025  1.00  0.00    -0.646 OA
BRANCH   7   9
HETATM    9  O   UNL     1     -24.350  -1.446 -14.186  1.00  0.00    -0.773 OA
HETATM   10  H   UNL     1     -24.228  -0.827 -14.928  1.00  0.00     0.167 HD
ENDBRANCH   7   9
ENDBRANCH   4   7
TORSDOF 2
ENDMDL
MODEL 3
REMARK VINA RESULT:      -5.7      1.464      2.147
REMARK  2 active torsions:
REMARK  status: ('A' for Active; 'I' for Inactive)
REMARK    1  A    between atoms: C_4  and  C_7 
REMARK    2  A    between atoms: C_7  and  O_9 
ROOT
HETATM    1  C   UNL     1     -21.578  -4.173  -9.581  1.00  0.00     0.000 A 
HETATM    2  C   UNL     1     -21.045  -3.874 -10.836  1.00  0.00     0.001 A 
HETATM    3  C   UNL     1     -21.874  -3.409 -11.860  1.00  0.00     0.018 A 
HETATM    4  C   UNL     1     -23.243  -3.232 -11.623  1.00  0.00     0.037 A 
HETATM    5  C   UNL     1     -23.775  -3.545 -10.366  1.00  0.00     0.018 A 
HETATM    6  C   UNL     1     -22.944  -4.013  -9.348  1.00  0.00     0.001 A 
ENDROOT
BRANCH   4   7
HETATM    7  C   UNL     1     -24.182  -2.769 -12.678  1.00  0.00     0.176 C 
HETATM    8  O   UNL     1     -25.344  -3.131 -12.733  1.00  0.00    -0.646 OA
BRANCH   7   9
HETATM    9  O   UNL     1     -23.649  -1.880 -13.543  1.00  0.00    -0.773 OA
HETATM   10  H   UNL     1     -22.677  -1.889 -13.599  1.00  0.00     0.167 HD
ENDBRANCH   7   9
ENDBRANCH   4   7
TORSDOF 2
ENDMDL
MODEL 4
REMARK VINA RESULT:      -5.6      1.461      2.305
REMARK  2 active torsions:
REMARK  status: ('A' for Active; 'I' for Inactive)
REMARK    1  A    between atoms: C_4  and  C_7 
REMARK    2  A    between atoms: C_7  and  O_9 
ROOT
HETATM    1  C   UNL     1     -20.885  -4.639  -8.330  1.00  0.00     0.000 A 
HETATM    2  C   UNL     1     -20.068  -4.640  -9.461  1.00  0.00     0.001 A 
HETATM    3  C   UNL     1     -20.562  -4.182 -10.686  1.00  0.00     0.018 A 
HETATM    4  C   UNL     1     -21.877  -3.709 -10.774  1.00  0.00     0.037 A 
HETATM    5  C   UNL     1     -22.697  -3.721  -9.639  1.00  0.00     0.018 A 
HETATM    6  C   UNL     1     -22.201  -4.184  -8.420  1.00  0.00     0.001 A 
ENDROOT
BRANCH   4   7
HETATM    7  C   UNL     1     -22.471  -3.235 -12.053  1.00  0.00     0.176 C 
HETATM    8  O   UNL     1     -23.467  -2.536 -12.099  1.00  0.00    -0.646 OA
BRANCH   7   9
HETATM    9  O   UNL     1     -21.786  -3.611 -13.154  1.00  0.00    -0.773 OA
HETATM   10  H   UNL     1     -21.104  -4.289 -13.006  1.00  0.00     0.167 HD
ENDBRANCH   7   9
ENDBRANCH   4   7
TORSDOF 2
ENDMDL
MODEL 5
REMARK VINA RESULT:      -5.4      1.609      2.713
REMARK  2 active torsions:
REMARK  status: ('A' for Active; 'I' for Inactive)
REMARK    1  A    between atoms: C_4  and  C_7 
REMARK    2  A    between atoms: C_7  and  O_9 
ROOT
HETATM    1  C   UNL     1     -22.389  -4.181  -8.447  1.00  0.00     0.000 A 
HETATM    2  C   UNL     1     -23.673  -3.816  -8.856  1.00  0.00     0.001 A 
HETATM    3  C   UNL     1     -23.912  -3.457 -10.185  1.00  0.00     0.018 A 
HETATM    4  C   UNL     1     -22.861  -3.474 -11.112  1.00  0.00     0.037 A 
HETATM    5  C   UNL     1     -21.573  -3.829 -10.693  1.00  0.00     0.018 A 
HETATM    6  C   UNL     1     -21.339  -4.183  -9.364  1.00  0.00     0.001 A 
ENDROOT
BRANCH   4   7
HETATM    7  C   UNL     1     -23.044  -3.076 -12.532  1.00  0.00     0.176 C 
HETATM    8  O   UNL     1     -24.052  -2.527 -12.940  1.00  0.00    -0.646 OA
BRANCH   7   9
HETATM    9  O   UNL     1     -21.979  -3.336 -13.321  1.00  0.00    -0.773 OA
HETATM   10  H   UNL     1     -21.753  -4.278 -13.413  1.00  0.00     0.167 HD
ENDBRANCH   7   9
ENDBRANCH   4   7
TORSDOF 2
ENDMDL
MODEL 6
REMARK VINA RESULT:      -5.3      7.729      9.201
REMARK  2 active torsions:
REMARK  status: ('A' for Active; 'I' for Inactive)
REMARK    1  A    between atoms: C_4  and  C_7 
REMARK    2  A    between atoms: C_7  and  O_9 
ROOT
HETATM    1  C   UNL     1     -29.148  -6.437 -17.907  1.00  0.00     0.000 A 
HETATM    2  C   UNL     1     -29.120  -6.789 -16.556  1.00  0.00     0.001 A 
HETATM    3  C   UNL     1     -27.903  -6.868 -15.875  1.00  0.00     0.018 A 
HETATM    4  C   UNL     1     -26.708  -6.581 -16.546  1.00  0.00     0.037 A 
HETATM    5  C   UNL     1     -26.740  -6.240 -17.904  1.00  0.00     0.018 A 
HETATM    6  C   UNL     1     -27.957  -6.167 -18.582  1.00  0.00     0.001 A 
ENDROOT
BRANCH   4   7
HETATM    7  C   UNL     1     -25.379  -6.674 -15.887  1.00  0.00     0.176 C 
HETATM    8  O   UNL     1     -24.758  -7.718 -15.795  1.00  0.00    -0.646 OA
BRANCH   7   9
HETATM    9  O   UNL     1     -24.900  -5.495 -15.436  1.00  0.00    -0.773 OA
HETATM   10  H   UNL     1     -24.495  -4.926 -16.115  1.00  0.00     0.167 HD
ENDBRANCH   7   9
ENDBRANCH   4   7
TORSDOF 2
ENDMDL
MODEL 7
REMARK VINA RESULT:      -5.2      1.875      2.587
REMARK  2 active torsions:
REMARK  status: ('A' for Active; 'I' for Inactive)
REMARK    1  A    between atoms: C_4  and  C_7 
REMARK    2  A    between atoms: C_7  and  O_9 
ROOT
HETATM    1  C   UNL     1     -19.526  -4.777  -6.665  1.00  0.00     0.000 A 
HETATM    2  C   UNL     1     -19.350  -4.360  -7.986  1.00  0.00     0.001 A 
HETATM    3  C   UNL     1     -20.460  -4.093  -8.793  1.00  0.00     0.018 A 
HETATM    4  C   UNL     1     -21.752  -4.233  -8.270  1.00  0.00     0.037 A 
HETATM    5  C   UNL     1     -21.922  -4.663  -6.948  1.00  0.00     0.018 A 
HETATM    6  C   UNL     1     -20.811  -4.933  -6.148  1.00  0.00     0.001 A 
ENDROOT
BRANCH   4   7
HETATM    7  C   UNL     1     -22.973  -3.992  -9.083  1.00  0.00     0.176 C 
HETATM    8  O   UNL     1     -22.965  -3.992 -10.301  1.00  0.00    -0.646 OA
BRANCH   7   9
HETATM    9  O   UNL     1     -24.097  -3.817  -8.356  1.00  0.00    -0.773 OA
HETATM   10  H   UNL     1     -24.085  -3.053  -7.754  1.00  0.00     0.167 HD
ENDBRANCH   7   9
ENDBRANCH   4   7
TORSDOF 2
ENDMDL
MODEL 8
REMARK VINA RESULT:      -5.2      7.933      9.313
REMARK  2 active torsions:
REMARK  status: ('A' for Active; 'I' for Inactive)
REMARK    1  A    between atoms: C_4  and  C_7 
REMARK    2  A    between atoms: C_7  and  O_9 
ROOT
HETATM    1  C   UNL     1     -29.427  -6.366 -18.020  1.00  0.00     0.000 A 
HETATM    2  C   UNL     1     -28.256  -6.142 -18.746  1.00  0.00     0.001 A 
HETATM    3  C   UNL     1     -27.012  -6.224 -18.115  1.00  0.00     0.018 A 
HETATM    4  C   UNL     1     -26.940  -6.544 -16.753  1.00  0.00     0.037 A 
HETATM    5  C   UNL     1     -28.119  -6.756 -16.027  1.00  0.00     0.018 A 
HETATM    6  C   UNL     1     -29.359  -6.669 -16.661  1.00  0.00     0.001 A 
ENDROOT
BRANCH   4   7
HETATM    7  C   UNL     1     -25.650  -6.619 -16.017  1.00  0.00     0.176 C 
HETATM    8  O   UNL     1     -25.142  -5.654 -15.475  1.00  0.00    -0.646 OA
BRANCH   7   9
HETATM    9  O   UNL     1     -25.114  -7.857 -15.965  1.00  0.00    -0.773 OA
HETATM   10  H   UNL     1     -24.426  -8.039 -16.630  1.00  0.00     0.167 HD
ENDBRANCH   7   9
ENDBRANCH   4   7
TORSDOF 2
ENDMDL
MODEL 9
REMARK VINA RESULT:      -5.0     16.744     17.693
REMARK  2 active torsions:
REMARK  status: ('A' for Active; 'I' for Inactive)
REMARK    1  A    between atoms: C_4  and  C_7 
REMARK    2  A    between atoms: C_7  and  O_9 
ROOT
HETATM    1  C   UNL     1     -13.200   3.674 -20.831  1.00  0.00     0.000 A 
HETATM    2  C   UNL     1     -11.997   2.969 -20.777  1.00  0.00     0.001 A 
HETATM    3  C   UNL     1     -10.843   3.582 -20.281  1.00  0.00     0.018 A 
HETATM    4  C   UNL     1     -10.898   4.906 -19.825  1.00  0.00     0.037 A 
HETATM    5  C   UNL     1     -12.105   5.613 -19.893  1.00  0.00     0.018 A 
HETATM    6  C   UNL     1     -13.253   4.997 -20.393  1.00  0.00     0.001 A 
ENDROOT
BRANCH   4   7
HETATM    7  C   UNL     1      -9.702   5.624 -19.313  1.00  0.00     0.176 C 
HETATM    8  O   UNL     1      -8.866   6.122 -20.047  1.00  0.00    -0.646 OA
BRANCH   7   9
HETATM    9  O   UNL     1      -9.643   5.714 -17.968  1.00  0.00    -0.773 OA
HETATM   10  H   UNL     1      -9.076   5.053 -17.533  1.00  0.00     0.167 HD
ENDBRANCH   7   9
ENDBRANCH   4   7
TORSDOF 2
ENDMDL
