MODEL 1
REMARK VINA RESULT:      -5.5      0.000      0.000
REMARK  2 active torsions:
REMARK  status: ('A' for Active; 'I' for Inactive)
REMARK    1  A    between atoms: C_2  and  C_7 
REMARK    2  A    between atoms: C_7  and  O_9 
ROOT
HETATM    1  C   UNK     1     -24.181  -3.135 -12.213  1.00  0.00     0.120 C 
HETATM    2  C   UNK     1     -23.033  -2.545 -13.021  1.00  0.00     0.193 C 
HETATM    3  N   UNK     1     -21.790  -2.972 -12.402  1.00  0.00    -0.337 N 
HETATM    4  C   UNK     1     -21.845  -4.082 -11.610  1.00  0.00     0.280 C 
HETATM    5  O   UNK     1     -20.884  -4.592 -11.061  1.00  0.00    -0.260 OA
HETATM    6  S   UNK     1     -23.485  -4.664 -11.516  1.00  0.00    -0.067 SA
HETATM    7  H   UNK     1     -20.923  -2.446 -12.442  1.00  0.00     0.164 HD
ENDROOT
BRANCH   2   8
HETATM    8  C   UNK     1     -23.129  -2.973 -14.487  1.00  0.00     0.164 C 
HETATM    9  O   UNK     1     -22.451  -2.488 -15.383  1.00  0.00    -0.648 OA
BRANCH   8  10
HETATM   10  O   UNK     1     -24.011  -3.977 -14.712  1.00  0.00    -0.775 OA
HETATM   11  H   UNK     1     -23.567  -4.773 -15.070  1.00  0.00     0.167 HD
ENDBRANCH   8  10
ENDBRANCH   2   8
TORSDOF 2
ENDMDL
MODEL 2
REMARK VINA RESULT:      -5.3      2.897      3.780
REMARK  2 active torsions:
REMARK  status: ('A' for Active; 'I' for Inactive)
REMARK    1  A    between atoms: C_2  and  C_7 
REMARK    2  A    between atoms: C_7  and  O_9 
ROOT
HETATM    1  C   UNK     1     -23.859  -4.266 -12.068  1.00  0.00     0.120 C 
HETATM    2  C   UNK     1     -23.615  -4.618 -10.607  1.00  0.00     0.193 C 
HETATM    3  N   UNK     1     -22.201  -4.424 -10.334  1.00  0.00    -0.337 N 
HETATM    4  C   UNK     1     -21.517  -3.599 -11.179  1.00  0.00     0.280 C 
HETATM    5  O   UNK     1     -20.343  -3.299 -11.058  1.00  0.00    -0.260 OA
HETATM    6  S   UNK     1     -22.578  -3.031 -12.441  1.00  0.00    -0.067 SA
HETATM    7  H   UNK     1     -21.681  -4.936  -9.629  1.00  0.00     0.164 HD
ENDROOT
BRANCH   2   8
HETATM    8  C   UNK     1     -24.504  -3.772  -9.693  1.00  0.00     0.164 C 
HETATM    9  O   UNK     1     -25.491  -3.160 -10.078  1.00  0.00    -0.648 OA
BRANCH   8  10
HETATM   10  O   UNK     1     -24.126  -3.786  -8.391  1.00  0.00    -0.775 OA
HETATM   11  H   UNK     1     -23.246  -4.201  -8.276  1.00  0.00     0.167 HD
ENDBRANCH   8  10
ENDBRANCH   2   8
TORSDOF 2
ENDMDL
MODEL 3
REMARK VINA RESULT:      -5.1      2.647      3.328
REMARK  2 active torsions:
REMARK  status: ('A' for Active; 'I' for Inactive)
REMARK    1  A    between atoms: C_2  and  C_7 
REMARK    2  A    between atoms: C_7  and  O_9 
ROOT
HETATM    1  C   UNK     1     -22.443  -4.804 -10.095  1.00  0.00     0.120 C 
HETATM    2  C   UNK     1     -22.966  -4.433 -11.475  1.00  0.00     0.193 C 
HETATM    3  N   UNK     1     -24.334  -3.967 -11.321  1.00  0.00    -0.337 N 
HETATM    4  C   UNK     1     -24.700  -3.530 -10.081  1.00  0.00     0.280 C 
HETATM    5  O   UNK     1     -25.791  -3.066  -9.801  1.00  0.00    -0.260 OA
HETATM    6  S   UNK     1     -23.372  -3.720  -8.968  1.00  0.00    -0.067 SA
HETATM    7  H   UNK     1     -25.046  -4.041 -12.039  1.00  0.00     0.164 HD
ENDROOT
BRANCH   2   8
HETATM    8  C   UNK     1     -22.066  -3.382 -12.129  1.00  0.00     0.164 C 
HETATM    9  O   UNK     1     -21.318  -2.643 -11.505  1.00  0.00    -0.648 OA
BRANCH   8  10
HETATM   10  O   UNK     1     -22.136  -3.363 -13.482  1.00  0.00    -0.775 OA
HETATM   11  H   UNK     1     -21.372  -3.824 -13.889  1.00  0.00     0.167 HD
ENDBRANCH   8  10
ENDBRANCH   2   8
TORSDOF 2
ENDMDL
MODEL 4
REMARK VINA RESULT:      -5.1      3.980      5.637
REMARK  2 active torsions:
REMARK  status: ('A' for Active; 'I' for Inactive)
REMARK    1  A    between atoms: C_2  and  C_7 
REMARK    2  A    between atoms: C_7  and  O_9 
ROOT
HETATM    1  C   UNK     1     -22.146  -4.502  -9.764  1.00  0.00     0.120 C 
HETATM    2  C   UNK     1     -22.584  -3.670  -8.567  1.00  0.00     0.193 C 
HETATM    3  N   UNK     1     -23.851  -3.042  -8.904  1.00  0.00    -0.337 N 
HETATM    4  C   UNK     1     -24.579  -3.620  -9.903  1.00  0.00     0.280 C 
HETATM    5  O   UNK     1     -25.678  -3.244 -10.269  1.00  0.00    -0.260 OA
HETATM    6  S   UNK     1     -23.709  -4.980 -10.562  1.00  0.00    -0.067 SA
HETATM    7  H   UNK     1     -24.171  -2.160  -8.517  1.00  0.00     0.164 HD
ENDROOT
BRANCH   2   8
HETATM    8  C   UNK     1     -22.682  -4.538  -7.312  1.00  0.00     0.164 C 
HETATM    9  O   UNK     1     -21.764  -5.224  -6.884  1.00  0.00    -0.648 OA
BRANCH   8  10
HETATM   10  O   UNK     1     -23.876  -4.454  -6.676  1.00  0.00    -0.775 OA
HETATM   11  H   UNK     1     -24.624  -4.575  -7.297  1.00  0.00     0.167 HD
ENDBRANCH   8  10
ENDBRANCH   2   8
TORSDOF 2
ENDMDL
MODEL 5
REMARK VINA RESULT:      -5.0      1.428      3.708
REMARK  2 active torsions:
REMARK  status: ('A' for Active; 'I' for Inactive)
REMARK    1  A    between atoms: C_2  and  C_7 
REMARK    2  A    between atoms: C_7  and  O_9 
ROOT
HETATM    1  C   UNK     1     -23.233  -4.656 -11.097  1.00  0.00     0.120 C 
HETATM    2  C   UNK     1     -21.916  -4.383 -11.810  1.00  0.00     0.193 C 
HETATM    3  N   UNK     1     -22.213  -3.625 -13.014  1.00  0.00    -0.337 N 
HETATM    4  C   UNK     1     -23.399  -2.951 -13.042  1.00  0.00     0.280 C 
HETATM    5  O   UNK     1     -23.770  -2.235 -13.954  1.00  0.00    -0.260 OA
HETATM    6  S   UNK     1     -24.289  -3.254 -11.573  1.00  0.00    -0.067 SA
HETATM    7  H   UNK     1     -21.649  -3.650 -13.857  1.00  0.00     0.164 HD
ENDROOT
BRANCH   2   8
HETATM    8  C   UNK     1     -20.944  -3.647 -10.886  1.00  0.00     0.164 C 
HETATM    9  O   UNK     1     -20.798  -3.913  -9.701  1.00  0.00    -0.648 OA
BRANCH   8  10
HETATM   10  O   UNK     1     -20.215  -2.687 -11.506  1.00  0.00    -0.775 OA
HETATM   11  H   UNK     1     -19.426  -2.440 -10.982  1.00  0.00     0.167 HD
ENDBRANCH   8  10
ENDBRANCH   2   8
TORSDOF 2
ENDMDL
MODEL 6
REMARK VINA RESULT:      -4.7     17.401     18.254
REMARK  2 active torsions:
REMARK  status: ('A' for Active; 'I' for Inactive)
REMARK    1  A    between atoms: C_2  and  C_7 
REMARK    2  A    between atoms: C_7  and  O_9 
ROOT
HETATM    1  C   UNK     1     -10.834   6.142 -21.607  1.00  0.00     0.120 C 
HETATM    2  C   UNK     1      -9.779   6.033 -20.515  1.00  0.00     0.193 C 
HETATM    3  N   UNK     1      -9.038   7.283 -20.489  1.00  0.00    -0.337 N 
HETATM    4  C   UNK     1      -9.650   8.375 -21.032  1.00  0.00     0.280 C 
HETATM    5  O   UNK     1      -9.182   9.499 -21.045  1.00  0.00    -0.260 OA
HETATM    6  S   UNK     1     -11.201   7.921 -21.686  1.00  0.00    -0.067 SA
HETATM    7  H   UNK     1      -8.072   7.367 -20.189  1.00  0.00     0.164 HD
ENDROOT
BRANCH   2   8
HETATM    8  C   UNK     1     -10.428   5.716 -19.166  1.00  0.00     0.164 C 
HETATM    9  O   UNK     1     -11.593   5.364 -19.037  1.00  0.00    -0.648 OA
BRANCH   8  10
HETATM   10  O   UNK     1      -9.584   5.818 -18.111  1.00  0.00    -0.775 OA
HETATM   11  H   UNK     1      -9.994   6.307 -17.368  1.00  0.00     0.167 HD
ENDBRANCH   8  10
ENDBRANCH   2   8
TORSDOF 2
ENDMDL
MODEL 7
REMARK VINA RESULT:      -4.7      2.806      3.509
REMARK  2 active torsions:
REMARK  status: ('A' for Active; 'I' for Inactive)
REMARK    1  A    between atoms: C_2  and  C_7 
REMARK    2  A    between atoms: C_7  and  O_9 
ROOT
HETATM    1  C   UNK     1     -22.340  -4.400 -11.820  1.00  0.00     0.120 C 
HETATM    2  C   UNK     1     -23.395  -4.531 -10.731  1.00  0.00     0.193 C 
HETATM    3  N   UNK     1     -22.706  -4.697  -9.463  1.00  0.00    -0.337 N 
HETATM    4  C   UNK     1     -21.411  -4.269  -9.404  1.00  0.00     0.280 C 
HETATM    5  O   UNK     1     -20.716  -4.295  -8.404  1.00  0.00    -0.260 OA
HETATM    6  S   UNK     1     -20.913  -3.667 -10.962  1.00  0.00    -0.067 SA
HETATM    7  H   UNK     1     -23.089  -5.196  -8.667  1.00  0.00     0.164 HD
ENDROOT
BRANCH   2   8
HETATM    8  C   UNK     1     -24.324  -3.315 -10.731  1.00  0.00     0.164 C 
HETATM    9  O   UNK     1     -24.980  -2.960  -9.761  1.00  0.00    -0.648 OA
BRANCH   8  10
HETATM   10  O   UNK     1     -24.333  -2.628 -11.899  1.00  0.00    -0.775 OA
HETATM   11  H   UNK     1     -23.468  -2.201 -12.072  1.00  0.00     0.167 HD
ENDBRANCH   8  10
ENDBRANCH   2   8
TORSDOF 2
ENDMDL
MODEL 8
REMARK VINA RESULT:      -4.7      2.722      4.152
REMARK  2 active torsions:
REMARK  status: ('A' for Active; 'I' for Inactive)
REMARK    1  A    between atoms: C_2  and  C_7 
REMARK    2  A    between atoms: C_7  and  O_9 
ROOT
HETATM    1  C   UNK     1     -22.580  -4.255 -10.633  1.00  0.00     0.120 C 
HETATM    2  C   UNK     1     -23.468  -3.027 -10.500  1.00  0.00     0.193 C 
HETATM    3  N   UNK     1     -23.926  -2.664 -11.831  1.00  0.00    -0.337 N 
HETATM    4  C   UNK     1     -23.893  -3.643 -12.782  1.00  0.00     0.280 C 
HETATM    5  O   UNK     1     -24.286  -3.512 -13.927  1.00  0.00    -0.260 OA
HETATM    6  S   UNK     1     -23.223  -5.104 -12.107  1.00  0.00    -0.067 SA
HETATM    7  H   UNK     1     -24.167  -1.720 -12.114  1.00  0.00     0.164 HD
ENDROOT
BRANCH   2   8
HETATM    8  C   UNK     1     -24.628  -3.300  -9.542  1.00  0.00     0.164 C 
HETATM    9  O   UNK     1     -25.801  -3.076  -9.811  1.00  0.00    -0.648 OA
BRANCH   8  10
HETATM   10  O   UNK     1     -24.252  -3.857  -8.365  1.00  0.00    -0.775 OA
HETATM   11  H   UNK     1     -24.639  -4.749  -8.248  1.00  0.00     0.167 HD
ENDBRANCH   8  10
ENDBRANCH   2   8
TORSDOF 2
ENDMDL
MODEL 9
REMARK VINA RESULT:      -4.6      2.943      4.704
REMARK  2 active torsions:
REMARK  status: ('A' for Active; 'I' for Inactive)
REMARK    1  A    between atoms: C_2  and  C_7 
REMARK    2  A    between atoms: C_7  and  O_9 
ROOT
HETATM    1  C   UNK     1     -24.068  -4.866 -10.021  1.00  0.00     0.120 C 
HETATM    2  C   UNK     1     -22.653  -4.782  -9.468  1.00  0.00     0.193 C 
HETATM    3  N   UNK     1     -21.847  -4.037 -10.421  1.00  0.00    -0.337 N 
HETATM    4  C   UNK     1     -22.515  -3.224 -11.290  1.00  0.00     0.280 C 
HETATM    5  O   UNK     1     -21.983  -2.502 -12.114  1.00  0.00    -0.260 OA
HETATM    6  S   UNK     1     -24.234  -3.364 -11.033  1.00  0.00    -0.067 SA
HETATM    7  H   UNK     1     -20.847  -4.162 -10.542  1.00  0.00     0.164 HD
ENDROOT
BRANCH   2   8
HETATM    8  C   UNK     1     -22.653  -4.137  -8.080  1.00  0.00     0.164 C 
HETATM    9  O   UNK     1     -21.689  -3.558  -7.598  1.00  0.00    -0.648 OA
BRANCH   8  10
HETATM   10  O   UNK     1     -23.840  -4.224  -7.433  1.00  0.00    -0.775 OA
HETATM   11  H   UNK     1     -24.590  -4.284  -8.061  1.00  0.00     0.167 HD
ENDBRANCH   8  10
ENDBRANCH   2   8
TORSDOF 2
ENDMDL
