MODEL 1
REMARK VINA RESULT:      -4.3      0.000      0.000
REMARK  4 active torsions:
REMARK  status: ('A' for Active; 'I' for Inactive)
REMARK    1  A    between atoms: C_1  and  C_2 
REMARK    2  A    between atoms: C_1  and  O_6 
REMARK    3  A    between atoms: C_2  and  C_4 
REMARK    4  A    between atoms: C_4  and  O_5 
ROOT
HETATM    1  C   UNL     1     -23.194  -2.164 -14.727  1.00  0.00     0.173 C 
HETATM    2  O   UNL     1     -22.531  -2.911 -15.454  1.00  0.00    -0.293 OA
ENDROOT
BRANCH   1   3
HETATM    3  C   UNL     1     -23.718  -0.820 -15.216  1.00  0.00     0.244 C 
BRANCH   3   4
HETATM    4  O   UNL     1     -24.989  -0.492 -14.681  1.00  0.00    -0.394 OA
HETATM    5  H   UNL     1     -25.656  -0.911 -15.258  1.00  0.00     0.209 HD
ENDBRANCH   3   4
ENDBRANCH   1   3
BRANCH   1   6
HETATM    6  C   UNL     1     -23.536  -2.534 -13.290  1.00  0.00     0.244 C 
BRANCH   6   7
HETATM    7  O   UNL     1     -24.905  -2.847 -13.104  1.00  0.00    -0.394 OA
HETATM    8  H   UNL     1     -24.941  -3.562 -12.437  1.00  0.00     0.209 HD
ENDBRANCH   6   7
ENDBRANCH   1   6
TORSDOF 4
ENDMDL
MODEL 2
REMARK VINA RESULT:      -3.9      1.374      3.361
REMARK  4 active torsions:
REMARK  status: ('A' for Active; 'I' for Inactive)
REMARK    1  A    between atoms: C_1  and  C_2 
REMARK    2  A    between atoms: C_1  and  O_6 
REMARK    3  A    between atoms: C_2  and  C_4 
REMARK    4  A    between atoms: C_4  and  O_5 
ROOT
HETATM    1  C   UNL     1     -23.663  -2.634 -13.345  1.00  0.00     0.173 C 
HETATM    2  O   UNL     1     -24.852  -2.858 -13.097  1.00  0.00    -0.293 OA
ENDROOT
BRANCH   1   3
HETATM    3  C   UNL     1     -22.569  -2.850 -12.308  1.00  0.00     0.244 C 
BRANCH   3   4
HETATM    4  O   UNL     1     -21.604  -3.807 -12.710  1.00  0.00    -0.394 OA
HETATM    5  H   UNL     1     -20.781  -3.317 -12.899  1.00  0.00     0.209 HD
ENDBRANCH   3   4
ENDBRANCH   1   3
BRANCH   1   6
HETATM    6  C   UNL     1     -23.206  -2.129 -14.707  1.00  0.00     0.244 C 
BRANCH   6   7
HETATM    7  O   UNL     1     -22.256  -2.977 -15.328  1.00  0.00    -0.394 OA
HETATM    8  H   UNL     1     -21.494  -2.414 -15.572  1.00  0.00     0.209 HD
ENDBRANCH   6   7
ENDBRANCH   1   6
TORSDOF 4
ENDMDL
MODEL 3
REMARK VINA RESULT:      -3.9      1.402      2.741
REMARK  4 active torsions:
REMARK  status: ('A' for Active; 'I' for Inactive)
REMARK    1  A    between atoms: C_1  and  C_2 
REMARK    2  A    between atoms: C_1  and  O_6 
REMARK    3  A    between atoms: C_2  and  C_4 
REMARK    4  A    between atoms: C_4  and  O_5 
ROOT
HETATM    1  C   UNL     1     -23.622  -2.670 -13.352  1.00  0.00     0.173 C 
HETATM    2  O   UNL     1     -24.824  -2.837 -13.120  1.00  0.00    -0.293 OA
ENDROOT
BRANCH   1   3
HETATM    3  C   UNL     1     -23.119  -2.235 -14.722  1.00  0.00     0.244 C 
BRANCH   3   4
HETATM    4  O   UNL     1     -22.313  -3.214 -15.354  1.00  0.00    -0.394 OA
HETATM    5  H   UNL     1     -22.043  -2.845 -16.217  1.00  0.00     0.209 HD
ENDBRANCH   3   4
ENDBRANCH   1   3
BRANCH   1   6
HETATM    6  C   UNL     1     -22.558  -2.885 -12.284  1.00  0.00     0.244 C 
BRANCH   6   7
HETATM    7  O   UNL     1     -21.558  -3.812 -12.669  1.00  0.00    -0.394 OA
HETATM    8  H   UNL     1     -21.140  -3.454 -13.478  1.00  0.00     0.209 HD
ENDBRANCH   6   7
ENDBRANCH   1   6
TORSDOF 4
ENDMDL
MODEL 4
REMARK VINA RESULT:      -3.8      2.539      3.617
REMARK  4 active torsions:
REMARK  status: ('A' for Active; 'I' for Inactive)
REMARK    1  A    between atoms: C_1  and  C_2 
REMARK    2  A    between atoms: C_1  and  O_6 
REMARK    3  A    between atoms: C_2  and  C_4 
REMARK    4  A    between atoms: C_4  and  O_5 
ROOT
HETATM    1  C   UNL     1     -24.192  -3.068 -11.755  1.00  0.00     0.173 C 
HETATM    2  O   UNL     1     -25.129  -2.987 -12.556  1.00  0.00    -0.293 OA
ENDROOT
BRANCH   1   3
HETATM    3  C   UNL     1     -22.760  -2.736 -12.154  1.00  0.00     0.244 C 
BRANCH   3   4
HETATM    4  O   UNL     1     -22.369  -3.341 -13.374  1.00  0.00    -0.394 OA
HETATM    5  H   UNL     1     -23.172  -3.736 -13.764  1.00  0.00     0.209 HD
ENDBRANCH   3   4
ENDBRANCH   1   3
BRANCH   1   6
HETATM    6  C   UNL     1     -24.402  -3.502 -10.311  1.00  0.00     0.244 C 
BRANCH   6   7
HETATM    7  O   UNL     1     -25.711  -3.245  -9.834  1.00  0.00    -0.394 OA
HETATM    8  H   UNL     1     -25.627  -3.043  -8.881  1.00  0.00     0.209 HD
ENDBRANCH   6   7
ENDBRANCH   1   6
TORSDOF 4
ENDMDL
MODEL 5
REMARK VINA RESULT:      -3.8      1.912      3.205
REMARK  4 active torsions:
REMARK  status: ('A' for Active; 'I' for Inactive)
REMARK    1  A    between atoms: C_1  and  C_2 
REMARK    2  A    between atoms: C_1  and  O_6 
REMARK    3  A    between atoms: C_2  and  C_4 
REMARK    4  A    between atoms: C_4  and  O_5 
ROOT
HETATM    1  C   UNL     1     -23.868  -3.172 -12.268  1.00  0.00     0.173 C 
HETATM    2  O   UNL     1     -24.913  -3.093 -11.615  1.00  0.00    -0.293 OA
ENDROOT
BRANCH   1   3
HETATM    3  C   UNL     1     -23.713  -2.503 -13.627  1.00  0.00     0.244 C 
BRANCH   3   4
HETATM    4  O   UNL     1     -23.574  -3.429 -14.690  1.00  0.00    -0.394 OA
HETATM    5  H   UNL     1     -22.845  -3.106 -15.254  1.00  0.00     0.209 HD
ENDBRANCH   3   4
ENDBRANCH   1   3
BRANCH   1   6
HETATM    6  C   UNL     1     -22.657  -3.943 -11.760  1.00  0.00     0.244 C 
BRANCH   6   7
HETATM    7  O   UNL     1     -21.538  -3.861 -12.625  1.00  0.00    -0.394 OA
HETATM    8  H   UNL     1     -20.949  -3.172 -12.258  1.00  0.00     0.209 HD
ENDBRANCH   6   7
ENDBRANCH   1   6
TORSDOF 4
ENDMDL
MODEL 6
REMARK VINA RESULT:      -3.7      3.046      4.252
REMARK  4 active torsions:
REMARK  status: ('A' for Active; 'I' for Inactive)
REMARK    1  A    between atoms: C_1  and  C_2 
REMARK    2  A    between atoms: C_1  and  O_6 
REMARK    3  A    between atoms: C_2  and  C_4 
REMARK    4  A    between atoms: C_4  and  O_5 
ROOT
HETATM    1  C   UNL     1     -24.142  -3.401 -11.455  1.00  0.00     0.173 C 
HETATM    2  O   UNL     1     -24.937  -2.983 -12.303  1.00  0.00    -0.293 OA
ENDROOT
BRANCH   1   3
HETATM    3  C   UNL     1     -24.484  -3.421  -9.971  1.00  0.00     0.244 C 
BRANCH   3   4
HETATM    4  O   UNL     1     -25.864  -3.232  -9.716  1.00  0.00    -0.394 OA
HETATM    5  H   UNL     1     -26.067  -2.301  -9.928  1.00  0.00     0.209 HD
ENDBRANCH   3   4
ENDBRANCH   1   3
BRANCH   1   6
HETATM    6  C   UNL     1     -22.766  -3.930 -11.833  1.00  0.00     0.244 C 
BRANCH   6   7
HETATM    7  O   UNL     1     -22.296  -3.432 -13.073  1.00  0.00    -0.394 OA
HETATM    8  H   UNL     1     -23.075  -3.075 -13.545  1.00  0.00     0.209 HD
ENDBRANCH   6   7
ENDBRANCH   1   6
TORSDOF 4
ENDMDL
MODEL 7
REMARK VINA RESULT:      -3.7      2.751      4.324
REMARK  4 active torsions:
REMARK  status: ('A' for Active; 'I' for Inactive)
REMARK    1  A    between atoms: C_1  and  C_2 
REMARK    2  A    between atoms: C_1  and  O_6 
REMARK    3  A    between atoms: C_2  and  C_4 
REMARK    4  A    between atoms: C_4  and  O_5 
ROOT
HETATM    1  C   UNL     1     -23.969  -3.925 -11.068  1.00  0.00     0.173 C 
HETATM    2  O   UNL     1     -23.639  -5.109 -11.199  1.00  0.00    -0.293 OA
ENDROOT
BRANCH   1   3
HETATM    3  C   UNL     1     -24.538  -3.388  -9.762  1.00  0.00     0.244 C 
BRANCH   3   4
HETATM    4  O   UNL     1     -25.946  -3.231  -9.792  1.00  0.00    -0.394 OA
HETATM    5  H   UNL     1     -26.207  -2.849  -8.933  1.00  0.00     0.209 HD
ENDBRANCH   3   4
ENDBRANCH   1   3
BRANCH   1   6
HETATM    6  C   UNL     1     -23.827  -2.919 -12.201  1.00  0.00     0.244 C 
BRANCH   6   7
HETATM    7  O   UNL     1     -25.066  -2.550 -12.781  1.00  0.00    -0.394 OA
HETATM    8  H   UNL     1     -24.881  -2.313 -13.712  1.00  0.00     0.209 HD
ENDBRANCH   6   7
ENDBRANCH   1   6
TORSDOF 4
ENDMDL
MODEL 8
REMARK VINA RESULT:      -3.5      2.269      3.898
REMARK  4 active torsions:
REMARK  status: ('A' for Active; 'I' for Inactive)
REMARK    1  A    between atoms: C_1  and  C_2 
REMARK    2  A    between atoms: C_1  and  O_6 
REMARK    3  A    between atoms: C_2  and  C_4 
REMARK    4  A    between atoms: C_4  and  O_5 
ROOT
HETATM    1  C   UNL     1     -24.098  -3.217 -11.498  1.00  0.00     0.173 C 
HETATM    2  O   UNL     1     -24.998  -3.173 -10.653  1.00  0.00    -0.293 OA
ENDROOT
BRANCH   1   3
HETATM    3  C   UNL     1     -22.627  -3.280 -11.106  1.00  0.00     0.244 C 
BRANCH   3   4
HETATM    4  O   UNL     1     -21.754  -2.950 -12.171  1.00  0.00    -0.394 OA
HETATM    5  H   UNL     1     -21.039  -3.615 -12.168  1.00  0.00     0.209 HD
ENDBRANCH   3   4
ENDBRANCH   1   3
BRANCH   1   6
HETATM    6  C   UNL     1     -24.394  -3.216 -12.991  1.00  0.00     0.244 C 
BRANCH   6   7
HETATM    7  O   UNL     1     -24.344  -1.923 -13.569  1.00  0.00    -0.394 OA
HETATM    8  H   UNL     1     -24.401  -1.283 -12.832  1.00  0.00     0.209 HD
ENDBRANCH   6   7
ENDBRANCH   1   6
TORSDOF 4
ENDMDL
MODEL 9
REMARK VINA RESULT:      -3.5     15.802     16.617
REMARK  4 active torsions:
REMARK  status: ('A' for Active; 'I' for Inactive)
REMARK    1  A    between atoms: C_1  and  C_2 
REMARK    2  A    between atoms: C_1  and  O_6 
REMARK    3  A    between atoms: C_2  and  C_4 
REMARK    4  A    between atoms: C_4  and  O_5 
ROOT
HETATM    1  C   UNL     1     -11.178   6.726 -19.493  1.00  0.00     0.173 C 
HETATM    2  O   UNL     1     -12.377   6.453 -19.613  1.00  0.00    -0.293 OA
ENDROOT
BRANCH   1   3
HETATM    3  C   UNL     1     -10.667   8.160 -19.561  1.00  0.00     0.244 C 
BRANCH   3   4
HETATM    4  O   UNL     1     -10.208   8.645 -18.311  1.00  0.00    -0.394 OA
HETATM    5  H   UNL     1      -9.474   8.064 -18.034  1.00  0.00     0.209 HD
ENDBRANCH   3   4
ENDBRANCH   1   3
BRANCH   1   6
HETATM    6  C   UNL     1     -10.126   5.650 -19.264  1.00  0.00     0.244 C 
BRANCH   6   7
HETATM    7  O   UNL     1      -9.499   5.740 -17.997  1.00  0.00    -0.394 OA
HETATM    8  H   UNL     1      -9.886   5.033 -17.442  1.00  0.00     0.209 HD
ENDBRANCH   6   7
ENDBRANCH   1   6
TORSDOF 4
ENDMDL
