MODEL 1
REMARK VINA RESULT:      -6.9      0.000      0.000
REMARK  3 active torsions:
REMARK  status: ('A' for Active; 'I' for Inactive)
REMARK    1  A    between atoms: C_4  and  O_10 
REMARK    2  A    between atoms: C_5  and  C_7 
REMARK    3  A    between atoms: C_7  and  O_9 
ROOT
HETATM    1  C   UNL     1     -20.554  -4.035 -10.624  1.00  0.00     0.001 A 
HETATM    2  C   UNL     1     -20.516  -4.303  -9.262  1.00  0.00     0.003 A 
HETATM    3  C   UNL     1     -21.689  -4.236  -8.510  1.00  0.00     0.037 A 
HETATM    4  C   UNL     1     -22.898  -3.894  -9.128  1.00  0.00     0.082 A 
HETATM    5  C   UNL     1     -22.966  -3.623 -10.502  1.00  0.00     0.075 A 
HETATM    6  C   UNL     1     -21.765  -3.707 -11.237  1.00  0.00     0.020 A 
ENDROOT
BRANCH   5   7
HETATM    7  C   UNL     1     -24.228  -3.250 -11.242  1.00  0.00     0.325 C 
HETATM    8  O   UNL     1     -24.139  -2.914 -12.455  1.00  0.00    -0.257 OA
BRANCH   7   9
HETATM    9  O   UNL     1     -25.310  -3.227 -10.560  1.00  0.00    -0.144 OA
HETATM   10 NA   UNL     2     -26.232  -4.490  -9.434  1.00  0.00     0.000 Na
ENDBRANCH   7   9
ENDBRANCH   5   7
BRANCH   4  11
HETATM   11  O   UNL     1     -24.006  -3.844  -8.319  1.00  0.00    -0.360 OA
HETATM   12  H   UNL     1     -23.663  -4.014  -7.420  1.00  0.00     0.217 HD
ENDBRANCH   4  11
TORSDOF 3
ENDMDL
MODEL 2
REMARK VINA RESULT:      -6.8      0.840      2.154
REMARK  3 active torsions:
REMARK  status: ('A' for Active; 'I' for Inactive)
REMARK    1  A    between atoms: C_4  and  O_10 
REMARK    2  A    between atoms: C_5  and  C_7 
REMARK    3  A    between atoms: C_7  and  O_9 
ROOT
HETATM    1  C   UNL     1     -21.502  -4.152  -8.907  1.00  0.00     0.001 A 
HETATM    2  C   UNL     1     -20.399  -4.298  -9.737  1.00  0.00     0.003 A 
HETATM    3  C   UNL     1     -20.537  -4.108 -11.112  1.00  0.00     0.037 A 
HETATM    4  C   UNL     1     -21.786  -3.776 -11.652  1.00  0.00     0.082 A 
HETATM    5  C   UNL     1     -22.915  -3.618 -10.835  1.00  0.00     0.075 A 
HETATM    6  C   UNL     1     -22.743  -3.808  -9.449  1.00  0.00     0.020 A 
ENDROOT
BRANCH   5   7
HETATM    7  C   UNL     1     -24.293  -3.259 -11.339  1.00  0.00     0.325 C 
HETATM    8  O   UNL     1     -24.423  -2.917 -12.547  1.00  0.00    -0.257 OA
BRANCH   7   9
HETATM    9  O   UNL     1     -25.238  -3.254 -10.477  1.00  0.00    -0.144 OA
HETATM   10 NA   UNL     2     -26.197  -4.614  -9.506  1.00  0.00     0.000 Na
ENDBRANCH   7   9
ENDBRANCH   5   7
BRANCH   4  11
HETATM   11  O   UNL     1     -21.840  -3.611 -13.013  1.00  0.00    -0.360 OA
HETATM   12  H   UNL     1     -21.399  -4.404 -13.375  1.00  0.00     0.217 HD
ENDBRANCH   4  11
TORSDOF 3
ENDMDL
MODEL 3
REMARK VINA RESULT:      -6.3      1.953      3.679
REMARK  3 active torsions:
REMARK  status: ('A' for Active; 'I' for Inactive)
REMARK    1  A    between atoms: C_4  and  O_10 
REMARK    2  A    between atoms: C_5  and  C_7 
REMARK    3  A    between atoms: C_7  and  O_9 
ROOT
HETATM    1  C   UNL     1     -20.539  -4.167 -10.439  1.00  0.00     0.001 A 
HETATM    2  C   UNL     1     -21.718  -3.824 -11.086  1.00  0.00     0.003 A 
HETATM    3  C   UNL     1     -22.900  -3.705 -10.354  1.00  0.00     0.037 A 
HETATM    4  C   UNL     1     -22.896  -3.936  -8.973  1.00  0.00     0.082 A 
HETATM    5  C   UNL     1     -21.718  -4.280  -8.294  1.00  0.00     0.075 A 
HETATM    6  C   UNL     1     -20.538  -4.385  -9.059  1.00  0.00     0.020 A 
ENDROOT
BRANCH   5   7
HETATM    7  C   UNL     1     -21.629  -4.543  -6.810  1.00  0.00     0.325 C 
HETATM    8  O   UNL     1     -20.538  -4.309  -6.220  1.00  0.00    -0.257 OA
BRANCH   7   9
HETATM    9  O   UNL     1     -22.657  -5.063  -6.254  1.00  0.00    -0.144 OA
HETATM   10 NA   UNL     2     -24.506  -4.551  -6.071  1.00  0.00     0.000 Na
ENDBRANCH   7   9
ENDBRANCH   5   7
BRANCH   4  11
HETATM   11  O   UNL     1     -24.099  -3.804  -8.326  1.00  0.00    -0.360 OA
HETATM   12  H   UNL     1     -24.376  -4.721  -8.131  1.00  0.00     0.217 HD
ENDBRANCH   4  11
TORSDOF 3
ENDMDL
MODEL 4
REMARK VINA RESULT:      -6.2     11.128     12.197
REMARK  3 active torsions:
REMARK  status: ('A' for Active; 'I' for Inactive)
REMARK    1  A    between atoms: C_4  and  O_10 
REMARK    2  A    between atoms: C_5  and  C_7 
REMARK    3  A    between atoms: C_7  and  O_9 
ROOT
HETATM    1  C   UNL     1     -33.780  -2.585 -10.508  1.00  0.00     0.001 A 
HETATM    2  C   UNL     1     -33.221  -3.758 -10.996  1.00  0.00     0.003 A 
HETATM    3  C   UNL     1     -33.425  -4.120 -12.328  1.00  0.00     0.037 A 
HETATM    4  C   UNL     1     -34.195  -3.304 -13.166  1.00  0.00     0.082 A 
HETATM    5  C   UNL     1     -34.768  -2.112 -12.700  1.00  0.00     0.075 A 
HETATM    6  C   UNL     1     -34.537  -1.768 -11.352  1.00  0.00     0.020 A 
ENDROOT
BRANCH   5   7
HETATM    7  C   UNL     1     -35.607  -1.179 -13.539  1.00  0.00     0.325 C 
HETATM    8  O   UNL     1     -36.763  -0.877 -13.131  1.00  0.00    -0.257 OA
BRANCH   7   9
HETATM    9  O   UNL     1     -35.114  -0.810 -14.660  1.00  0.00    -0.144 OA
HETATM   10 NA   UNL     2     -34.316  -1.722 -16.158  1.00  0.00     0.000 Na
ENDBRANCH   7   9
ENDBRANCH   5   7
BRANCH   4  11
HETATM   11  O   UNL     1     -34.353  -3.733 -14.461  1.00  0.00    -0.360 OA
HETATM   12  H   UNL     1     -33.644  -3.282 -14.958  1.00  0.00     0.217 HD
ENDBRANCH   4  11
TORSDOF 3
ENDMDL
MODEL 5
REMARK VINA RESULT:      -6.0     11.246     12.225
REMARK  3 active torsions:
REMARK  status: ('A' for Active; 'I' for Inactive)
REMARK    1  A    between atoms: C_4  and  O_10 
REMARK    2  A    between atoms: C_5  and  C_7 
REMARK    3  A    between atoms: C_7  and  O_9 
ROOT
HETATM    1  C   UNL     1     -33.580  -3.357 -10.479  1.00  0.00     0.001 A 
HETATM    2  C   UNL     1     -33.163  -4.229 -11.476  1.00  0.00     0.003 A 
HETATM    3  C   UNL     1     -33.561  -4.014 -12.795  1.00  0.00     0.037 A 
HETATM    4  C   UNL     1     -34.385  -2.926 -13.110  1.00  0.00     0.082 A 
HETATM    5  C   UNL     1     -34.817  -2.028 -12.124  1.00  0.00     0.075 A 
HETATM    6  C   UNL     1     -34.391  -2.266 -10.801  1.00  0.00     0.020 A 
ENDROOT
BRANCH   5   7
HETATM    7  C   UNL     1     -35.701  -0.832 -12.383  1.00  0.00     0.325 C 
HETATM    8  O   UNL     1     -36.686  -0.968 -13.161  1.00  0.00    -0.257 OA
BRANCH   7   9
HETATM    9  O   UNL     1     -35.346   0.274 -11.847  1.00  0.00    -0.144 OA
HETATM   10 NA   UNL     2     -35.808   1.208 -10.227  1.00  0.00     0.000 Na
ENDBRANCH   7   9
ENDBRANCH   5   7
BRANCH   4  11
HETATM   11  O   UNL     1     -34.738  -2.788 -14.430  1.00  0.00    -0.360 OA
HETATM   12  H   UNL     1     -33.888  -2.733 -14.908  1.00  0.00     0.217 HD
ENDBRANCH   4  11
TORSDOF 3
ENDMDL
MODEL 6
REMARK VINA RESULT:      -5.9      2.396      2.837
REMARK  3 active torsions:
REMARK  status: ('A' for Active; 'I' for Inactive)
REMARK    1  A    between atoms: C_4  and  O_10 
REMARK    2  A    between atoms: C_5  and  C_7 
REMARK    3  A    between atoms: C_7  and  O_9 
ROOT
HETATM    1  C   UNL     1     -19.734  -4.346  -8.207  1.00  0.00     0.001 A 
HETATM    2  C   UNL     1     -20.485  -4.186  -7.051  1.00  0.00     0.003 A 
HETATM    3  C   UNL     1     -21.867  -4.019  -7.141  1.00  0.00     0.037 A 
HETATM    4  C   UNL     1     -22.492  -4.008  -8.395  1.00  0.00     0.082 A 
HETATM    5  C   UNL     1     -21.757  -4.173  -9.578  1.00  0.00     0.075 A 
HETATM    6  C   UNL     1     -20.363  -4.348  -9.454  1.00  0.00     0.020 A 
ENDROOT
BRANCH   5   7
HETATM    7  C   UNL     1     -22.355  -4.175 -10.964  1.00  0.00     0.325 C 
HETATM    8  O   UNL     1     -23.609  -4.258 -11.080  1.00  0.00    -0.257 OA
BRANCH   7   9
HETATM    9  O   UNL     1     -21.534  -4.168 -11.945  1.00  0.00    -0.144 OA
HETATM   10 NA   UNL     2     -21.661  -3.734 -13.818  1.00  0.00     0.000 Na
ENDBRANCH   7   9
ENDBRANCH   5   7
BRANCH   4  11
HETATM   11  O   UNL     1     -23.853  -3.832  -8.399  1.00  0.00    -0.360 OA
HETATM   12  H   UNL     1     -24.051  -3.417  -7.537  1.00  0.00     0.217 HD
ENDBRANCH   4  11
TORSDOF 3
ENDMDL
MODEL 7
REMARK VINA RESULT:      -5.9     10.779     11.692
REMARK  3 active torsions:
REMARK  status: ('A' for Active; 'I' for Inactive)
REMARK    1  A    between atoms: C_4  and  O_10 
REMARK    2  A    between atoms: C_5  and  C_7 
REMARK    3  A    between atoms: C_7  and  O_9 
ROOT
HETATM    1  C   UNL     1     -32.692  -4.782 -11.760  1.00  0.00     0.001 A 
HETATM    2  C   UNL     1     -33.515  -5.649 -11.055  1.00  0.00     0.003 A 
HETATM    3  C   UNL     1     -34.790  -5.234 -10.670  1.00  0.00     0.037 A 
HETATM    4  C   UNL     1     -35.233  -3.944 -10.989  1.00  0.00     0.082 A 
HETATM    5  C   UNL     1     -34.424  -3.050 -11.704  1.00  0.00     0.075 A 
HETATM    6  C   UNL     1     -33.144  -3.501 -12.087  1.00  0.00     0.020 A 
ENDROOT
BRANCH   5   7
HETATM    7  C   UNL     1     -34.828  -1.647 -12.088  1.00  0.00     0.325 C 
HETATM    8  O   UNL     1     -34.743  -1.306 -13.301  1.00  0.00    -0.257 OA
BRANCH   7   9
HETATM    9  O   UNL     1     -35.163  -0.862 -11.135  1.00  0.00    -0.144 OA
HETATM   10 NA   UNL     2     -34.932  -0.873  -9.223  1.00  0.00     0.000 Na
ENDBRANCH   7   9
ENDBRANCH   5   7
BRANCH   4  11
HETATM   11  O   UNL     1     -36.497  -3.610 -10.570  1.00  0.00    -0.360 OA
HETATM   12  H   UNL     1     -37.037  -3.618 -11.383  1.00  0.00     0.217 HD
ENDBRANCH   4  11
TORSDOF 3
ENDMDL
MODEL 8
REMARK VINA RESULT:      -5.9      8.010      9.600
REMARK  3 active torsions:
REMARK  status: ('A' for Active; 'I' for Inactive)
REMARK    1  A    between atoms: C_4  and  O_10 
REMARK    2  A    between atoms: C_5  and  C_7 
REMARK    3  A    between atoms: C_7  and  O_9 
ROOT
HETATM    1  C   UNL     1     -27.285  -6.218 -19.437  1.00  0.00     0.001 A 
HETATM    2  C   UNL     1     -26.429  -6.554 -20.476  1.00  0.00     0.003 A 
HETATM    3  C   UNL     1     -25.125  -6.961 -20.194  1.00  0.00     0.037 A 
HETATM    4  C   UNL     1     -24.681  -7.024 -18.868  1.00  0.00     0.082 A 
HETATM    5  C   UNL     1     -25.527  -6.695 -17.799  1.00  0.00     0.075 A 
HETATM    6  C   UNL     1     -26.842  -6.295 -18.114  1.00  0.00     0.020 A 
ENDROOT
BRANCH   5   7
HETATM    7  C   UNL     1     -25.127  -6.739 -16.344  1.00  0.00     0.325 C 
HETATM    8  O   UNL     1     -25.388  -5.741 -15.616  1.00  0.00    -0.257 OA
BRANCH   7   9
HETATM    9  O   UNL     1     -24.473  -7.769 -15.957  1.00  0.00    -0.144 OA
HETATM   10 NA   UNL     2     -22.813  -8.596 -16.474  1.00  0.00     0.000 Na
ENDBRANCH   7   9
ENDBRANCH   5   7
BRANCH   4  11
HETATM   11  O   UNL     1     -23.383  -7.427 -18.674  1.00  0.00    -0.360 OA
HETATM   12  H   UNL     1     -23.343  -8.322 -19.064  1.00  0.00     0.217 HD
ENDBRANCH   4  11
TORSDOF 3
ENDMDL
MODEL 9
REMARK VINA RESULT:      -5.8      7.393      9.024
REMARK  3 active torsions:
REMARK  status: ('A' for Active; 'I' for Inactive)
REMARK    1  A    between atoms: C_4  and  O_10 
REMARK    2  A    between atoms: C_5  and  C_7 
REMARK    3  A    between atoms: C_7  and  O_9 
ROOT
HETATM    1  C   UNL     1     -28.028  -6.060 -18.748  1.00  0.00     0.001 A 
HETATM    2  C   UNL     1     -29.203  -6.516 -18.165  1.00  0.00     0.003 A 
HETATM    3  C   UNL     1     -29.179  -7.019 -16.864  1.00  0.00     0.037 A 
HETATM    4  C   UNL     1     -27.974  -7.069 -16.153  1.00  0.00     0.082 A 
HETATM    5  C   UNL     1     -26.775  -6.610 -16.716  1.00  0.00     0.075 A 
HETATM    6  C   UNL     1     -26.831  -6.100 -18.029  1.00  0.00     0.020 A 
ENDROOT
BRANCH   5   7
HETATM    7  C   UNL     1     -25.437  -6.628 -16.016  1.00  0.00     0.325 C 
HETATM    8  O   UNL     1     -24.991  -5.546 -15.542  1.00  0.00    -0.257 OA
BRANCH   7   9
HETATM    9  O   UNL     1     -24.801  -7.738 -16.015  1.00  0.00    -0.144 OA
HETATM   10 NA   UNL     2     -23.037  -8.292 -16.554  1.00  0.00     0.000 Na
ENDBRANCH   7   9
ENDBRANCH   5   7
BRANCH   4  11
HETATM   11  O   UNL     1     -28.034  -7.583 -14.881  1.00  0.00    -0.360 OA
HETATM   12  H   UNL     1     -28.817  -7.158 -14.480  1.00  0.00     0.217 HD
ENDBRANCH   4  11
TORSDOF 3
ENDMDL
