MODEL 1
REMARK VINA RESULT:      -7.1      0.000      0.000
REMARK  12 active torsions:
REMARK  status: ('A' for Active; 'I' for Inactive)
REMARK    1  A    between atoms: C_1  and  C_2 
REMARK    2  A    between atoms: C_1  and  O_23 
REMARK    3  A    between atoms: C_3  and  O_22 
REMARK    4  A    between atoms: C_4  and  O_21 
REMARK    5  A    between atoms: C_5  and  O_20 
REMARK    6  A    between atoms: C_6  and  O_8 
REMARK    7  A    between atoms: O_8  and  C_9 
REMARK    8  A    between atoms: C_10  and  O_19 
REMARK    9  A    between atoms: C_11  and  C_15 
REMARK   10  A    between atoms: C_15  and  C_16 
REMARK   11  A    between atoms: C_15  and  O_18 
REMARK   12  A    between atoms: C_16  and  O_17 
ROOT
HETATM    1  C   UNL     1     -21.895  -4.478 -10.944  1.00  0.00     0.179 C 
HETATM    2  C   UNL     1     -23.224  -4.325 -11.698  1.00  0.00     0.180 C 
HETATM    3  C   UNL     1     -24.037  -3.184 -11.075  1.00  0.00     0.183 C 
HETATM    4  C   UNL     1     -24.293  -3.470  -9.589  1.00  0.00     0.205 C 
HETATM    5  C   UNL     1     -22.965  -3.767  -8.843  1.00  0.00     0.298 C 
HETATM    6  O   UNL     1     -22.135  -4.717  -9.551  1.00  0.00    -0.348 OA
ENDROOT
BRANCH   5   7
HETATM    7  O   UNL     1     -23.220  -4.364  -7.556  1.00  0.00    -0.309 OA
BRANCH   7   8
HETATM    8  C   UNL     1     -22.142  -4.744  -6.813  1.00  0.00     0.179 A 
HETATM    9  C   UNL     1     -22.150  -5.629  -5.818  1.00  0.00     0.115 A 
HETATM   10  C   UNL     1     -20.807  -5.836  -5.239  1.00  0.00     0.222 A 
HETATM   11  O   UNL     1     -19.965  -5.006  -6.065  1.00  0.00    -0.301 OA
HETATM   12  C   UNL     1     -20.740  -4.318  -6.959  1.00  0.00     0.320 A 
HETATM   13  O   UNL     1     -20.329  -3.490  -7.753  1.00  0.00    -0.257 OA
BRANCH   9  14
HETATM   14  O   UNL     1     -23.234  -6.305  -5.332  1.00  0.00    -0.359 OA
HETATM   15  H   UNL     1     -22.903  -7.036  -4.771  1.00  0.00     0.217 HD
ENDBRANCH   9  14
BRANCH  10  16
HETATM   16  C   UNL     1     -20.313  -7.294  -5.259  1.00  0.00     0.177 C 
BRANCH  16  17
HETATM   17  C   UNL     1     -20.353  -7.979  -3.888  1.00  0.00     0.198 C 
BRANCH  17  18
HETATM   18  O   UNL     1     -21.598  -7.707  -3.245  1.00  0.00    -0.398 OA
HETATM   19  H   UNL     1     -21.570  -6.763  -2.996  1.00  0.00     0.209 HD
ENDBRANCH  17  18
ENDBRANCH  16  17
BRANCH  16  20
HETATM   20  O   UNL     1     -21.115  -8.083  -6.164  1.00  0.00    -0.390 OA
HETATM   21  H   UNL     1     -20.515  -8.713  -6.606  1.00  0.00     0.210 HD
ENDBRANCH  16  20
ENDBRANCH  10  16
ENDBRANCH   7   8
ENDBRANCH   5   7
BRANCH   4  22
HETATM   22  O   UNL     1     -25.208  -4.583  -9.455  1.00  0.00    -0.388 OA
HETATM   23  H   UNL     1     -25.103  -4.909  -8.533  1.00  0.00     0.210 HD
ENDBRANCH   4  22
BRANCH   3  24
HETATM   24  O   UNL     1     -25.284  -3.044 -11.764  1.00  0.00    -0.390 OA
HETATM   25  H   UNL     1     -25.526  -3.948 -12.048  1.00  0.00     0.210 HD
ENDBRANCH   3  24
BRANCH   1  26
HETATM   26  C   UNL     1     -20.896  -3.346 -11.216  1.00  0.00     0.198 C 
BRANCH  26  27
HETATM   27  O   UNL     1     -19.681  -3.883 -11.728  1.00  0.00    -0.398 OA
HETATM   28  H   UNL     1     -19.343  -4.536 -11.088  1.00  0.00     0.209 HD
ENDBRANCH  26  27
ENDBRANCH   1  26
BRANCH   2  29
HETATM   29  O   UNL     1     -23.985  -5.550 -11.552  1.00  0.00    -0.390 OA
HETATM   30  H   UNL     1     -24.464  -5.499 -10.704  1.00  0.00     0.210 HD
ENDBRANCH   2  29
TORSDOF 12
ENDMDL
MODEL 2
REMARK VINA RESULT:      -6.3      1.743      6.642
REMARK  12 active torsions:
REMARK  status: ('A' for Active; 'I' for Inactive)
REMARK    1  A    between atoms: C_1  and  C_2 
REMARK    2  A    between atoms: C_1  and  O_23 
REMARK    3  A    between atoms: C_3  and  O_22 
REMARK    4  A    between atoms: C_4  and  O_21 
REMARK    5  A    between atoms: C_5  and  O_20 
REMARK    6  A    between atoms: C_6  and  O_8 
REMARK    7  A    between atoms: O_8  and  C_9 
REMARK    8  A    between atoms: C_10  and  O_19 
REMARK    9  A    between atoms: C_11  and  C_15 
REMARK   10  A    between atoms: C_15  and  C_16 
REMARK   11  A    between atoms: C_15  and  O_18 
REMARK   12  A    between atoms: C_16  and  O_17 
ROOT
HETATM    1  C   UNL     1     -19.919  -4.203  -6.812  1.00  0.00     0.179 C 
HETATM    2  C   UNL     1     -20.158  -5.399  -5.881  1.00  0.00     0.180 C 
HETATM    3  C   UNL     1     -20.900  -6.503  -6.646  1.00  0.00     0.183 C 
HETATM    4  C   UNL     1     -22.233  -5.965  -7.185  1.00  0.00     0.205 C 
HETATM    5  C   UNL     1     -22.017  -4.671  -8.013  1.00  0.00     0.298 C 
HETATM    6  O   UNL     1     -21.163  -3.720  -7.338  1.00  0.00    -0.348 OA
ENDROOT
BRANCH   5   7
HETATM    7  O   UNL     1     -23.266  -3.982  -8.225  1.00  0.00    -0.309 OA
BRANCH   7   8
HETATM    8  C   UNL     1     -23.519  -3.511  -9.479  1.00  0.00     0.179 A 
HETATM    9  C   UNL     1     -22.608  -3.251 -10.415  1.00  0.00     0.115 A 
HETATM   10  C   UNL     1     -23.216  -2.780 -11.676  1.00  0.00     0.222 A 
HETATM   11  O   UNL     1     -24.631  -2.853 -11.403  1.00  0.00    -0.301 OA
HETATM   12  C   UNL     1     -24.823  -3.229 -10.101  1.00  0.00     0.320 A 
HETATM   13  O   UNL     1     -25.906  -3.323  -9.549  1.00  0.00    -0.257 OA
BRANCH   9  14
HETATM   14  O   UNL     1     -21.252  -3.380 -10.298  1.00  0.00    -0.359 OA
HETATM   15  H   UNL     1     -20.969  -4.106 -10.889  1.00  0.00     0.217 HD
ENDBRANCH   9  14
BRANCH  10  16
HETATM   16  C   UNL     1     -22.863  -3.619 -12.917  1.00  0.00     0.177 C 
BRANCH  16  17
HETATM   17  C   UNL     1     -23.284  -2.971 -14.241  1.00  0.00     0.198 C 
BRANCH  17  18
HETATM   18  O   UNL     1     -22.196  -3.000 -15.165  1.00  0.00    -0.398 OA
HETATM   19  H   UNL     1     -22.244  -3.870 -15.608  1.00  0.00     0.209 HD
ENDBRANCH  17  18
ENDBRANCH  16  17
BRANCH  16  20
HETATM   20  O   UNL     1     -21.439  -3.850 -12.978  1.00  0.00    -0.390 OA
HETATM   21  H   UNL     1     -21.027  -3.023 -13.294  1.00  0.00     0.210 HD
ENDBRANCH  16  20
ENDBRANCH  10  16
ENDBRANCH   7   8
ENDBRANCH   5   7
BRANCH   4  22
HETATM   22  O   UNL     1     -23.140  -5.717  -6.085  1.00  0.00    -0.388 OA
HETATM   23  H   UNL     1     -23.925  -5.275  -6.478  1.00  0.00     0.210 HD
ENDBRANCH   4  22
BRANCH   3  24
HETATM   24  O   UNL     1     -21.139  -7.617  -5.780  1.00  0.00    -0.390 OA
HETATM   25  H   UNL     1     -22.000  -7.984  -6.062  1.00  0.00     0.210 HD
ENDBRANCH   3  24
BRANCH   1  26
HETATM   26  C   UNL     1     -18.851  -4.457  -7.885  1.00  0.00     0.198 C 
BRANCH  26  27
HETATM   27  O   UNL     1     -17.564  -4.116  -7.380  1.00  0.00    -0.398 OA
HETATM   28  H   UNL     1     -17.648  -3.292  -6.866  1.00  0.00     0.209 HD
ENDBRANCH  26  27
ENDBRANCH   1  26
BRANCH   2  29
HETATM   29  O   UNL     1     -21.001  -4.971  -4.782  1.00  0.00    -0.390 OA
HETATM   30  H   UNL     1     -20.553  -5.224  -3.954  1.00  0.00     0.210 HD
ENDBRANCH   2  29
TORSDOF 12
ENDMDL
MODEL 3
REMARK VINA RESULT:      -6.3      3.204      9.052
REMARK  12 active torsions:
REMARK  status: ('A' for Active; 'I' for Inactive)
REMARK    1  A    between atoms: C_1  and  C_2 
REMARK    2  A    between atoms: C_1  and  O_23 
REMARK    3  A    between atoms: C_3  and  O_22 
REMARK    4  A    between atoms: C_4  and  O_21 
REMARK    5  A    between atoms: C_5  and  O_20 
REMARK    6  A    between atoms: C_6  and  O_8 
REMARK    7  A    between atoms: O_8  and  C_9 
REMARK    8  A    between atoms: C_10  and  O_19 
REMARK    9  A    between atoms: C_11  and  C_15 
REMARK   10  A    between atoms: C_15  and  C_16 
REMARK   11  A    between atoms: C_15  and  O_18 
REMARK   12  A    between atoms: C_16  and  O_17 
ROOT
HETATM    1  C   UNL     1     -20.660 -10.559  -0.050  1.00  0.00     0.179 C 
HETATM    2  C   UNL     1     -21.676  -9.738   0.757  1.00  0.00     0.180 C 
HETATM    3  C   UNL     1     -22.783  -9.234  -0.176  1.00  0.00     0.183 C 
HETATM    4  C   UNL     1     -22.177  -8.383  -1.301  1.00  0.00     0.205 C 
HETATM    5  C   UNL     1     -21.048  -9.154  -2.035  1.00  0.00     0.298 C 
HETATM    6  O   UNL     1     -20.116  -9.773  -1.118  1.00  0.00    -0.348 OA
ENDROOT
BRANCH   5   7
HETATM    7  O   UNL     1     -20.256  -8.261  -2.843  1.00  0.00    -0.309 OA
BRANCH   7   8
HETATM    8  C   UNL     1     -20.772  -7.877  -4.045  1.00  0.00     0.179 A 
HETATM    9  C   UNL     1     -21.377  -6.718  -4.302  1.00  0.00     0.115 A 
HETATM   10  C   UNL     1     -21.794  -6.603  -5.714  1.00  0.00     0.222 A 
HETATM   11  O   UNL     1     -21.297  -7.823  -6.301  1.00  0.00    -0.301 OA
HETATM   12  C   UNL     1     -20.743  -8.605  -5.324  1.00  0.00     0.320 A 
HETATM   13  O   UNL     1     -20.290  -9.724  -5.493  1.00  0.00    -0.257 OA
BRANCH   9  14
HETATM   14  O   UNL     1     -21.621  -5.708  -3.415  1.00  0.00    -0.359 OA
HETATM   15  H   UNL     1     -22.589  -5.656  -3.280  1.00  0.00     0.217 HD
ENDBRANCH   9  14
BRANCH  10  16
HETATM   16  C   UNL     1     -21.227  -5.378  -6.456  1.00  0.00     0.177 C 
BRANCH  16  17
HETATM   17  C   UNL     1     -22.304  -4.472  -7.065  1.00  0.00     0.198 C 
BRANCH  17  18
HETATM   18  O   UNL     1     -23.583  -4.811  -6.530  1.00  0.00    -0.398 OA
HETATM   19  H   UNL     1     -24.142  -4.018  -6.649  1.00  0.00     0.209 HD
ENDBRANCH  17  18
ENDBRANCH  16  17
BRANCH  16  20
HETATM   20  O   UNL     1     -20.434  -4.571  -5.560  1.00  0.00    -0.390 OA
HETATM   21  H   UNL     1     -20.737  -3.649  -5.658  1.00  0.00     0.210 HD
ENDBRANCH  16  20
ENDBRANCH  10  16
ENDBRANCH   7   8
ENDBRANCH   5   7
BRANCH   4  22
HETATM   22  O   UNL     1     -21.670  -7.142  -0.757  1.00  0.00    -0.388 OA
HETATM   23  H   UNL     1     -21.030  -7.396  -0.056  1.00  0.00     0.210 HD
ENDBRANCH   4  22
BRANCH   3  24
HETATM   24  O   UNL     1     -23.727  -8.456   0.567  1.00  0.00    -0.390 OA
HETATM   25  H   UNL     1     -23.746  -8.855   1.460  1.00  0.00     0.210 HD
ENDBRANCH   3  24
BRANCH   1  26
HETATM   26  C   UNL     1     -21.188 -11.930  -0.496  1.00  0.00     0.198 C 
BRANCH  26  27
HETATM   27  O   UNL     1     -21.172 -12.838   0.600  1.00  0.00    -0.398 OA
HETATM   28  H   UNL     1     -21.064 -12.322   1.420  1.00  0.00     0.209 HD
ENDBRANCH  26  27
ENDBRANCH   1  26
BRANCH   2  29
HETATM   29  O   UNL     1     -21.000  -8.585   1.317  1.00  0.00    -0.390 OA
HETATM   30  H   UNL     1     -21.060  -7.864   0.662  1.00  0.00     0.210 HD
ENDBRANCH   2  29
TORSDOF 12
ENDMDL
MODEL 4
REMARK VINA RESULT:      -6.2      1.737      7.144
REMARK  12 active torsions:
REMARK  status: ('A' for Active; 'I' for Inactive)
REMARK    1  A    between atoms: C_1  and  C_2 
REMARK    2  A    between atoms: C_1  and  O_23 
REMARK    3  A    between atoms: C_3  and  O_22 
REMARK    4  A    between atoms: C_4  and  O_21 
REMARK    5  A    between atoms: C_5  and  O_20 
REMARK    6  A    between atoms: C_6  and  O_8 
REMARK    7  A    between atoms: O_8  and  C_9 
REMARK    8  A    between atoms: C_10  and  O_19 
REMARK    9  A    between atoms: C_11  and  C_15 
REMARK   10  A    between atoms: C_15  and  C_16 
REMARK   11  A    between atoms: C_15  and  O_18 
REMARK   12  A    between atoms: C_16  and  O_17 
ROOT
HETATM    1  C   UNL     1     -20.485  -8.778  -3.888  1.00  0.00     0.179 C 
HETATM    2  C   UNL     1     -20.775  -8.605  -2.391  1.00  0.00     0.180 C 
HETATM    3  C   UNL     1     -22.138  -7.925  -2.209  1.00  0.00     0.183 C 
HETATM    4  C   UNL     1     -22.146  -6.564  -2.918  1.00  0.00     0.205 C 
HETATM    5  C   UNL     1     -21.715  -6.707  -4.402  1.00  0.00     0.298 C 
HETATM    6  O   UNL     1     -20.522  -7.509  -4.555  1.00  0.00    -0.348 OA
ENDROOT
BRANCH   5   7
HETATM    7  O   UNL     1     -21.391  -5.423  -4.970  1.00  0.00    -0.309 OA
BRANCH   7   8
HETATM    8  C   UNL     1     -21.517  -5.282  -6.320  1.00  0.00     0.179 A 
HETATM    9  C   UNL     1     -22.643  -5.010  -6.976  1.00  0.00     0.115 A 
HETATM   10  C   UNL     1     -22.431  -4.894  -8.433  1.00  0.00     0.222 A 
HETATM   11  O   UNL     1     -21.005  -5.064  -8.570  1.00  0.00    -0.301 OA
HETATM   12  C   UNL     1     -20.462  -5.347  -7.346  1.00  0.00     0.320 A 
HETATM   13  O   UNL     1     -19.288  -5.602  -7.140  1.00  0.00    -0.257 OA
BRANCH   9  14
HETATM   14  O   UNL     1     -23.887  -4.845  -6.435  1.00  0.00    -0.359 OA
HETATM   15  H   UNL     1     -24.545  -5.045  -7.131  1.00  0.00     0.217 HD
ENDBRANCH   9  14
BRANCH  10  16
HETATM   16  C   UNL     1     -22.874  -3.552  -9.046  1.00  0.00     0.177 C 
BRANCH  16  17
HETATM   17  C   UNL     1     -22.702  -3.481 -10.567  1.00  0.00     0.198 C 
BRANCH  17  18
HETATM   18  O   UNL     1     -21.318  -3.354 -10.895  1.00  0.00    -0.398 OA
HETATM   19  H   UNL     1     -21.270  -3.387 -11.870  1.00  0.00     0.209 HD
ENDBRANCH  17  18
ENDBRANCH  16  17
BRANCH  16  20
HETATM   20  O   UNL     1     -24.265  -3.302  -8.752  1.00  0.00    -0.390 OA
HETATM   21  H   UNL     1     -24.317  -2.422  -8.332  1.00  0.00     0.210 HD
ENDBRANCH  16  20
ENDBRANCH  10  16
ENDBRANCH   7   8
ENDBRANCH   5   7
BRANCH   4  22
HETATM   22  O   UNL     1     -21.270  -5.645  -2.224  1.00  0.00    -0.388 OA
HETATM   23  H   UNL     1     -21.567  -5.644  -1.288  1.00  0.00     0.210 HD
ENDBRANCH   4  22
BRANCH   3  24
HETATM   24  O   UNL     1     -22.410  -7.748  -0.815  1.00  0.00    -0.390 OA
HETATM   25  H   UNL     1     -22.178  -8.601  -0.395  1.00  0.00     0.210 HD
ENDBRANCH   3  24
BRANCH   1  26
HETATM   26  C   UNL     1     -21.342  -9.858  -4.564  1.00  0.00     0.198 C 
BRANCH  26  27
HETATM   27  O   UNL     1     -20.994  -9.963  -5.940  1.00  0.00    -0.398 OA
HETATM   28  H   UNL     1     -20.780 -10.896  -6.129  1.00  0.00     0.209 HD
ENDBRANCH  26  27
ENDBRANCH   1  26
BRANCH   2  29
HETATM   29  O   UNL     1     -19.763  -7.741  -1.818  1.00  0.00    -0.390 OA
HETATM   30  H   UNL     1     -19.547  -7.061  -2.483  1.00  0.00     0.210 HD
ENDBRANCH   2  29
TORSDOF 12
ENDMDL
MODEL 5
REMARK VINA RESULT:      -6.2      1.543      6.619
REMARK  12 active torsions:
REMARK  status: ('A' for Active; 'I' for Inactive)
REMARK    1  A    between atoms: C_1  and  C_2 
REMARK    2  A    between atoms: C_1  and  O_23 
REMARK    3  A    between atoms: C_3  and  O_22 
REMARK    4  A    between atoms: C_4  and  O_21 
REMARK    5  A    between atoms: C_5  and  O_20 
REMARK    6  A    between atoms: C_6  and  O_8 
REMARK    7  A    between atoms: O_8  and  C_9 
REMARK    8  A    between atoms: C_10  and  O_19 
REMARK    9  A    between atoms: C_11  and  C_15 
REMARK   10  A    between atoms: C_15  and  C_16 
REMARK   11  A    between atoms: C_15  and  O_18 
REMARK   12  A    between atoms: C_16  and  O_17 
ROOT
HETATM    1  C   UNL     1     -19.903  -4.585  -5.863  1.00  0.00     0.179 C 
HETATM    2  C   UNL     1     -20.399  -5.727  -4.965  1.00  0.00     0.180 C 
HETATM    3  C   UNL     1     -20.939  -6.867  -5.838  1.00  0.00     0.183 C 
HETATM    4  C   UNL     1     -22.076  -6.353  -6.732  1.00  0.00     0.205 C 
HETATM    5  C   UNL     1     -21.627  -5.108  -7.542  1.00  0.00     0.298 C 
HETATM    6  O   UNL     1     -20.958  -4.126  -6.718  1.00  0.00    -0.348 OA
ENDROOT
BRANCH   5   7
HETATM    7  O   UNL     1     -22.764  -4.425  -8.107  1.00  0.00    -0.309 OA
BRANCH   7   8
HETATM    8  C   UNL     1     -22.842  -4.351  -9.466  1.00  0.00     0.179 A 
HETATM    9  C   UNL     1     -23.955  -4.189 -10.178  1.00  0.00     0.115 A 
HETATM   10  C   UNL     1     -23.690  -4.120 -11.629  1.00  0.00     0.222 A 
HETATM   11  O   UNL     1     -22.251  -4.192 -11.701  1.00  0.00    -0.301 OA
HETATM   12  C   UNL     1     -21.742  -4.382 -10.445  1.00  0.00     0.320 A 
HETATM   13  O   UNL     1     -20.563  -4.542 -10.181  1.00  0.00    -0.257 OA
BRANCH   9  14
HETATM   14  O   UNL     1     -25.230  -4.092  -9.694  1.00  0.00    -0.359 OA
HETATM   15  H   UNL     1     -25.603  -3.242 -10.003  1.00  0.00     0.217 HD
ENDBRANCH   9  14
BRANCH  10  16
HETATM   16  C   UNL     1     -24.201  -2.841 -12.319  1.00  0.00     0.177 C 
BRANCH  16  17
HETATM   17  C   UNL     1     -23.482  -2.520 -13.634  1.00  0.00     0.198 C 
BRANCH  17  18
HETATM   18  O   UNL     1     -23.610  -3.617 -14.539  1.00  0.00    -0.398 OA
HETATM   19  H   UNL     1     -23.674  -4.417 -13.982  1.00  0.00     0.209 HD
ENDBRANCH  17  18
ENDBRANCH  16  17
BRANCH  16  20
HETATM   20  O   UNL     1     -25.610  -2.956 -12.608  1.00  0.00    -0.390 OA
HETATM   21  H   UNL     1     -26.035  -3.347 -11.821  1.00  0.00     0.210 HD
ENDBRANCH  16  20
ENDBRANCH  10  16
ENDBRANCH   7   8
ENDBRANCH   5   7
BRANCH   4  22
HETATM   22  O   UNL     1     -23.232  -6.039  -5.921  1.00  0.00    -0.388 OA
HETATM   23  H   UNL     1     -23.389  -5.076  -6.037  1.00  0.00     0.210 HD
ENDBRANCH   4  22
BRANCH   3  24
HETATM   24  O   UNL     1     -21.416  -7.930  -5.007  1.00  0.00    -0.390 OA
HETATM   25  H   UNL     1     -22.388  -7.822  -4.980  1.00  0.00     0.210 HD
ENDBRANCH   3  24
BRANCH   1  26
HETATM   26  C   UNL     1     -18.599  -4.905  -6.606  1.00  0.00     0.198 C 
BRANCH  26  27
HETATM   27  O   UNL     1     -18.568  -4.217  -7.852  1.00  0.00    -0.398 OA
HETATM   28  H   UNL     1     -19.427  -4.347  -8.293  1.00  0.00     0.209 HD
ENDBRANCH  26  27
ENDBRANCH   1  26
BRANCH   2  29
HETATM   29  O   UNL     1     -21.489  -5.234  -4.147  1.00  0.00    -0.390 OA
HETATM   30  H   UNL     1     -21.235  -4.351  -3.821  1.00  0.00     0.210 HD
ENDBRANCH   2  29
TORSDOF 12
ENDMDL
MODEL 6
REMARK VINA RESULT:      -6.2      2.099      7.962
REMARK  12 active torsions:
REMARK  status: ('A' for Active; 'I' for Inactive)
REMARK    1  A    between atoms: C_1  and  C_2 
REMARK    2  A    between atoms: C_1  and  O_23 
REMARK    3  A    between atoms: C_3  and  O_22 
REMARK    4  A    between atoms: C_4  and  O_21 
REMARK    5  A    between atoms: C_5  and  O_20 
REMARK    6  A    between atoms: C_6  and  O_8 
REMARK    7  A    between atoms: O_8  and  C_9 
REMARK    8  A    between atoms: C_10  and  O_19 
REMARK    9  A    between atoms: C_11  and  C_15 
REMARK   10  A    between atoms: C_15  and  C_16 
REMARK   11  A    between atoms: C_15  and  O_18 
REMARK   12  A    between atoms: C_16  and  O_17 
ROOT
HETATM    1  C   UNL     1     -21.164  -9.060  -2.114  1.00  0.00     0.179 C 
HETATM    2  C   UNL     1     -19.950  -9.999  -2.074  1.00  0.00     0.180 C 
HETATM    3  C   UNL     1     -18.745  -9.304  -2.720  1.00  0.00     0.183 C 
HETATM    4  C   UNL     1     -19.076  -8.915  -4.168  1.00  0.00     0.205 C 
HETATM    5  C   UNL     1     -20.384  -8.083  -4.236  1.00  0.00     0.298 C 
HETATM    6  O   UNL     1     -21.454  -8.675  -3.465  1.00  0.00    -0.348 OA
ENDROOT
BRANCH   5   7
HETATM    7  O   UNL     1     -20.878  -8.011  -5.588  1.00  0.00    -0.309 OA
BRANCH   7   8
HETATM    8  C   UNL     1     -21.283  -6.793  -6.046  1.00  0.00     0.179 A 
HETATM    9  C   UNL     1     -20.683  -6.075  -6.993  1.00  0.00     0.115 A 
HETATM   10  C   UNL     1     -21.393  -4.811  -7.276  1.00  0.00     0.222 A 
HETATM   11  O   UNL     1     -22.551  -4.890  -6.419  1.00  0.00    -0.301 OA
HETATM   12  C   UNL     1     -22.473  -6.020  -5.651  1.00  0.00     0.320 A 
HETATM   13  O   UNL     1     -23.270  -6.338  -4.785  1.00  0.00    -0.257 OA
BRANCH   9  14
HETATM   14  O   UNL     1     -19.540  -6.401  -7.668  1.00  0.00    -0.359 OA
HETATM   15  H   UNL     1     -19.801  -6.822  -8.512  1.00  0.00     0.217 HD
ENDBRANCH   9  14
BRANCH  10  16
HETATM   16  C   UNL     1     -21.822  -4.626  -8.743  1.00  0.00     0.177 C 
BRANCH  16  17
HETATM   17  C   UNL     1     -22.843  -3.502  -8.951  1.00  0.00     0.198 C 
BRANCH  17  18
HETATM   18  O   UNL     1     -24.102  -3.879  -8.393  1.00  0.00    -0.398 OA
HETATM   19  H   UNL     1     -24.769  -3.312  -8.828  1.00  0.00     0.209 HD
ENDBRANCH  17  18
ENDBRANCH  16  17
BRANCH  16  20
HETATM   20  O   UNL     1     -20.674  -4.330  -9.567  1.00  0.00    -0.390 OA
HETATM   21  H   UNL     1     -20.974  -4.347 -10.496  1.00  0.00     0.210 HD
ENDBRANCH  16  20
ENDBRANCH  10  16
ENDBRANCH   7   8
ENDBRANCH   5   7
BRANCH   4  22
HETATM   22  O   UNL     1     -19.192 -10.107  -4.980  1.00  0.00    -0.388 OA
HETATM   23  H   UNL     1     -18.317 -10.551  -4.933  1.00  0.00     0.210 HD
ENDBRANCH   4  22
BRANCH   3  24
HETATM   24  O   UNL     1     -17.612 -10.178  -2.698  1.00  0.00    -0.390 OA
HETATM   25  H   UNL     1     -17.940 -11.037  -3.031  1.00  0.00     0.210 HD
ENDBRANCH   3  24
BRANCH   1  26
HETATM   26  C   UNL     1     -21.066  -7.879  -1.140  1.00  0.00     0.198 C 
BRANCH  26  27
HETATM   27  O   UNL     1     -22.362  -7.343  -0.894  1.00  0.00    -0.398 OA
HETATM   28  H   UNL     1     -22.893  -7.446  -1.705  1.00  0.00     0.209 HD
ENDBRANCH  26  27
ENDBRANCH   1  26
BRANCH   2  29
HETATM   29  O   UNL     1     -20.253 -11.185  -2.849  1.00  0.00    -0.390 OA
HETATM   30  H   UNL     1     -21.208 -11.171  -3.046  1.00  0.00     0.210 HD
ENDBRANCH   2  29
TORSDOF 12
ENDMDL
MODEL 7
REMARK VINA RESULT:      -6.0      3.172      9.097
REMARK  12 active torsions:
REMARK  status: ('A' for Active; 'I' for Inactive)
REMARK    1  A    between atoms: C_1  and  C_2 
REMARK    2  A    between atoms: C_1  and  O_23 
REMARK    3  A    between atoms: C_3  and  O_22 
REMARK    4  A    between atoms: C_4  and  O_21 
REMARK    5  A    between atoms: C_5  and  O_20 
REMARK    6  A    between atoms: C_6  and  O_8 
REMARK    7  A    between atoms: O_8  and  C_9 
REMARK    8  A    between atoms: C_10  and  O_19 
REMARK    9  A    between atoms: C_11  and  C_15 
REMARK   10  A    between atoms: C_15  and  C_16 
REMARK   11  A    between atoms: C_15  and  O_18 
REMARK   12  A    between atoms: C_16  and  O_17 
ROOT
HETATM    1  C   UNL     1     -21.879  -9.916   0.034  1.00  0.00     0.179 C 
HETATM    2  C   UNL     1     -21.163 -11.268  -0.087  1.00  0.00     0.180 C 
HETATM    3  C   UNL     1     -19.868 -11.091  -0.890  1.00  0.00     0.183 C 
HETATM    4  C   UNL     1     -20.184 -10.524  -2.281  1.00  0.00     0.205 C 
HETATM    5  C   UNL     1     -21.032  -9.229  -2.174  1.00  0.00     0.298 C 
HETATM    6  O   UNL     1     -22.148  -9.373  -1.267  1.00  0.00    -0.348 OA
ENDROOT
BRANCH   5   7
HETATM    7  O   UNL     1     -21.614  -8.889  -3.448  1.00  0.00    -0.309 OA
BRANCH   7   8
HETATM    8  C   UNL     1     -21.313  -7.666  -3.972  1.00  0.00     0.179 A 
HETATM    9  C   UNL     1     -20.591  -7.441  -5.067  1.00  0.00     0.115 A 
HETATM   10  C   UNL     1     -20.476  -6.003  -5.379  1.00  0.00     0.222 A 
HETATM   11  O   UNL     1     -21.287  -5.382  -4.360  1.00  0.00    -0.301 OA
HETATM   12  C   UNL     1     -21.741  -6.341  -3.495  1.00  0.00     0.320 A 
HETATM   13  O   UNL     1     -22.403  -6.127  -2.494  1.00  0.00    -0.257 OA
BRANCH   9  14
HETATM   14  O   UNL     1     -19.993  -8.379  -5.861  1.00  0.00    -0.359 OA
HETATM   15  H   UNL     1     -20.188  -8.151  -6.793  1.00  0.00     0.217 HD
ENDBRANCH   9  14
BRANCH  10  16
HETATM   16  C   UNL     1     -20.974  -5.603  -6.781  1.00  0.00     0.177 C 
BRANCH  16  17
HETATM   17  C   UNL     1     -21.064  -4.088  -6.996  1.00  0.00     0.198 C 
BRANCH  17  18
HETATM   18  O   UNL     1     -22.352  -3.746  -7.507  1.00  0.00    -0.398 OA
HETATM   19  H   UNL     1     -22.714  -4.567  -7.893  1.00  0.00     0.209 HD
ENDBRANCH  17  18
ENDBRANCH  16  17
BRANCH  16  20
HETATM   20  O   UNL     1     -20.095  -6.136  -7.795  1.00  0.00    -0.390 OA
HETATM   21  H   UNL     1     -20.620  -6.224  -8.613  1.00  0.00     0.210 HD
ENDBRANCH  16  20
ENDBRANCH  10  16
ENDBRANCH   7   8
ENDBRANCH   5   7
BRANCH   4  22
HETATM   22  O   UNL     1     -20.878 -11.519  -3.069  1.00  0.00    -0.388 OA
HETATM   23  H   UNL     1     -21.713 -11.094  -3.364  1.00  0.00     0.210 HD
ENDBRANCH   4  22
BRANCH   3  24
HETATM   24  O   UNL     1     -19.200 -12.350  -1.018  1.00  0.00    -0.390 OA
HETATM   25  H   UNL     1     -19.056 -12.470  -1.978  1.00  0.00     0.210 HD
ENDBRANCH   3  24
BRANCH   1  26
HETATM   26  C   UNL     1     -21.186  -8.931   0.984  1.00  0.00     0.198 C 
BRANCH  26  27
HETATM   27  O   UNL     1     -22.073  -7.867   1.314  1.00  0.00    -0.398 OA
HETATM   28  H   UNL     1     -21.757  -7.059   0.870  1.00  0.00     0.209 HD
ENDBRANCH  26  27
ENDBRANCH   1  26
BRANCH   2  29
HETATM   29  O   UNL     1     -22.019 -12.184  -0.814  1.00  0.00    -0.390 OA
HETATM   30  H   UNL     1     -22.928 -12.062  -0.482  1.00  0.00     0.210 HD
ENDBRANCH   2  29
TORSDOF 12
ENDMDL
MODEL 8
REMARK VINA RESULT:      -5.6      3.936      9.264
REMARK  12 active torsions:
REMARK  status: ('A' for Active; 'I' for Inactive)
REMARK    1  A    between atoms: C_1  and  C_2 
REMARK    2  A    between atoms: C_1  and  O_23 
REMARK    3  A    between atoms: C_3  and  O_22 
REMARK    4  A    between atoms: C_4  and  O_21 
REMARK    5  A    between atoms: C_5  and  O_20 
REMARK    6  A    between atoms: C_6  and  O_8 
REMARK    7  A    between atoms: O_8  and  C_9 
REMARK    8  A    between atoms: C_10  and  O_19 
REMARK    9  A    between atoms: C_11  and  C_15 
REMARK   10  A    between atoms: C_15  and  C_16 
REMARK   11  A    between atoms: C_15  and  O_18 
REMARK   12  A    between atoms: C_16  and  O_17 
ROOT
HETATM    1  C   UNL     1     -20.362 -12.263  -0.806  1.00  0.00     0.179 C 
HETATM    2  C   UNL     1     -21.836 -12.500  -0.451  1.00  0.00     0.180 C 
HETATM    3  C   UNL     1     -22.730 -11.790  -1.476  1.00  0.00     0.183 C 
HETATM    4  C   UNL     1     -22.416 -10.288  -1.496  1.00  0.00     0.205 C 
HETATM    5  C   UNL     1     -20.901 -10.038  -1.713  1.00  0.00     0.298 C 
HETATM    6  O   UNL     1     -20.077 -10.858  -0.853  1.00  0.00    -0.348 OA
ENDROOT
BRANCH   5   7
HETATM    7  O   UNL     1     -20.552  -8.676  -1.393  1.00  0.00    -0.309 OA
BRANCH   7   8
HETATM    8  C   UNL     1     -20.991  -7.700  -2.237  1.00  0.00     0.179 A 
HETATM    9  C   UNL     1     -20.577  -7.502  -3.487  1.00  0.00     0.115 A 
HETATM   10  C   UNL     1     -21.274  -6.376  -4.139  1.00  0.00     0.222 A 
HETATM   11  O   UNL     1     -22.224  -5.957  -3.137  1.00  0.00    -0.301 OA
HETATM   12  C   UNL     1     -22.034  -6.688  -1.997  1.00  0.00     0.320 A 
HETATM   13  O   UNL     1     -22.640  -6.530  -0.951  1.00  0.00    -0.257 OA
BRANCH   9  14
HETATM   14  O   UNL     1     -19.620  -8.214  -4.155  1.00  0.00    -0.359 OA
HETATM   15  H   UNL     1     -18.751  -7.818  -3.943  1.00  0.00     0.217 HD
ENDBRANCH   9  14
BRANCH  10  16
HETATM   16  C   UNL     1     -21.998  -6.736  -5.450  1.00  0.00     0.177 C 
BRANCH  16  17
HETATM   17  C   UNL     1     -22.727  -5.554  -6.098  1.00  0.00     0.198 C 
BRANCH  17  18
HETATM   18  O   UNL     1     -24.095  -5.541  -5.689  1.00  0.00    -0.398 OA
HETATM   19  H   UNL     1     -24.088  -5.725  -4.729  1.00  0.00     0.209 HD
ENDBRANCH  17  18
ENDBRANCH  16  17
BRANCH  16  20
HETATM   20  O   UNL     1     -21.058  -7.252  -6.416  1.00  0.00    -0.390 OA
HETATM   21  H   UNL     1     -20.477  -6.513  -6.676  1.00  0.00     0.210 HD
ENDBRANCH  16  20
ENDBRANCH  10  16
ENDBRANCH   7   8
ENDBRANCH   5   7
BRANCH   4  22
HETATM   22  O   UNL     1     -22.857  -9.679  -0.259  1.00  0.00    -0.388 OA
HETATM   23  H   UNL     1     -23.493  -8.976  -0.516  1.00  0.00     0.210 HD
ENDBRANCH   4  22
BRANCH   3  24
HETATM   24  O   UNL     1     -24.107 -11.996  -1.144  1.00  0.00    -0.390 OA
HETATM   25  H   UNL     1     -24.613 -11.597  -1.880  1.00  0.00     0.210 HD
ENDBRANCH   3  24
BRANCH   1  26
HETATM   26  C   UNL     1     -19.893 -13.031  -2.050  1.00  0.00     0.198 C 
BRANCH  26  27
HETATM   27  O   UNL     1     -18.663 -12.492  -2.520  1.00  0.00    -0.398 OA
HETATM   28  H   UNL     1     -18.680 -12.499  -3.494  1.00  0.00     0.209 HD
ENDBRANCH  26  27
ENDBRANCH   1  26
BRANCH   2  29
HETATM   29  O   UNL     1     -22.099 -11.922   0.851  1.00  0.00    -0.390 OA
HETATM   30  H   UNL     1     -22.232 -10.964   0.725  1.00  0.00     0.210 HD
ENDBRANCH   2  29
TORSDOF 12
ENDMDL
MODEL 9
REMARK VINA RESULT:      -5.4     18.104     20.518
REMARK  12 active torsions:
REMARK  status: ('A' for Active; 'I' for Inactive)
REMARK    1  A    between atoms: C_1  and  C_2 
REMARK    2  A    between atoms: C_1  and  O_23 
REMARK    3  A    between atoms: C_3  and  O_22 
REMARK    4  A    between atoms: C_4  and  O_21 
REMARK    5  A    between atoms: C_5  and  O_20 
REMARK    6  A    between atoms: C_6  and  O_8 
REMARK    7  A    between atoms: O_8  and  C_9 
REMARK    8  A    between atoms: C_10  and  O_19 
REMARK    9  A    between atoms: C_11  and  C_15 
REMARK   10  A    between atoms: C_15  and  C_16 
REMARK   11  A    between atoms: C_15  and  O_18 
REMARK   12  A    between atoms: C_16  and  O_17 
ROOT
HETATM    1  C   UNL     1     -11.234   8.423 -22.322  1.00  0.00     0.179 C 
HETATM    2  C   UNL     1     -12.301   9.503 -22.094  1.00  0.00     0.180 C 
HETATM    3  C   UNL     1     -12.002  10.250 -20.788  1.00  0.00     0.183 C 
HETATM    4  C   UNL     1     -11.975   9.264 -19.612  1.00  0.00     0.205 C 
HETATM    5  C   UNL     1     -11.002   8.088 -19.893  1.00  0.00     0.298 C 
HETATM    6  O   UNL     1     -11.190   7.519 -21.209  1.00  0.00    -0.348 OA
ENDROOT
BRANCH   5   7
HETATM    7  O   UNL     1     -11.225   7.004 -18.970  1.00  0.00    -0.309 OA
BRANCH   7   8
HETATM    8  C   UNL     1     -11.343   5.749 -19.490  1.00  0.00     0.179 A 
HETATM    9  C   UNL     1     -12.396   5.274 -20.153  1.00  0.00     0.115 A 
HETATM   10  C   UNL     1     -12.192   3.884 -20.609  1.00  0.00     0.222 A 
HETATM   11  O   UNL     1     -10.841   3.599 -20.193  1.00  0.00    -0.301 OA
HETATM   12  C   UNL     1     -10.348   4.664 -19.488  1.00  0.00     0.320 A 
HETATM   13  O   UNL     1      -9.254   4.706 -18.952  1.00  0.00    -0.257 OA
BRANCH   9  14
HETATM   14  O   UNL     1     -13.563   5.933 -20.419  1.00  0.00    -0.359 OA
HETATM   15  H   UNL     1     -14.289   5.278 -20.394  1.00  0.00     0.217 HD
ENDBRANCH   9  14
BRANCH  10  16
HETATM   16  C   UNL     1     -12.344   3.674 -22.127  1.00  0.00     0.177 C 
BRANCH  16  17
HETATM   17  C   UNL     1     -13.708   3.110 -22.540  1.00  0.00     0.198 C 
BRANCH  17  18
HETATM   18  O   UNL     1     -14.062   2.021 -21.688  1.00  0.00    -0.398 OA
HETATM   19  H   UNL     1     -13.536   2.137 -20.873  1.00  0.00     0.209 HD
ENDBRANCH  17  18
ENDBRANCH  16  17
BRANCH  16  20
HETATM   20  O   UNL     1     -12.157   4.922 -22.828  1.00  0.00    -0.390 OA
HETATM   21  H   UNL     1     -12.229   5.637 -22.167  1.00  0.00     0.210 HD
ENDBRANCH  16  20
ENDBRANCH  10  16
ENDBRANCH   7   8
ENDBRANCH   5   7
BRANCH   4  22
HETATM   22  O   UNL     1     -13.310   8.766 -19.360  1.00  0.00    -0.388 OA
HETATM   23  H   UNL     1     -13.515   8.156 -20.102  1.00  0.00     0.210 HD
ENDBRANCH   4  22
BRANCH   3  24
HETATM   24  O   UNL     1     -13.000  11.250 -20.561  1.00  0.00    -0.390 OA
HETATM   25  H   UNL     1     -13.103  11.711 -21.418  1.00  0.00     0.210 HD
ENDBRANCH   3  24
BRANCH   1  26
HETATM   26  C   UNL     1      -9.862   8.983 -22.720  1.00  0.00     0.198 C 
BRANCH  26  27
HETATM   27  O   UNL     1      -9.945  10.393 -22.899  1.00  0.00    -0.398 OA
HETATM   28  H   UNL     1      -9.121  10.695 -23.322  1.00  0.00     0.209 HD
ENDBRANCH  26  27
ENDBRANCH   1  26
BRANCH   2  29
HETATM   29  O   UNL     1     -13.592   8.859 -21.956  1.00  0.00    -0.390 OA
HETATM   30  H   UNL     1     -13.531   7.984 -22.384  1.00  0.00     0.210 HD
ENDBRANCH   2  29
TORSDOF 12
ENDMDL
