MODEL 1
REMARK VINA RESULT:      -8.2      0.000      0.000
REMARK  2 active torsions:
REMARK  status: ('A' for Active; 'I' for Inactive)
REMARK    1  A    between atoms: C_5  and  O_8 
REMARK    2  A    between atoms: C_13  and  O_32 
ROOT
HETATM    1  C   UNL     1     -21.096 -13.721  -3.301  1.00  0.00     0.036 A 
HETATM    2  C   UNL     1     -21.250 -12.380  -2.894  1.00  0.00     0.023 A 
HETATM    3  C   UNL     1     -21.662 -12.108  -1.585  1.00  0.00     0.106 A 
HETATM    4  C   UNL     1     -21.875 -13.172  -0.688  1.00  0.00     0.080 A 
HETATM    5  C   UNL     1     -21.688 -14.500  -1.098  1.00  0.00     0.103 A 
HETATM    6  C   UNL     1     -21.303 -14.772  -2.409  1.00  0.00     0.046 A 
HETATM    7 BR   UNL     1     -21.013 -16.540  -3.029  1.00  0.00    -0.048 Br
HETATM    8 BR   UNL     1     -22.391 -12.828   1.113  1.00  0.00    -0.045 Br
HETATM    9  O   UNL     1     -21.853 -10.827  -1.120  1.00  0.00    -0.306 OA
HETATM   10  C   UNL     1     -21.701  -9.747  -1.961  1.00  0.00     0.106 A 
HETATM   11  C   UNL     1     -21.971  -8.467  -1.441  1.00  0.00     0.080 A 
HETATM   12  C   UNL     1     -21.811  -7.324  -2.238  1.00  0.00     0.103 A 
HETATM   13  C   UNL     1     -21.392  -7.457  -3.558  1.00  0.00     0.046 A 
HETATM   14  C   UNL     1     -21.133  -8.723  -4.081  1.00  0.00     0.036 A 
HETATM   15  C   UNL     1     -21.269  -9.880  -3.284  1.00  0.00     0.023 A 
HETATM   16  C   UNL     1     -20.913 -11.242  -3.830  1.00  0.00     0.161 A 
HETATM   17  C   UNL     1     -19.503 -11.320  -4.340  1.00  0.00     0.028 A 
HETATM   18  C   UNL     1     -19.530 -11.555  -5.708  1.00  0.00     0.074 A 
HETATM   19  C   UNL     1     -18.370 -11.709  -6.455  1.00  0.00     0.074 A 
HETATM   20  C   UNL     1     -17.136 -11.610  -5.785  1.00  0.00     0.080 A 
HETATM   21  C   UNL     1     -17.096 -11.356  -4.391  1.00  0.00     0.080 A 
HETATM   22  C   UNL     1     -18.292 -11.212  -3.664  1.00  0.00     0.068 A 
HETATM   23 CL   UNL     1     -18.286 -10.912  -1.961  1.00  0.00    -0.082 Cl
HETATM   24 CL   UNL     1     -15.569 -11.226  -3.568  1.00  0.00    -0.081 Cl
HETATM   25 CL   UNL     1     -15.654 -11.808  -6.674  1.00  0.00    -0.081 Cl
HETATM   26 CL   UNL     1     -18.455 -12.024  -8.152  1.00  0.00    -0.081 Cl
HETATM   27  C   UNL     1     -20.926 -11.610  -6.138  1.00  0.00     0.297 A 
HETATM   28  O   UNL     1     -21.351 -11.773  -7.262  1.00  0.00    -0.259 OA
HETATM   29  O   UNL     1     -21.696 -11.434  -5.030  1.00  0.00    -0.291 OA
HETATM   30 BR   UNL     1     -21.131  -5.956  -4.688  1.00  0.00    -0.048 Br
HETATM   31 BR   UNL     1     -22.545  -8.260   0.365  1.00  0.00    -0.045 Br
ENDROOT
BRANCH   5  32
HETATM   32  O   UNL     1     -21.869 -15.546  -0.233  1.00  0.00    -0.358 OA
HETATM   33  H   UNL     1     -22.604 -16.092  -0.558  1.00  0.00     0.217 HD
ENDBRANCH   5  32
BRANCH  12  34
HETATM   34  O   UNL     1     -22.054  -6.069  -1.745  1.00  0.00    -0.358 OA
HETATM   35  H   UNL     1     -22.695  -5.626  -2.329  1.00  0.00     0.217 HD
ENDBRANCH  12  34
TORSDOF 2
ENDMDL
MODEL 2
REMARK VINA RESULT:      -7.6      2.731      5.665
REMARK  2 active torsions:
REMARK  status: ('A' for Active; 'I' for Inactive)
REMARK    1  A    between atoms: C_5  and  O_8 
REMARK    2  A    between atoms: C_13  and  O_32 
ROOT
HETATM    1  C   UNL     1     -19.470  -8.358  -5.060  1.00  0.00     0.036 A 
HETATM    2  C   UNL     1     -19.429  -9.218  -3.943  1.00  0.00     0.023 A 
HETATM    3  C   UNL     1     -20.202  -8.910  -2.819  1.00  0.00     0.106 A 
HETATM    4  C   UNL     1     -21.037  -7.776  -2.837  1.00  0.00     0.080 A 
HETATM    5  C   UNL     1     -21.089  -6.948  -3.967  1.00  0.00     0.103 A 
HETATM    6  C   UNL     1     -20.299  -7.239  -5.077  1.00  0.00     0.046 A 
HETATM    7 BR   UNL     1     -20.333  -6.176  -6.646  1.00  0.00    -0.048 Br
HETATM    8 BR   UNL     1     -22.135  -7.361  -1.337  1.00  0.00    -0.045 Br
HETATM    9  O   UNL     1     -20.202  -9.689  -1.684  1.00  0.00    -0.306 OA
HETATM   10  C   UNL     1     -19.377 -10.788  -1.589  1.00  0.00     0.106 A 
HETATM   11  C   UNL     1     -19.377 -11.506  -0.379  1.00  0.00     0.080 A 
HETATM   12  C   UNL     1     -18.578 -12.649  -0.227  1.00  0.00     0.103 A 
HETATM   13  C   UNL     1     -17.769 -13.071  -1.279  1.00  0.00     0.046 A 
HETATM   14  C   UNL     1     -17.758 -12.357  -2.475  1.00  0.00     0.036 A 
HETATM   15  C   UNL     1     -18.573 -11.218  -2.650  1.00  0.00     0.023 A 
HETATM   16  C   UNL     1     -18.616 -10.492  -3.974  1.00  0.00     0.161 A 
HETATM   17  C   UNL     1     -18.995 -11.384  -5.120  1.00  0.00     0.028 A 
HETATM   18  C   UNL     1     -17.926 -11.468  -6.000  1.00  0.00     0.074 A 
HETATM   19  C   UNL     1     -17.992 -12.201  -7.177  1.00  0.00     0.074 A 
HETATM   20  C   UNL     1     -19.191 -12.880  -7.465  1.00  0.00     0.080 A 
HETATM   21  C   UNL     1     -20.285 -12.814  -6.566  1.00  0.00     0.080 A 
HETATM   22  C   UNL     1     -20.184 -12.056  -5.385  1.00  0.00     0.068 A 
HETATM   23 CL   UNL     1     -21.500 -11.941  -4.269  1.00  0.00    -0.082 Cl
HETATM   24 CL   UNL     1     -21.762 -13.662  -6.920  1.00  0.00    -0.081 Cl
HETATM   25 CL   UNL     1     -19.329 -13.801  -8.934  1.00  0.00    -0.081 Cl
HETATM   26 CL   UNL     1     -16.641 -12.255  -8.254  1.00  0.00    -0.081 Cl
HETATM   27  C   UNL     1     -16.823 -10.675  -5.461  1.00  0.00     0.297 A 
HETATM   28  O   UNL     1     -15.715 -10.525  -5.932  1.00  0.00    -0.259 OA
HETATM   29  O   UNL     1     -17.257 -10.120  -4.296  1.00  0.00    -0.291 OA
HETATM   30 BR   UNL     1     -16.682 -14.620  -1.155  1.00  0.00    -0.048 Br
HETATM   31 BR   UNL     1     -20.476 -10.950   1.075  1.00  0.00    -0.045 Br
ENDROOT
BRANCH   5  32
HETATM   32  O   UNL     1     -21.911  -5.852  -4.011  1.00  0.00    -0.358 OA
HETATM   33  H   UNL     1     -22.741  -6.105  -4.450  1.00  0.00     0.217 HD
ENDBRANCH   5  32
BRANCH  12  34
HETATM   34  O   UNL     1     -18.577 -13.371   0.937  1.00  0.00    -0.358 OA
HETATM   35  H   UNL     1     -19.364 -13.125   1.455  1.00  0.00     0.217 HD
ENDBRANCH  12  34
TORSDOF 2
ENDMDL
MODEL 3
REMARK VINA RESULT:      -7.4      2.187      5.612
REMARK  2 active torsions:
REMARK  status: ('A' for Active; 'I' for Inactive)
REMARK    1  A    between atoms: C_5  and  O_8 
REMARK    2  A    between atoms: C_13  and  O_32 
ROOT
HETATM    1  C   UNL     1     -20.001  -8.561  -2.731  1.00  0.00     0.036 A 
HETATM    2  C   UNL     1     -20.143  -9.784  -2.042  1.00  0.00     0.023 A 
HETATM    3  C   UNL     1     -21.160  -9.915  -1.091  1.00  0.00     0.106 A 
HETATM    4  C   UNL     1     -22.048  -8.845  -0.868  1.00  0.00     0.080 A 
HETATM    5  C   UNL     1     -21.913  -7.646  -1.584  1.00  0.00     0.103 A 
HETATM    6  C   UNL     1     -20.884  -7.505  -2.511  1.00  0.00     0.046 A 
HETATM    7 BR   UNL     1     -20.653  -5.921  -3.528  1.00  0.00    -0.048 Br
HETATM    8 BR   UNL     1     -23.470  -9.016   0.387  1.00  0.00    -0.045 Br
HETATM    9  O   UNL     1     -21.349 -11.069  -0.366  1.00  0.00    -0.306 OA
HETATM   10  C   UNL     1     -20.489 -12.136  -0.508  1.00  0.00     0.106 A 
HETATM   11  C   UNL     1     -20.700 -13.262   0.308  1.00  0.00     0.080 A 
HETATM   12  C   UNL     1     -19.875 -14.391   0.194  1.00  0.00     0.103 A 
HETATM   13  C   UNL     1     -18.831 -14.393  -0.726  1.00  0.00     0.046 A 
HETATM   14  C   UNL     1     -18.612 -13.275  -1.530  1.00  0.00     0.036 A 
HETATM   15  C   UNL     1     -19.448 -12.141  -1.441  1.00  0.00     0.023 A 
HETATM   16  C   UNL     1     -19.256 -10.963  -2.367  1.00  0.00     0.161 A 
HETATM   17  C   UNL     1     -19.315 -11.342  -3.818  1.00  0.00     0.028 A 
HETATM   18  C   UNL     1     -18.078 -11.102  -4.399  1.00  0.00     0.074 A 
HETATM   19  C   UNL     1     -17.837 -11.326  -5.747  1.00  0.00     0.074 A 
HETATM   20  C   UNL     1     -18.896 -11.822  -6.532  1.00  0.00     0.080 A 
HETATM   21  C   UNL     1     -20.159 -12.084  -5.948  1.00  0.00     0.080 A 
HETATM   22  C   UNL     1     -20.369 -11.838  -4.578  1.00  0.00     0.068 A 
HETATM   23 CL   UNL     1     -21.899 -12.135  -3.829  1.00  0.00    -0.082 Cl
HETATM   24 CL   UNL     1     -21.463 -12.705  -6.919  1.00  0.00    -0.081 Cl
HETATM   25 CL   UNL     1     -18.648 -12.107  -8.230  1.00  0.00    -0.081 Cl
HETATM   26 CL   UNL     1     -16.285 -10.989  -6.430  1.00  0.00    -0.081 Cl
HETATM   27  C   UNL     1     -17.175 -10.596  -3.366  1.00  0.00     0.297 A 
HETATM   28  O   UNL     1     -16.005 -10.298  -3.482  1.00  0.00    -0.259 OA
HETATM   29  O   UNL     1     -17.888 -10.521  -2.209  1.00  0.00    -0.291 OA
HETATM   30 BR   UNL     1     -17.690 -15.891  -0.954  1.00  0.00    -0.048 Br
HETATM   31 BR   UNL     1     -22.123 -13.285   1.576  1.00  0.00    -0.045 Br
ENDROOT
BRANCH   5  32
HETATM   32  O   UNL     1     -22.781  -6.603  -1.395  1.00  0.00    -0.358 OA
HETATM   33  H   UNL     1     -23.220  -6.717  -0.536  1.00  0.00     0.217 HD
ENDBRANCH   5  32
BRANCH  12  34
HETATM   34  O   UNL     1     -20.075 -15.504   0.968  1.00  0.00    -0.358 OA
HETATM   35  H   UNL     1     -19.338 -15.577   1.601  1.00  0.00     0.217 HD
ENDBRANCH  12  34
TORSDOF 2
ENDMDL
MODEL 4
REMARK VINA RESULT:      -7.2      3.880      5.990
REMARK  2 active torsions:
REMARK  status: ('A' for Active; 'I' for Inactive)
REMARK    1  A    between atoms: C_5  and  O_8 
REMARK    2  A    between atoms: C_13  and  O_32 
ROOT
HETATM    1  C   UNL     1     -18.101 -12.949  -0.112  1.00  0.00     0.036 A 
HETATM    2  C   UNL     1     -18.107 -12.185  -1.298  1.00  0.00     0.023 A 
HETATM    3  C   UNL     1     -16.976 -12.195  -2.120  1.00  0.00     0.106 A 
HETATM    4  C   UNL     1     -15.871 -12.997  -1.774  1.00  0.00     0.080 A 
HETATM    5  C   UNL     1     -15.892 -13.775  -0.607  1.00  0.00     0.103 A 
HETATM    6  C   UNL     1     -17.008 -13.744   0.225  1.00  0.00     0.046 A 
HETATM    7 BR   UNL     1     -17.115 -14.783   1.808  1.00  0.00    -0.048 Br
HETATM    8 BR   UNL     1     -14.336 -13.065  -2.900  1.00  0.00    -0.045 Br
HETATM    9  O   UNL     1     -16.899 -11.462  -3.282  1.00  0.00    -0.306 OA
HETATM   10  C   UNL     1     -17.930 -10.628  -3.654  1.00  0.00     0.106 A 
HETATM   11  C   UNL     1     -17.763  -9.858  -4.820  1.00  0.00     0.080 A 
HETATM   12  C   UNL     1     -18.785  -9.007  -5.267  1.00  0.00     0.103 A 
HETATM   13  C   UNL     1     -19.971  -8.915  -4.544  1.00  0.00     0.046 A 
HETATM   14  C   UNL     1     -20.136  -9.668  -3.382  1.00  0.00     0.036 A 
HETATM   15  C   UNL     1     -19.125 -10.544  -2.933  1.00  0.00     0.023 A 
HETATM   16  C   UNL     1     -19.339 -11.416  -1.719  1.00  0.00     0.161 A 
HETATM   17  C   UNL     1     -20.551 -12.293  -1.832  1.00  0.00     0.028 A 
HETATM   18  C   UNL     1     -21.468 -11.925  -0.858  1.00  0.00     0.074 A 
HETATM   19  C   UNL     1     -22.679 -12.583  -0.695  1.00  0.00     0.074 A 
HETATM   20  C   UNL     1     -22.970 -13.653  -1.563  1.00  0.00     0.080 A 
HETATM   21  C   UNL     1     -22.048 -14.029  -2.570  1.00  0.00     0.080 A 
HETATM   22  C   UNL     1     -20.827 -13.343  -2.702  1.00  0.00     0.068 A 
HETATM   23 CL   UNL     1     -19.670 -13.778  -3.912  1.00  0.00    -0.082 Cl
HETATM   24 CL   UNL     1     -22.415 -15.345  -3.648  1.00  0.00    -0.081 Cl
HETATM   25 CL   UNL     1     -24.469 -14.518  -1.391  1.00  0.00    -0.081 Cl
HETATM   26 CL   UNL     1     -23.779 -12.103   0.549  1.00  0.00    -0.081 Cl
HETATM   27  C   UNL     1     -20.915 -10.799  -0.107  1.00  0.00     0.297 A 
HETATM   28  O   UNL     1     -21.432 -10.188   0.804  1.00  0.00    -0.259 OA
HETATM   29  O   UNL     1     -19.683 -10.537  -0.624  1.00  0.00    -0.291 OA
HETATM   30 BR   UNL     1     -21.406  -7.806  -5.098  1.00  0.00    -0.048 Br
HETATM   31 BR   UNL     1     -16.149  -9.967  -5.828  1.00  0.00    -0.045 Br
ENDROOT
BRANCH   5  32
HETATM   32  O   UNL     1     -14.835 -14.577  -0.266  1.00  0.00    -0.358 OA
HETATM   33  H   UNL     1     -14.462 -14.256   0.572  1.00  0.00     0.217 HD
ENDBRANCH   5  32
BRANCH  12  34
HETATM   34  O   UNL     1     -18.649  -8.262  -6.408  1.00  0.00    -0.358 OA
HETATM   35  H   UNL     1     -18.799  -8.843  -7.176  1.00  0.00     0.217 HD
ENDBRANCH  12  34
TORSDOF 2
ENDMDL
MODEL 5
REMARK VINA RESULT:      -6.8      3.032      5.844
REMARK  2 active torsions:
REMARK  status: ('A' for Active; 'I' for Inactive)
REMARK    1  A    between atoms: C_5  and  O_8 
REMARK    2  A    between atoms: C_13  and  O_32 
ROOT
HETATM    1  C   UNL     1     -17.648 -11.972  -3.292  1.00  0.00     0.036 A 
HETATM    2  C   UNL     1     -18.546 -10.891  -3.168  1.00  0.00     0.023 A 
HETATM    3  C   UNL     1     -18.584  -9.919  -4.173  1.00  0.00     0.106 A 
HETATM    4  C   UNL     1     -17.759 -10.056  -5.306  1.00  0.00     0.080 A 
HETATM    5  C   UNL     1     -16.893 -11.152  -5.429  1.00  0.00     0.103 A 
HETATM    6  C   UNL     1     -16.836 -12.106  -4.417  1.00  0.00     0.046 A 
HETATM    7 BR   UNL     1     -15.704 -13.624  -4.523  1.00  0.00    -0.048 Br
HETATM    8 BR   UNL     1     -17.825  -8.770  -6.710  1.00  0.00    -0.045 Br
HETATM    9  O   UNL     1     -19.419  -8.826  -4.114  1.00  0.00    -0.306 OA
HETATM   10  C   UNL     1     -20.220  -8.615  -3.013  1.00  0.00     0.106 A 
HETATM   11  C   UNL     1     -21.003  -7.446  -2.987  1.00  0.00     0.080 A 
HETATM   12  C   UNL     1     -21.859  -7.184  -1.907  1.00  0.00     0.103 A 
HETATM   13  C   UNL     1     -21.925  -8.082  -0.845  1.00  0.00     0.046 A 
HETATM   14  C   UNL     1     -21.142  -9.236  -0.862  1.00  0.00     0.036 A 
HETATM   15  C   UNL     1     -20.293  -9.523  -1.953  1.00  0.00     0.023 A 
HETATM   16  C   UNL     1     -19.506 -10.811  -2.003  1.00  0.00     0.161 A 
HETATM   17  C   UNL     1     -20.371 -12.032  -1.889  1.00  0.00     0.028 A 
HETATM   18  C   UNL     1     -20.052 -12.704  -0.718  1.00  0.00     0.074 A 
HETATM   19  C   UNL     1     -20.667 -13.895  -0.357  1.00  0.00     0.074 A 
HETATM   20  C   UNL     1     -21.652 -14.416  -1.218  1.00  0.00     0.080 A 
HETATM   21  C   UNL     1     -21.996 -13.731  -2.409  1.00  0.00     0.080 A 
HETATM   22  C   UNL     1     -21.347 -12.530  -2.747  1.00  0.00     0.068 A 
HETATM   23 CL   UNL     1     -21.731 -11.669  -4.197  1.00  0.00    -0.082 Cl
HETATM   24 CL   UNL     1     -23.220 -14.373  -3.466  1.00  0.00    -0.081 Cl
HETATM   25 CL   UNL     1     -22.443 -15.912  -0.816  1.00  0.00    -0.081 Cl
HETATM   26 CL   UNL     1     -20.218 -14.708   1.101  1.00  0.00    -0.081 Cl
HETATM   27  C   UNL     1     -19.010 -11.950  -0.024  1.00  0.00     0.297 A 
HETATM   28  O   UNL     1     -18.491 -12.206   1.042  1.00  0.00    -0.259 OA
HETATM   29  O   UNL     1     -18.713 -10.868  -0.796  1.00  0.00    -0.291 OA
HETATM   30 BR   UNL     1     -23.075  -7.808   0.638  1.00  0.00    -0.048 Br
HETATM   31 BR   UNL     1     -20.932  -6.202  -4.429  1.00  0.00    -0.045 Br
ENDROOT
BRANCH   5  32
HETATM   32  O   UNL     1     -16.099 -11.313  -6.534  1.00  0.00    -0.358 OA
HETATM   33  H   UNL     1     -15.514 -10.541  -6.609  1.00  0.00     0.217 HD
ENDBRANCH   5  32
BRANCH  12  34
HETATM   34  O   UNL     1     -22.642  -6.061  -1.870  1.00  0.00    -0.358 OA
HETATM   35  H   UNL     1     -23.575  -6.336  -1.813  1.00  0.00     0.217 HD
ENDBRANCH  12  34
TORSDOF 2
ENDMDL
MODEL 6
REMARK VINA RESULT:      -6.8      3.825      6.905
REMARK  2 active torsions:
REMARK  status: ('A' for Active; 'I' for Inactive)
REMARK    1  A    between atoms: C_5  and  O_8 
REMARK    2  A    between atoms: C_13  and  O_32 
ROOT
HETATM    1  C   UNL     1     -20.573 -12.913  -4.526  1.00  0.00     0.036 A 
HETATM    2  C   UNL     1     -19.343 -12.941  -3.835  1.00  0.00     0.023 A 
HETATM    3  C   UNL     1     -18.151 -12.901  -4.566  1.00  0.00     0.106 A 
HETATM    4  C   UNL     1     -18.197 -12.791  -5.969  1.00  0.00     0.080 A 
HETATM    5  C   UNL     1     -19.428 -12.733  -6.639  1.00  0.00     0.103 A 
HETATM    6  C   UNL     1     -20.615 -12.800  -5.914  1.00  0.00     0.046 A 
HETATM    7 BR   UNL     1     -22.315 -12.708  -6.750  1.00  0.00    -0.048 Br
HETATM    8 BR   UNL     1     -16.589 -12.687  -6.984  1.00  0.00    -0.045 Br
HETATM    9  O   UNL     1     -16.914 -12.944  -3.966  1.00  0.00    -0.306 OA
HETATM   10  C   UNL     1     -16.802 -13.092  -2.601  1.00  0.00     0.106 A 
HETATM   11  C   UNL     1     -15.508 -13.193  -2.055  1.00  0.00     0.080 A 
HETATM   12  C   UNL     1     -15.325 -13.320  -0.670  1.00  0.00     0.103 A 
HETATM   13  C   UNL     1     -16.433 -13.360   0.171  1.00  0.00     0.046 A 
HETATM   14  C   UNL     1     -17.716 -13.271  -0.365  1.00  0.00     0.036 A 
HETATM   15  C   UNL     1     -17.915 -13.121  -1.755  1.00  0.00     0.023 A 
HETATM   16  C   UNL     1     -19.302 -12.947  -2.324  1.00  0.00     0.161 A 
HETATM   17  C   UNL     1     -20.041 -11.785  -1.728  1.00  0.00     0.028 A 
HETATM   18  C   UNL     1     -21.146 -12.259  -1.036  1.00  0.00     0.074 A 
HETATM   19  C   UNL     1     -22.043 -11.410  -0.402  1.00  0.00     0.074 A 
HETATM   20  C   UNL     1     -21.799 -10.025  -0.468  1.00  0.00     0.080 A 
HETATM   21  C   UNL     1     -20.666  -9.530  -1.160  1.00  0.00     0.080 A 
HETATM   22  C   UNL     1     -19.782 -10.420  -1.796  1.00  0.00     0.068 A 
HETATM   23 CL   UNL     1     -18.393  -9.855  -2.659  1.00  0.00    -0.082 Cl
HETATM   24 CL   UNL     1     -20.363  -7.818  -1.232  1.00  0.00    -0.081 Cl
HETATM   25 CL   UNL     1     -22.900  -8.918   0.299  1.00  0.00    -0.081 Cl
HETATM   26 CL   UNL     1     -23.419 -12.048   0.428  1.00  0.00    -0.081 Cl
HETATM   27  C   UNL     1     -21.156 -13.718  -1.128  1.00  0.00     0.297 A 
HETATM   28  O   UNL     1     -21.950 -14.489  -0.631  1.00  0.00    -0.259 OA
HETATM   29  O   UNL     1     -20.084 -14.081  -1.884  1.00  0.00    -0.291 OA
HETATM   30 BR   UNL     1     -16.263 -13.506   2.055  1.00  0.00    -0.048 Br
HETATM   31 BR   UNL     1     -13.976 -13.140  -3.186  1.00  0.00    -0.045 Br
ENDROOT
BRANCH   5  32
HETATM   32  O   UNL     1     -19.493 -12.604  -8.002  1.00  0.00    -0.358 OA
HETATM   33  H   UNL     1     -18.915 -11.870  -8.270  1.00  0.00     0.217 HD
ENDBRANCH   5  32
BRANCH  12  34
HETATM   34  O   UNL     1     -14.074 -13.402  -0.119  1.00  0.00    -0.358 OA
HETATM   35  H   UNL     1     -13.815 -14.340  -0.077  1.00  0.00     0.217 HD
ENDBRANCH  12  34
TORSDOF 2
ENDMDL
MODEL 7
REMARK VINA RESULT:      -6.5      4.444      6.809
REMARK  2 active torsions:
REMARK  status: ('A' for Active; 'I' for Inactive)
REMARK    1  A    between atoms: C_5  and  O_8 
REMARK    2  A    between atoms: C_13  and  O_32 
ROOT
HETATM    1  C   UNL     1     -15.231 -13.576  -2.833  1.00  0.00     0.036 A 
HETATM    2  C   UNL     1     -16.466 -12.901  -2.917  1.00  0.00     0.023 A 
HETATM    3  C   UNL     1     -17.055 -12.711  -4.171  1.00  0.00     0.106 A 
HETATM    4  C   UNL     1     -16.429 -13.232  -5.320  1.00  0.00     0.080 A 
HETATM    5  C   UNL     1     -15.216 -13.929  -5.218  1.00  0.00     0.103 A 
HETATM    6  C   UNL     1     -14.616 -14.094  -3.972  1.00  0.00     0.046 A 
HETATM    7 BR   UNL     1     -12.987 -15.039  -3.754  1.00  0.00    -0.048 Br
HETATM    8 BR   UNL     1     -17.234 -13.029  -7.035  1.00  0.00    -0.045 Br
HETATM    9  O   UNL     1     -18.249 -12.047  -4.336  1.00  0.00    -0.306 OA
HETATM   10  C   UNL     1     -18.889 -11.479  -3.256  1.00  0.00     0.106 A 
HETATM   11  C   UNL     1     -20.073 -10.759  -3.500  1.00  0.00     0.080 A 
HETATM   12  C   UNL     1     -20.786 -10.178  -2.441  1.00  0.00     0.103 A 
HETATM   13  C   UNL     1     -20.313 -10.305  -1.138  1.00  0.00     0.046 A 
HETATM   14  C   UNL     1     -19.134 -11.008  -0.893  1.00  0.00     0.036 A 
HETATM   15  C   UNL     1     -18.418 -11.616  -1.947  1.00  0.00     0.023 A 
HETATM   16  C   UNL     1     -17.185 -12.443  -1.669  1.00  0.00     0.161 A 
HETATM   17  C   UNL     1     -17.437 -13.568  -0.708  1.00  0.00     0.028 A 
HETATM   18  C   UNL     1     -16.695 -13.354   0.444  1.00  0.00     0.074 A 
HETATM   19  C   UNL     1     -16.698 -14.249   1.505  1.00  0.00     0.074 A 
HETATM   20  C   UNL     1     -17.496 -15.404   1.390  1.00  0.00     0.080 A 
HETATM   21  C   UNL     1     -18.269 -15.627   0.224  1.00  0.00     0.080 A 
HETATM   22  C   UNL     1     -18.236 -14.701  -0.835  1.00  0.00     0.068 A 
HETATM   23 CL   UNL     1     -19.156 -14.942  -2.279  1.00  0.00    -0.082 Cl
HETATM   24 CL   UNL     1     -19.260 -17.051   0.089  1.00  0.00    -0.081 Cl
HETATM   25 CL   UNL     1     -17.525 -16.564   2.686  1.00  0.00    -0.081 Cl
HETATM   26 CL   UNL     1     -15.738 -13.949   2.910  1.00  0.00    -0.081 Cl
HETATM   27  C   UNL     1     -15.969 -12.094   0.296  1.00  0.00     0.297 A 
HETATM   28  O   UNL     1     -15.236 -11.558   1.101  1.00  0.00    -0.259 OA
HETATM   29  O   UNL     1     -16.267 -11.599  -0.937  1.00  0.00    -0.291 OA
HETATM   30 BR   UNL     1     -21.235  -9.568   0.346  1.00  0.00    -0.048 Br
HETATM   31 BR   UNL     1     -20.743 -10.572  -5.274  1.00  0.00    -0.045 Br
ENDROOT
BRANCH   5  32
HETATM   32  O   UNL     1     -14.604 -14.461  -6.322  1.00  0.00    -0.358 OA
HETATM   33  H   UNL     1     -14.958 -15.353  -6.472  1.00  0.00     0.217 HD
ENDBRANCH   5  32
BRANCH  12  34
HETATM   34  O   UNL     1     -21.950  -9.487  -2.656  1.00  0.00    -0.358 OA
HETATM   35  H   UNL     1     -22.540  -9.630  -1.894  1.00  0.00     0.217 HD
ENDBRANCH  12  34
TORSDOF 2
ENDMDL
MODEL 8
REMARK VINA RESULT:      -6.5      3.713      6.308
REMARK  2 active torsions:
REMARK  status: ('A' for Active; 'I' for Inactive)
REMARK    1  A    between atoms: C_5  and  O_8 
REMARK    2  A    between atoms: C_13  and  O_32 
ROOT
HETATM    1  C   UNL     1     -17.788 -11.670  -1.580  1.00  0.00     0.036 A 
HETATM    2  C   UNL     1     -18.751 -12.515  -0.990  1.00  0.00     0.023 A 
HETATM    3  C   UNL     1     -18.360 -13.380   0.037  1.00  0.00     0.106 A 
HETATM    4  C   UNL     1     -17.028 -13.363   0.492  1.00  0.00     0.080 A 
HETATM    5  C   UNL     1     -16.088 -12.495  -0.084  1.00  0.00     0.103 A 
HETATM    6  C   UNL     1     -16.471 -11.653  -1.125  1.00  0.00     0.046 A 
HETATM    7 BR   UNL     1     -15.262 -10.440  -1.939  1.00  0.00    -0.048 Br
HETATM    8 BR   UNL     1     -16.480 -14.497   1.921  1.00  0.00    -0.045 Br
HETATM    9  O   UNL     1     -19.236 -14.247   0.648  1.00  0.00    -0.306 OA
HETATM   10  C   UNL     1     -20.543 -14.340   0.221  1.00  0.00     0.106 A 
HETATM   11  C   UNL     1     -21.371 -15.290   0.846  1.00  0.00     0.080 A 
HETATM   12  C   UNL     1     -22.718 -15.417   0.474  1.00  0.00     0.103 A 
HETATM   13  C   UNL     1     -23.237 -14.604  -0.529  1.00  0.00     0.046 A 
HETATM   14  C   UNL     1     -22.417 -13.669  -1.158  1.00  0.00     0.036 A 
HETATM   15  C   UNL     1     -21.066 -13.515  -0.780  1.00  0.00     0.023 A 
HETATM   16  C   UNL     1     -20.202 -12.448  -1.409  1.00  0.00     0.161 A 
HETATM   17  C   UNL     1     -20.775 -11.068  -1.265  1.00  0.00     0.028 A 
HETATM   18  C   UNL     1     -21.081 -10.572  -2.524  1.00  0.00     0.074 A 
HETATM   19  C   UNL     1     -21.599  -9.298  -2.712  1.00  0.00     0.074 A 
HETATM   20  C   UNL     1     -21.822  -8.502  -1.573  1.00  0.00     0.080 A 
HETATM   21  C   UNL     1     -21.527  -9.003  -0.281  1.00  0.00     0.080 A 
HETATM   22  C   UNL     1     -20.997 -10.297  -0.128  1.00  0.00     0.068 A 
HETATM   23 CL   UNL     1     -20.614 -10.941   1.431  1.00  0.00    -0.082 Cl
HETATM   24 CL   UNL     1     -21.813  -8.020   1.127  1.00  0.00    -0.081 Cl
HETATM   25 CL   UNL     1     -22.458  -6.893  -1.756  1.00  0.00    -0.081 Cl
HETATM   26 CL   UNL     1     -21.941  -8.716  -4.303  1.00  0.00    -0.081 Cl
HETATM   27  C   UNL     1     -20.753 -11.596  -3.514  1.00  0.00     0.297 A 
HETATM   28  O   UNL     1     -20.903 -11.543  -4.717  1.00  0.00    -0.259 OA
HETATM   29  O   UNL     1     -20.241 -12.661  -2.838  1.00  0.00    -0.291 OA
HETATM   30 BR   UNL     1     -25.053 -14.702  -1.068  1.00  0.00    -0.048 Br
HETATM   31 BR   UNL     1     -20.685 -16.414   2.223  1.00  0.00    -0.045 Br
ENDROOT
BRANCH   5  32
HETATM   32  O   UNL     1     -14.793 -12.449   0.360  1.00  0.00    -0.358 OA
HETATM   33  H   UNL     1     -14.508 -11.521   0.386  1.00  0.00     0.217 HD
ENDBRANCH   5  32
BRANCH  12  34
HETATM   34  O   UNL     1     -23.545 -16.325   1.082  1.00  0.00    -0.358 OA
HETATM   35  H   UNL     1     -23.350 -16.331   2.036  1.00  0.00     0.217 HD
ENDBRANCH  12  34
TORSDOF 2
ENDMDL
MODEL 9
REMARK VINA RESULT:      -6.4      3.617      6.224
REMARK  2 active torsions:
REMARK  status: ('A' for Active; 'I' for Inactive)
REMARK    1  A    between atoms: C_5  and  O_8 
REMARK    2  A    between atoms: C_13  and  O_32 
ROOT
HETATM    1  C   UNL     1     -19.786 -10.786  -1.487  1.00  0.00     0.036 A 
HETATM    2  C   UNL     1     -19.260 -11.966  -0.921  1.00  0.00     0.023 A 
HETATM    3  C   UNL     1     -20.046 -12.702  -0.029  1.00  0.00     0.106 A 
HETATM    4  C   UNL     1     -21.359 -12.279   0.256  1.00  0.00     0.080 A 
HETATM    5  C   UNL     1     -21.879 -11.120  -0.339  1.00  0.00     0.103 A 
HETATM    6  C   UNL     1     -21.087 -10.372  -1.206  1.00  0.00     0.046 A 
HETATM    7 BR   UNL     1     -21.729  -8.805  -2.060  1.00  0.00    -0.048 Br
HETATM    8 BR   UNL     1     -22.466 -13.290   1.430  1.00  0.00    -0.045 Br
HETATM    9  O   UNL     1     -19.597 -13.853   0.578  1.00  0.00    -0.306 OA
HETATM   10  C   UNL     1     -18.309 -14.296   0.372  1.00  0.00     0.106 A 
HETATM   11  C   UNL     1     -17.890 -15.444   1.071  1.00  0.00     0.080 A 
HETATM   12  C   UNL     1     -16.599 -15.961   0.886  1.00  0.00     0.103 A 
HETATM   13  C   UNL     1     -15.720 -15.326   0.013  1.00  0.00     0.046 A 
HETATM   14  C   UNL     1     -16.127 -14.183  -0.673  1.00  0.00     0.036 A 
HETATM   15  C   UNL     1     -17.430 -13.665  -0.514  1.00  0.00     0.023 A 
HETATM   16  C   UNL     1     -17.892 -12.473  -1.317  1.00  0.00     0.161 A 
HETATM   17  C   UNL     1     -17.766 -12.678  -2.798  1.00  0.00     0.028 A 
HETATM   18  C   UNL     1     -16.843 -11.773  -3.303  1.00  0.00     0.074 A 
HETATM   19  C   UNL     1     -16.539 -11.702  -4.656  1.00  0.00     0.074 A 
HETATM   20  C   UNL     1     -17.194 -12.593  -5.526  1.00  0.00     0.080 A 
HETATM   21  C   UNL     1     -18.127 -13.531  -5.021  1.00  0.00     0.080 A 
HETATM   22  C   UNL     1     -18.416 -13.570  -3.645  1.00  0.00     0.068 A 
HETATM   23 CL   UNL     1     -19.557 -14.694  -2.990  1.00  0.00    -0.082 Cl
HETATM   24 CL   UNL     1     -18.929 -14.638  -6.099  1.00  0.00    -0.081 Cl
HETATM   25 CL   UNL     1     -16.857 -12.535  -7.232  1.00  0.00    -0.081 Cl
HETATM   26 CL   UNL     1     -15.400 -10.540  -5.239  1.00  0.00    -0.081 Cl
HETATM   27  C   UNL     1     -16.322 -10.979  -2.192  1.00  0.00     0.297 A 
HETATM   28  O   UNL     1     -15.481 -10.105  -2.231  1.00  0.00    -0.259 OA
HETATM   29  O   UNL     1     -16.954 -11.402  -1.063  1.00  0.00    -0.291 OA
HETATM   30 BR   UNL     1     -13.968 -15.980  -0.306  1.00  0.00    -0.048 Br
HETATM   31 BR   UNL     1     -19.075 -16.331   2.271  1.00  0.00    -0.045 Br
ENDROOT
BRANCH   5  32
HETATM   32  O   UNL     1     -23.161 -10.705  -0.090  1.00  0.00    -0.358 OA
HETATM   33  H   UNL     1     -23.397 -10.024  -0.742  1.00  0.00     0.217 HD
ENDBRANCH   5  32
BRANCH  12  34
HETATM   34  O   UNL     1     -16.178 -17.086   1.544  1.00  0.00    -0.358 OA
HETATM   35  H   UNL     1     -16.528 -17.866   1.078  1.00  0.00     0.217 HD
ENDBRANCH  12  34
TORSDOF 2
ENDMDL
