MODEL 1
REMARK VINA RESULT:      -1.1      0.000      0.000
REMARK  7 active torsions:
REMARK  status: ('A' for Active; 'I' for Inactive)
REMARK    1  A    between atoms: C_2  and  C_10 
REMARK    2  A    between atoms: C_4  and  O_9 
REMARK    3  A    between atoms: C_5  and  O_8 
REMARK    4  A    between atoms: C_6  and  O_7 
REMARK    5  A    between atoms: C_14  and  O_22 
REMARK    6  A    between atoms: C_16  and  O_21 
REMARK    7  A    between atoms: C_19  and  O_20 
ROOT
HETATM    1 CL   UNL     2     -32.950  -3.303 -11.392  1.00  0.00     0.000 Cl
ENDROOT
TORSDOF 7
ENDMDL
MODEL 2
REMARK VINA RESULT:      -1.0      8.562      8.562
REMARK  7 active torsions:
REMARK  status: ('A' for Active; 'I' for Inactive)
REMARK    1  A    between atoms: C_2  and  C_10 
REMARK    2  A    between atoms: C_4  and  O_9 
REMARK    3  A    between atoms: C_5  and  O_8 
REMARK    4  A    between atoms: C_6  and  O_7 
REMARK    5  A    between atoms: C_14  and  O_22 
REMARK    6  A    between atoms: C_16  and  O_21 
REMARK    7  A    between atoms: C_19  and  O_20 
ROOT
HETATM    1 CL   UNL     2     -37.016   0.580  -4.933  1.00  0.00     0.000 Cl
ENDROOT
TORSDOF 7
ENDMDL
MODEL 3
REMARK VINA RESULT:      -1.0     11.260     11.260
REMARK  7 active torsions:
REMARK  status: ('A' for Active; 'I' for Inactive)
REMARK    1  A    between atoms: C_2  and  C_10 
REMARK    2  A    between atoms: C_4  and  O_9 
REMARK    3  A    between atoms: C_5  and  O_8 
REMARK    4  A    between atoms: C_6  and  O_7 
REMARK    5  A    between atoms: C_14  and  O_22 
REMARK    6  A    between atoms: C_16  and  O_21 
REMARK    7  A    between atoms: C_19  and  O_20 
ROOT
HETATM    1 CL   UNL     2     -29.825   7.428 -12.753  1.00  0.00     0.000 Cl
ENDROOT
TORSDOF 7
ENDMDL
MODEL 4
REMARK VINA RESULT:      -1.0      4.766      4.766
REMARK  7 active torsions:
REMARK  status: ('A' for Active; 'I' for Inactive)
REMARK    1  A    between atoms: C_2  and  C_10 
REMARK    2  A    between atoms: C_4  and  O_9 
REMARK    3  A    between atoms: C_5  and  O_8 
REMARK    4  A    between atoms: C_6  and  O_7 
REMARK    5  A    between atoms: C_14  and  O_22 
REMARK    6  A    between atoms: C_16  and  O_21 
REMARK    7  A    between atoms: C_19  and  O_20 
ROOT
HETATM    1 CL   UNL     2     -34.910  -7.312  -9.719  1.00  0.00     0.000 Cl
ENDROOT
TORSDOF 7
ENDMDL
MODEL 5
REMARK VINA RESULT:      -1.0     14.601     14.601
REMARK  7 active torsions:
REMARK  status: ('A' for Active; 'I' for Inactive)
REMARK    1  A    between atoms: C_2  and  C_10 
REMARK    2  A    between atoms: C_4  and  O_9 
REMARK    3  A    between atoms: C_5  and  O_8 
REMARK    4  A    between atoms: C_6  and  O_7 
REMARK    5  A    between atoms: C_14  and  O_22 
REMARK    6  A    between atoms: C_16  and  O_21 
REMARK    7  A    between atoms: C_19  and  O_20 
ROOT
HETATM    1 CL   UNL     2     -22.240  -6.151  -1.885  1.00  0.00     0.000 Cl
ENDROOT
TORSDOF 7
ENDMDL
MODEL 6
REMARK VINA RESULT:      -0.9     12.032     12.032
REMARK  7 active torsions:
REMARK  status: ('A' for Active; 'I' for Inactive)
REMARK    1  A    between atoms: C_2  and  C_10 
REMARK    2  A    between atoms: C_4  and  O_9 
REMARK    3  A    between atoms: C_5  and  O_8 
REMARK    4  A    between atoms: C_6  and  O_7 
REMARK    5  A    between atoms: C_14  and  O_22 
REMARK    6  A    between atoms: C_16  and  O_21 
REMARK    7  A    between atoms: C_19  and  O_20 
ROOT
HETATM    1 CL   UNL     2     -27.117   7.218 -11.166  1.00  0.00     0.000 Cl
ENDROOT
TORSDOF 7
ENDMDL
MODEL 7
REMARK VINA RESULT:      -0.9     16.130     16.130
REMARK  7 active torsions:
REMARK  status: ('A' for Active; 'I' for Inactive)
REMARK    1  A    between atoms: C_2  and  C_10 
REMARK    2  A    between atoms: C_4  and  O_9 
REMARK    3  A    between atoms: C_5  and  O_8 
REMARK    4  A    between atoms: C_6  and  O_7 
REMARK    5  A    between atoms: C_14  and  O_22 
REMARK    6  A    between atoms: C_16  and  O_21 
REMARK    7  A    between atoms: C_19  and  O_20 
ROOT
HETATM    1 CL   UNL     2     -23.255  -8.077   0.583  1.00  0.00     0.000 Cl
ENDROOT
TORSDOF 7
ENDMDL
MODEL 8
REMARK VINA RESULT:      -0.9     30.918     30.918
REMARK  7 active torsions:
REMARK  status: ('A' for Active; 'I' for Inactive)
REMARK    1  A    between atoms: C_2  and  C_10 
REMARK    2  A    between atoms: C_4  and  O_9 
REMARK    3  A    between atoms: C_5  and  O_8 
REMARK    4  A    between atoms: C_6  and  O_7 
REMARK    5  A    between atoms: C_14  and  O_22 
REMARK    6  A    between atoms: C_16  and  O_21 
REMARK    7  A    between atoms: C_19  and  O_20 
ROOT
HETATM    1 CL   UNL     2      -9.179 -12.837   5.927  1.00  0.00     0.000 Cl
ENDROOT
TORSDOF 7
ENDMDL
MODEL 9
REMARK VINA RESULT:      -0.9     18.623     18.623
REMARK  7 active torsions:
REMARK  status: ('A' for Active; 'I' for Inactive)
REMARK    1  A    between atoms: C_2  and  C_10 
REMARK    2  A    between atoms: C_4  and  O_9 
REMARK    3  A    between atoms: C_5  and  O_8 
REMARK    4  A    between atoms: C_6  and  O_7 
REMARK    5  A    between atoms: C_14  and  O_22 
REMARK    6  A    between atoms: C_16  and  O_21 
REMARK    7  A    between atoms: C_19  and  O_20 
ROOT
HETATM    1 CL   UNL     2     -29.163   6.522   3.969  1.00  0.00     0.000 Cl
ENDROOT
TORSDOF 7
ENDMDL
