MODEL 1
REMARK VINA RESULT:      -7.6      0.000      0.000
REMARK  17 active torsions:
REMARK  status: ('A' for Active; 'I' for Inactive)
REMARK    1  A    between atoms: C_2  and  C_3 
REMARK    2  A    between atoms: C_3  and  C_4 
REMARK    3  A    between atoms: C_4  and  C_5 
REMARK    4  A    between atoms: C_5  and  C_6 
REMARK    5  A    between atoms: C_6  and  C_7 
REMARK    6  A    between atoms: C_7  and  C_8 
REMARK    7  A    between atoms: C_8  and  C_9 
REMARK    8  A    between atoms: C_9  and  C_10 
REMARK    9  A    between atoms: C_10  and  C_11 
REMARK   10  A    between atoms: C_11  and  C_12 
REMARK   11  A    between atoms: C_12  and  O_14 
REMARK   12  A    between atoms: O_14  and  C_15 
REMARK   13  A    between atoms: C_15  and  C_16 
REMARK   14  A    between atoms: C_16  and  C_17 
REMARK   15  A    between atoms: C_16  and  O_24 
REMARK   16  A    between atoms: C_18  and  O_23 
REMARK   17  A    between atoms: C_19  and  O_22 
ROOT
HETATM    1  O   UNL     1     -21.931  -4.099  -7.856  1.00  0.00    -0.319 OA
ENDROOT
BRANCH   1   2
HETATM    2  C   UNL     1     -20.640  -4.328  -8.215  1.00  0.00     0.258 C 
HETATM    3  O   UNL     1     -20.179  -4.192  -9.359  1.00  0.00    -0.265 OA
BRANCH   2   4
HETATM    4  C   UNL     1     -19.799  -4.687  -7.027  1.00  0.00     0.111 C 
BRANCH   4   5
HETATM    5  C   UNL     1     -20.687  -4.944  -5.797  1.00  0.00     0.010 C 
BRANCH   5   6
HETATM    6  C   UNL     1     -20.777  -6.423  -5.435  1.00  0.00     0.000 C 
BRANCH   6   7
HETATM    7  C   UNL     1     -21.873  -6.667  -4.405  1.00  0.00     0.000 C 
BRANCH   7   8
HETATM    8  C   UNL     1     -21.294  -6.673  -3.003  1.00  0.00     0.000 C 
BRANCH   8   9
HETATM    9  C   UNL     1     -22.341  -6.188  -2.012  1.00  0.00     0.000 C 
BRANCH   9  10
HETATM   10  C   UNL     1     -22.246  -6.994  -0.730  1.00  0.00     0.000 C 
BRANCH  10  11
HETATM   11  C   UNL     1     -21.239  -8.117  -0.898  1.00  0.00     0.000 C 
BRANCH  11  12
HETATM   12  C   UNL     1     -21.677  -9.333  -0.095  1.00  0.00    -0.000 C 
BRANCH  12  13
HETATM   13  C   UNL     1     -23.190  -9.334   0.074  1.00  0.00    -0.005 C 
HETATM   14  C   UNL     1     -23.759 -10.680  -0.333  1.00  0.00     0.005 C 
ENDBRANCH  12  13
ENDBRANCH  11  12
ENDBRANCH  10  11
ENDBRANCH   9  10
ENDBRANCH   8   9
ENDBRANCH   7   8
ENDBRANCH   6   7
ENDBRANCH   5   6
ENDBRANCH   4   5
ENDBRANCH   2   4
ENDBRANCH   1   2
BRANCH   1  15
HETATM   15  C   UNL     1     -22.924  -4.458  -8.832  1.00  0.00     0.213 C 
BRANCH  15  16
HETATM   16  C   UNL     1     -23.535  -3.288  -9.596  1.00  0.00     0.174 C 
BRANCH  16  17
HETATM   17  C   UNL     1     -23.662  -3.555 -11.113  1.00  0.00     0.183 C 
HETATM   18  C   UNL     1     -22.558  -2.810 -11.859  1.00  0.00     0.180 C 
HETATM   19  C   UNL     1     -23.143  -2.510 -13.237  1.00  0.00     0.173 C 
HETATM   20  C   UNL     1     -24.542  -3.103 -13.173  1.00  0.00     0.202 C 
HETATM   21  O   UNL     1     -24.881  -3.145 -11.765  1.00  0.00    -0.378 OA
BRANCH  18  22
HETATM   22  O   UNL     1     -21.353  -3.556 -11.884  1.00  0.00    -0.390 OA
HETATM   23  H   UNL     1     -21.554  -4.474 -12.124  1.00  0.00     0.210 HD
ENDBRANCH  18  22
BRANCH  19  24
HETATM   24  O   UNL     1     -22.378  -3.043 -14.310  1.00  0.00    -0.391 OA
HETATM   25  H   UNL     1     -22.019  -2.304 -14.824  1.00  0.00     0.210 HD
ENDBRANCH  19  24
ENDBRANCH  16  17
BRANCH  16  26
HETATM   26  O   UNL     1     -24.783  -2.912  -8.998  1.00  0.00    -0.391 OA
HETATM   27  H   UNL     1     -24.684  -2.919  -8.031  1.00  0.00     0.210 HD
ENDBRANCH  16  26
ENDBRANCH  15  16
ENDBRANCH   1  15
TORSDOF 17
ENDMDL
MODEL 2
REMARK VINA RESULT:      -7.4      1.120      2.019
REMARK  17 active torsions:
REMARK  status: ('A' for Active; 'I' for Inactive)
REMARK    1  A    between atoms: C_2  and  C_3 
REMARK    2  A    between atoms: C_3  and  C_4 
REMARK    3  A    between atoms: C_4  and  C_5 
REMARK    4  A    between atoms: C_5  and  C_6 
REMARK    5  A    between atoms: C_6  and  C_7 
REMARK    6  A    between atoms: C_7  and  C_8 
REMARK    7  A    between atoms: C_8  and  C_9 
REMARK    8  A    between atoms: C_9  and  C_10 
REMARK    9  A    between atoms: C_10  and  C_11 
REMARK   10  A    between atoms: C_11  and  C_12 
REMARK   11  A    between atoms: C_12  and  O_14 
REMARK   12  A    between atoms: O_14  and  C_15 
REMARK   13  A    between atoms: C_15  and  C_16 
REMARK   14  A    between atoms: C_16  and  C_17 
REMARK   15  A    between atoms: C_16  and  O_24 
REMARK   16  A    between atoms: C_18  and  O_23 
REMARK   17  A    between atoms: C_19  and  O_22 
ROOT
HETATM    1  O   UNL     1     -20.484  -4.840  -8.452  1.00  0.00    -0.319 OA
ENDROOT
BRANCH   1   2
HETATM    2  C   UNL     1     -20.205  -5.450  -7.269  1.00  0.00     0.258 C 
HETATM    3  O   UNL     1     -19.697  -6.576  -7.146  1.00  0.00    -0.265 OA
BRANCH   2   4
HETATM    4  C   UNL     1     -20.509  -4.554  -6.107  1.00  0.00     0.111 C 
BRANCH   4   5
HETATM    5  C   UNL     1     -20.417  -5.337  -4.786  1.00  0.00     0.010 C 
BRANCH   5   6
HETATM    6  C   UNL     1     -21.652  -6.195  -4.525  1.00  0.00     0.000 C 
BRANCH   6   7
HETATM    7  C   UNL     1     -21.519  -6.957  -3.212  1.00  0.00     0.000 C 
BRANCH   7   8
HETATM    8  C   UNL     1     -22.211  -6.208  -2.089  1.00  0.00     0.000 C 
BRANCH   8   9
HETATM    9  C   UNL     1     -22.219  -7.061  -0.830  1.00  0.00     0.000 C 
BRANCH   9  10
HETATM   10  C   UNL     1     -21.182  -8.162  -0.950  1.00  0.00     0.000 C 
BRANCH  10  11
HETATM   11  C   UNL     1     -21.851  -9.519  -0.825  1.00  0.00     0.000 C 
BRANCH  11  12
HETATM   12  C   UNL     1     -23.065  -9.419   0.085  1.00  0.00    -0.000 C 
BRANCH  12  13
HETATM   13  C   UNL     1     -24.023 -10.570  -0.188  1.00  0.00    -0.005 C 
HETATM   14  C   UNL     1     -23.590 -11.325  -1.431  1.00  0.00     0.005 C 
ENDBRANCH  12  13
ENDBRANCH  11  12
ENDBRANCH  10  11
ENDBRANCH   9  10
ENDBRANCH   8   9
ENDBRANCH   7   8
ENDBRANCH   6   7
ENDBRANCH   5   6
ENDBRANCH   4   5
ENDBRANCH   2   4
ENDBRANCH   1   2
BRANCH   1  15
HETATM   15  C   UNL     1     -21.838  -4.968  -8.918  1.00  0.00     0.213 C 
BRANCH  15  16
HETATM   16  C   UNL     1     -22.714  -3.738  -8.711  1.00  0.00     0.174 C 
BRANCH  16  17
HETATM   17  C   UNL     1     -23.112  -3.047 -10.035  1.00  0.00     0.183 C 
HETATM   18  C   UNL     1     -24.340  -3.737 -10.624  1.00  0.00     0.180 C 
HETATM   19  C   UNL     1     -24.218  -3.542 -12.133  1.00  0.00     0.173 C 
HETATM   20  C   UNL     1     -22.924  -2.759 -12.294  1.00  0.00     0.202 C 
HETATM   21  O   UNL     1     -22.147  -3.047 -11.107  1.00  0.00    -0.378 OA
BRANCH  18  22
HETATM   22  O   UNL     1     -25.539  -3.231 -10.063  1.00  0.00    -0.390 OA
HETATM   23  H   UNL     1     -26.295  -3.652 -10.499  1.00  0.00     0.210 HD
ENDBRANCH  18  22
BRANCH  19  24
HETATM   24  O   UNL     1     -25.331  -2.875 -12.714  1.00  0.00    -0.391 OA
HETATM   25  H   UNL     1     -25.268  -1.932 -12.497  1.00  0.00     0.210 HD
ENDBRANCH  19  24
ENDBRANCH  16  17
BRANCH  16  26
HETATM   26  O   UNL     1     -23.851  -4.077  -7.905  1.00  0.00    -0.391 OA
HETATM   27  H   UNL     1     -24.223  -4.918  -8.221  1.00  0.00     0.210 HD
ENDBRANCH  16  26
ENDBRANCH  15  16
ENDBRANCH   1  15
TORSDOF 17
ENDMDL
MODEL 3
REMARK VINA RESULT:      -7.4      1.190      2.077
REMARK  17 active torsions:
REMARK  status: ('A' for Active; 'I' for Inactive)
REMARK    1  A    between atoms: C_2  and  C_3 
REMARK    2  A    between atoms: C_3  and  C_4 
REMARK    3  A    between atoms: C_4  and  C_5 
REMARK    4  A    between atoms: C_5  and  C_6 
REMARK    5  A    between atoms: C_6  and  C_7 
REMARK    6  A    between atoms: C_7  and  C_8 
REMARK    7  A    between atoms: C_8  and  C_9 
REMARK    8  A    between atoms: C_9  and  C_10 
REMARK    9  A    between atoms: C_10  and  C_11 
REMARK   10  A    between atoms: C_11  and  C_12 
REMARK   11  A    between atoms: C_12  and  O_14 
REMARK   12  A    between atoms: O_14  and  C_15 
REMARK   13  A    between atoms: C_15  and  C_16 
REMARK   14  A    between atoms: C_16  and  C_17 
REMARK   15  A    between atoms: C_16  and  O_24 
REMARK   16  A    between atoms: C_18  and  O_23 
REMARK   17  A    between atoms: C_19  and  O_22 
ROOT
HETATM    1  O   UNL     1     -20.231  -3.588  -8.747  1.00  0.00    -0.319 OA
ENDROOT
BRANCH   1   2
HETATM    2  C   UNL     1     -20.742  -3.958  -7.543  1.00  0.00     0.258 C 
HETATM    3  O   UNL     1     -21.900  -3.733  -7.156  1.00  0.00    -0.265 OA
BRANCH   2   4
HETATM    4  C   UNL     1     -19.752  -4.759  -6.753  1.00  0.00     0.111 C 
BRANCH   4   5
HETATM    5  C   UNL     1     -20.402  -5.302  -5.469  1.00  0.00     0.010 C 
BRANCH   5   6
HETATM    6  C   UNL     1     -20.785  -6.775  -5.581  1.00  0.00     0.000 C 
BRANCH   6   7
HETATM    7  C   UNL     1     -21.727  -7.181  -4.454  1.00  0.00     0.000 C 
BRANCH   7   8
HETATM    8  C   UNL     1     -21.431  -6.382  -3.199  1.00  0.00     0.000 C 
BRANCH   8   9
HETATM    9  C   UNL     1     -21.373  -7.313  -1.998  1.00  0.00     0.000 C 
BRANCH   9  10
HETATM   10  C   UNL     1     -22.398  -6.882  -0.965  1.00  0.00     0.000 C 
BRANCH  10  11
HETATM   11  C   UNL     1     -22.359  -7.822   0.226  1.00  0.00     0.000 C 
BRANCH  11  12
HETATM   12  C   UNL     1     -22.146  -9.252  -0.246  1.00  0.00    -0.000 C 
BRANCH  12  13
HETATM   13  C   UNL     1     -23.446 -10.037  -0.151  1.00  0.00    -0.005 C 
HETATM   14  C   UNL     1     -23.549 -11.016  -1.306  1.00  0.00     0.005 C 
ENDBRANCH  12  13
ENDBRANCH  11  12
ENDBRANCH  10  11
ENDBRANCH   9  10
ENDBRANCH   8   9
ENDBRANCH   7   8
ENDBRANCH   6   7
ENDBRANCH   5   6
ENDBRANCH   4   5
ENDBRANCH   2   4
ENDBRANCH   1   2
BRANCH   1  15
HETATM   15  C   UNL     1     -20.133  -4.632  -9.732  1.00  0.00     0.213 C 
BRANCH  15  16
HETATM   16  C   UNL     1     -20.510  -4.222 -11.151  1.00  0.00     0.174 C 
BRANCH  16  17
HETATM   17  C   UNL     1     -22.018  -4.387 -11.449  1.00  0.00     0.183 C 
HETATM   18  C   UNL     1     -22.535  -3.147 -12.175  1.00  0.00     0.180 C 
HETATM   19  C   UNL     1     -24.007  -3.043 -11.783  1.00  0.00     0.173 C 
HETATM   20  C   UNL     1     -24.219  -4.230 -10.855  1.00  0.00     0.202 C 
HETATM   21  O   UNL     1     -22.909  -4.547 -10.326  1.00  0.00    -0.378 OA
BRANCH  18  22
HETATM   22  O   UNL     1     -22.305  -3.231 -13.572  1.00  0.00    -0.390 OA
HETATM   23  H   UNL     1     -21.954  -4.109 -13.782  1.00  0.00     0.210 HD
ENDBRANCH  18  22
BRANCH  19  24
HETATM   24  O   UNL     1     -24.895  -3.058 -12.892  1.00  0.00    -0.391 OA
HETATM   25  H   UNL     1     -25.715  -3.498 -12.621  1.00  0.00     0.210 HD
ENDBRANCH  19  24
ENDBRANCH  16  17
BRANCH  16  26
HETATM   26  O   UNL     1     -20.039  -2.894 -11.418  1.00  0.00    -0.391 OA
HETATM   27  H   UNL     1     -20.046  -2.384 -10.590  1.00  0.00     0.210 HD
ENDBRANCH  16  26
ENDBRANCH  15  16
ENDBRANCH   1  15
TORSDOF 17
ENDMDL
MODEL 4
REMARK VINA RESULT:      -7.3      1.040      1.639
REMARK  17 active torsions:
REMARK  status: ('A' for Active; 'I' for Inactive)
REMARK    1  A    between atoms: C_2  and  C_3 
REMARK    2  A    between atoms: C_3  and  C_4 
REMARK    3  A    between atoms: C_4  and  C_5 
REMARK    4  A    between atoms: C_5  and  C_6 
REMARK    5  A    between atoms: C_6  and  C_7 
REMARK    6  A    between atoms: C_7  and  C_8 
REMARK    7  A    between atoms: C_8  and  C_9 
REMARK    8  A    between atoms: C_9  and  C_10 
REMARK    9  A    between atoms: C_10  and  C_11 
REMARK   10  A    between atoms: C_11  and  C_12 
REMARK   11  A    between atoms: C_12  and  O_14 
REMARK   12  A    between atoms: O_14  and  C_15 
REMARK   13  A    between atoms: C_15  and  C_16 
REMARK   14  A    between atoms: C_16  and  C_17 
REMARK   15  A    between atoms: C_16  and  O_24 
REMARK   16  A    between atoms: C_18  and  O_23 
REMARK   17  A    between atoms: C_19  and  O_22 
ROOT
HETATM    1  O   UNL     1     -21.778  -5.074  -7.368  1.00  0.00    -0.319 OA
ENDROOT
BRANCH   1   2
HETATM    2  C   UNL     1     -20.909  -6.083  -7.092  1.00  0.00     0.258 C 
HETATM    3  O   UNL     1     -19.737  -6.149  -7.495  1.00  0.00    -0.265 OA
BRANCH   2   4
HETATM    4  C   UNL     1     -21.515  -7.084  -6.156  1.00  0.00     0.111 C 
BRANCH   4   5
HETATM    5  C   UNL     1     -22.214  -6.372  -4.985  1.00  0.00     0.010 C 
BRANCH   5   6
HETATM    6  C   UNL     1     -21.259  -6.049  -3.839  1.00  0.00     0.000 C 
BRANCH   6   7
HETATM    7  C   UNL     1     -21.460  -7.009  -2.674  1.00  0.00     0.000 C 
BRANCH   7   8
HETATM    8  C   UNL     1     -22.271  -6.349  -1.575  1.00  0.00     0.000 C 
BRANCH   8   9
HETATM    9  C   UNL     1     -22.311  -7.251  -0.351  1.00  0.00     0.000 C 
BRANCH   9  10
HETATM   10  C   UNL     1     -21.369  -8.425  -0.549  1.00  0.00     0.000 C 
BRANCH  10  11
HETATM   11  C   UNL     1     -21.908  -9.648   0.169  1.00  0.00     0.000 C 
BRANCH  11  12
HETATM   12  C   UNL     1     -23.428  -9.658   0.111  1.00  0.00    -0.000 C 
BRANCH  12  13
HETATM   13  C   UNL     1     -23.927 -11.006  -0.391  1.00  0.00    -0.005 C 
HETATM   14  C   UNL     1     -23.412 -11.261  -1.796  1.00  0.00     0.005 C 
ENDBRANCH  12  13
ENDBRANCH  11  12
ENDBRANCH  10  11
ENDBRANCH   9  10
ENDBRANCH   8   9
ENDBRANCH   7   8
ENDBRANCH   6   7
ENDBRANCH   5   6
ENDBRANCH   4   5
ENDBRANCH   2   4
ENDBRANCH   1   2
BRANCH   1  15
HETATM   15  C   UNL     1     -21.673  -4.500  -8.682  1.00  0.00     0.213 C 
BRANCH  15  16
HETATM   16  C   UNL     1     -22.843  -3.615  -9.098  1.00  0.00     0.174 C 
BRANCH  16  17
HETATM   17  C   UNL     1     -23.216  -3.766 -10.590  1.00  0.00     0.183 C 
HETATM   18  C   UNL     1     -22.159  -3.083 -11.454  1.00  0.00     0.180 C 
HETATM   19  C   UNL     1     -22.903  -2.636 -12.710  1.00  0.00     0.173 C 
HETATM   20  C   UNL     1     -24.333  -3.093 -12.467  1.00  0.00     0.202 C 
HETATM   21  O   UNL     1     -24.467  -3.197 -11.028  1.00  0.00    -0.378 OA
BRANCH  18  22
HETATM   22  O   UNL     1     -21.056  -3.939 -11.699  1.00  0.00    -0.390 OA
HETATM   23  H   UNL     1     -20.346  -3.726 -11.074  1.00  0.00     0.210 HD
ENDBRANCH  18  22
BRANCH  19  24
HETATM   24  O   UNL     1     -22.362  -3.167 -13.913  1.00  0.00    -0.391 OA
HETATM   25  H   UNL     1     -22.656  -4.087 -13.999  1.00  0.00     0.210 HD
ENDBRANCH  19  24
ENDBRANCH  16  17
BRANCH  16  26
HETATM   26  O   UNL     1     -23.960  -3.840  -8.226  1.00  0.00    -0.391 OA
HETATM   27  H   UNL     1     -23.644  -3.861  -7.307  1.00  0.00     0.210 HD
ENDBRANCH  16  26
ENDBRANCH  15  16
ENDBRANCH   1  15
TORSDOF 17
ENDMDL
MODEL 5
REMARK VINA RESULT:      -6.8      1.377      3.123
REMARK  17 active torsions:
REMARK  status: ('A' for Active; 'I' for Inactive)
REMARK    1  A    between atoms: C_2  and  C_3 
REMARK    2  A    between atoms: C_3  and  C_4 
REMARK    3  A    between atoms: C_4  and  C_5 
REMARK    4  A    between atoms: C_5  and  C_6 
REMARK    5  A    between atoms: C_6  and  C_7 
REMARK    6  A    between atoms: C_7  and  C_8 
REMARK    7  A    between atoms: C_8  and  C_9 
REMARK    8  A    between atoms: C_9  and  C_10 
REMARK    9  A    between atoms: C_10  and  C_11 
REMARK   10  A    between atoms: C_11  and  C_12 
REMARK   11  A    between atoms: C_12  and  O_14 
REMARK   12  A    between atoms: O_14  and  C_15 
REMARK   13  A    between atoms: C_15  and  C_16 
REMARK   14  A    between atoms: C_16  and  C_17 
REMARK   15  A    between atoms: C_16  and  O_24 
REMARK   16  A    between atoms: C_18  and  O_23 
REMARK   17  A    between atoms: C_19  and  O_22 
ROOT
HETATM    1  O   UNL     1     -20.446  -5.711  -7.661  1.00  0.00    -0.319 OA
ENDROOT
BRANCH   1   2
HETATM    2  C   UNL     1     -20.378  -5.414  -6.336  1.00  0.00     0.258 C 
HETATM    3  O   UNL     1     -20.287  -4.270  -5.862  1.00  0.00    -0.265 OA
BRANCH   2   4
HETATM    4  C   UNL     1     -20.513  -6.646  -5.493  1.00  0.00     0.111 C 
BRANCH   4   5
HETATM    5  C   UNL     1     -21.766  -6.554  -4.604  1.00  0.00     0.010 C 
BRANCH   5   6
HETATM    6  C   UNL     1     -21.457  -6.026  -3.206  1.00  0.00     0.000 C 
BRANCH   6   7
HETATM    7  C   UNL     1     -21.302  -7.171  -2.213  1.00  0.00     0.000 C 
BRANCH   7   8
HETATM    8  C   UNL     1     -22.272  -7.010  -1.058  1.00  0.00     0.000 C 
BRANCH   8   9
HETATM    9  C   UNL     1     -21.896  -7.962   0.066  1.00  0.00     0.000 C 
BRANCH   9  10
HETATM   10  C   UNL     1     -23.061  -8.887   0.367  1.00  0.00     0.000 C 
BRANCH  10  11
HETATM   11  C   UNL     1     -23.077 -10.038  -0.623  1.00  0.00     0.000 C 
BRANCH  11  12
HETATM   12  C   UNL     1     -23.777 -11.241  -0.009  1.00  0.00    -0.000 C 
BRANCH  12  13
HETATM   13  C   UNL     1     -22.751 -12.235   0.517  1.00  0.00    -0.005 C 
HETATM   14  C   UNL     1     -23.440 -13.309   1.337  1.00  0.00     0.005 C 
ENDBRANCH  12  13
ENDBRANCH  11  12
ENDBRANCH  10  11
ENDBRANCH   9  10
ENDBRANCH   8   9
ENDBRANCH   7   8
ENDBRANCH   6   7
ENDBRANCH   5   6
ENDBRANCH   4   5
ENDBRANCH   2   4
ENDBRANCH   1   2
BRANCH   1  15
HETATM   15  C   UNL     1     -20.170  -4.624  -8.561  1.00  0.00     0.213 C 
BRANCH  15  16
HETATM   16  C   UNL     1     -20.832  -4.733  -9.930  1.00  0.00     0.174 C 
BRANCH  16  17
HETATM   17  C   UNL     1     -22.029  -3.771 -10.103  1.00  0.00     0.183 C 
HETATM   18  C   UNL     1     -23.220  -4.286  -9.297  1.00  0.00     0.180 C 
HETATM   19  C   UNL     1     -24.452  -3.787 -10.048  1.00  0.00     0.173 C 
HETATM   20  C   UNL     1     -23.872  -3.028 -11.232  1.00  0.00     0.202 C 
HETATM   21  O   UNL     1     -22.548  -3.579 -11.435  1.00  0.00    -0.378 OA
BRANCH  18  22
HETATM   22  O   UNL     1     -23.150  -3.870  -7.944  1.00  0.00    -0.390 OA
HETATM   23  H   UNL     1     -23.694  -4.463  -7.403  1.00  0.00     0.210 HD
ENDBRANCH  18  22
BRANCH  19  24
HETATM   24  O   UNL     1     -25.314  -2.980  -9.257  1.00  0.00    -0.391 OA
HETATM   25  H   UNL     1     -24.768  -2.416  -8.689  1.00  0.00     0.210 HD
ENDBRANCH  19  24
ENDBRANCH  16  17
BRANCH  16  26
HETATM   26  O   UNL     1     -19.848  -4.576 -10.962  1.00  0.00    -0.391 OA
HETATM   27  H   UNL     1     -19.514  -3.663 -10.945  1.00  0.00     0.210 HD
ENDBRANCH  16  26
ENDBRANCH  15  16
ENDBRANCH   1  15
TORSDOF 17
ENDMDL
MODEL 6
REMARK VINA RESULT:      -6.7      1.745      2.696
REMARK  17 active torsions:
REMARK  status: ('A' for Active; 'I' for Inactive)
REMARK    1  A    between atoms: C_2  and  C_3 
REMARK    2  A    between atoms: C_3  and  C_4 
REMARK    3  A    between atoms: C_4  and  C_5 
REMARK    4  A    between atoms: C_5  and  C_6 
REMARK    5  A    between atoms: C_6  and  C_7 
REMARK    6  A    between atoms: C_7  and  C_8 
REMARK    7  A    between atoms: C_8  and  C_9 
REMARK    8  A    between atoms: C_9  and  C_10 
REMARK    9  A    between atoms: C_10  and  C_11 
REMARK   10  A    between atoms: C_11  and  C_12 
REMARK   11  A    between atoms: C_12  and  O_14 
REMARK   12  A    between atoms: O_14  and  C_15 
REMARK   13  A    between atoms: C_15  and  C_16 
REMARK   14  A    between atoms: C_16  and  C_17 
REMARK   15  A    between atoms: C_16  and  O_24 
REMARK   16  A    between atoms: C_18  and  O_23 
REMARK   17  A    between atoms: C_19  and  O_22 
ROOT
HETATM    1  O   UNL     1     -21.717  -5.257  -6.860  1.00  0.00    -0.319 OA
ENDROOT
BRANCH   1   2
HETATM    2  C   UNL     1     -21.062  -6.359  -6.408  1.00  0.00     0.258 C 
HETATM    3  O   UNL     1     -19.942  -6.734  -6.791  1.00  0.00    -0.265 OA
BRANCH   2   4
HETATM    4  C   UNL     1     -21.824  -7.035  -5.309  1.00  0.00     0.111 C 
BRANCH   4   5
HETATM    5  C   UNL     1     -20.919  -8.025  -4.557  1.00  0.00     0.010 C 
BRANCH   5   6
HETATM    6  C   UNL     1     -21.004  -9.442  -5.116  1.00  0.00     0.000 C 
BRANCH   6   7
HETATM    7  C   UNL     1     -22.011 -10.277  -4.335  1.00  0.00     0.000 C 
BRANCH   7   8
HETATM    8  C   UNL     1     -21.653 -10.303  -2.861  1.00  0.00     0.000 C 
BRANCH   8   9
HETATM    9  C   UNL     1     -22.582 -11.254  -2.123  1.00  0.00     0.000 C 
BRANCH   9  10
HETATM   10  C   UNL     1     -23.370 -10.491  -1.075  1.00  0.00     0.000 C 
BRANCH  10  11
HETATM   11  C   UNL     1     -22.424  -9.891  -0.050  1.00  0.00     0.000 C 
BRANCH  11  12
HETATM   12  C   UNL     1     -22.748  -8.420   0.159  1.00  0.00    -0.000 C 
BRANCH  12  13
HETATM   13  C   UNL     1     -21.696  -7.548  -0.511  1.00  0.00    -0.005 C 
HETATM   14  C   UNL     1     -22.356  -6.590  -1.485  1.00  0.00     0.005 C 
ENDBRANCH  12  13
ENDBRANCH  11  12
ENDBRANCH  10  11
ENDBRANCH   9  10
ENDBRANCH   8   9
ENDBRANCH   7   8
ENDBRANCH   6   7
ENDBRANCH   5   6
ENDBRANCH   4   5
ENDBRANCH   2   4
ENDBRANCH   1   2
BRANCH   1  15
HETATM   15  C   UNL     1     -21.383  -4.833  -8.192  1.00  0.00     0.213 C 
BRANCH  15  16
HETATM   16  C   UNL     1     -22.421  -3.944  -8.869  1.00  0.00     0.174 C 
BRANCH  16  17
HETATM   17  C   UNL     1     -22.613  -4.270 -10.368  1.00  0.00     0.183 C 
HETATM   18  C   UNL     1     -22.053  -3.130 -11.216  1.00  0.00     0.180 C 
HETATM   19  C   UNL     1     -22.882  -3.145 -12.497  1.00  0.00     0.173 C 
HETATM   20  C   UNL     1     -23.860  -4.290 -12.283  1.00  0.00     0.202 C 
HETATM   21  O   UNL     1     -23.962  -4.449 -10.847  1.00  0.00    -0.378 OA
BRANCH  18  22
HETATM   22  O   UNL     1     -20.657  -3.272 -11.419  1.00  0.00    -0.390 OA
HETATM   23  H   UNL     1     -20.506  -3.868 -12.169  1.00  0.00     0.210 HD
ENDBRANCH  18  22
BRANCH  19  24
HETATM   24  O   UNL     1     -22.107  -3.309 -13.677  1.00  0.00    -0.391 OA
HETATM   25  H   UNL     1     -22.692  -3.206 -14.443  1.00  0.00     0.210 HD
ENDBRANCH  19  24
ENDBRANCH  16  17
BRANCH  16  26
HETATM   26  O   UNL     1     -23.653  -3.985  -8.135  1.00  0.00    -0.391 OA
HETATM   27  H   UNL     1     -24.007  -4.890  -8.163  1.00  0.00     0.210 HD
ENDBRANCH  16  26
ENDBRANCH  15  16
ENDBRANCH   1  15
TORSDOF 17
ENDMDL
MODEL 7
REMARK VINA RESULT:      -6.5      1.787      3.414
REMARK  17 active torsions:
REMARK  status: ('A' for Active; 'I' for Inactive)
REMARK    1  A    between atoms: C_2  and  C_3 
REMARK    2  A    between atoms: C_3  and  C_4 
REMARK    3  A    between atoms: C_4  and  C_5 
REMARK    4  A    between atoms: C_5  and  C_6 
REMARK    5  A    between atoms: C_6  and  C_7 
REMARK    6  A    between atoms: C_7  and  C_8 
REMARK    7  A    between atoms: C_8  and  C_9 
REMARK    8  A    between atoms: C_9  and  C_10 
REMARK    9  A    between atoms: C_10  and  C_11 
REMARK   10  A    between atoms: C_11  and  C_12 
REMARK   11  A    between atoms: C_12  and  O_14 
REMARK   12  A    between atoms: O_14  and  C_15 
REMARK   13  A    between atoms: C_15  and  C_16 
REMARK   14  A    between atoms: C_16  and  C_17 
REMARK   15  A    between atoms: C_16  and  O_24 
REMARK   16  A    between atoms: C_18  and  O_23 
REMARK   17  A    between atoms: C_19  and  O_22 
ROOT
HETATM    1  O   UNL     1     -21.582  -6.332  -7.065  1.00  0.00    -0.319 OA
ENDROOT
BRANCH   1   2
HETATM    2  C   UNL     1     -21.536  -6.689  -5.754  1.00  0.00     0.258 C 
HETATM    3  O   UNL     1     -22.501  -6.673  -4.974  1.00  0.00    -0.265 OA
BRANCH   2   4
HETATM    4  C   UNL     1     -20.178  -7.195  -5.373  1.00  0.00     0.111 C 
BRANCH   4   5
HETATM    5  C   UNL     1     -20.251  -8.679  -4.973  1.00  0.00     0.010 C 
BRANCH   5   6
HETATM    6  C   UNL     1     -20.174  -8.885  -3.463  1.00  0.00     0.000 C 
BRANCH   6   7
HETATM    7  C   UNL     1     -19.810 -10.326  -3.127  1.00  0.00     0.000 C 
BRANCH   7   8
HETATM    8  C   UNL     1     -20.742 -10.877  -2.064  1.00  0.00     0.000 C 
BRANCH   8   9
HETATM    9  C   UNL     1     -22.123 -10.260  -2.221  1.00  0.00     0.000 C 
BRANCH   9  10
HETATM   10  C   UNL     1     -22.740 -10.030  -0.854  1.00  0.00     0.000 C 
BRANCH  10  11
HETATM   11  C   UNL     1     -21.662  -9.642   0.142  1.00  0.00     0.000 C 
BRANCH  11  12
HETATM   12  C   UNL     1     -21.312  -8.170  -0.018  1.00  0.00    -0.000 C 
BRANCH  12  13
HETATM   13  C   UNL     1     -22.556  -7.368  -0.372  1.00  0.00    -0.005 C 
HETATM   14  C   UNL     1     -22.250  -6.402  -1.500  1.00  0.00     0.005 C 
ENDBRANCH  12  13
ENDBRANCH  11  12
ENDBRANCH  10  11
ENDBRANCH   9  10
ENDBRANCH   8   9
ENDBRANCH   7   8
ENDBRANCH   6   7
ENDBRANCH   5   6
ENDBRANCH   4   5
ENDBRANCH   2   4
ENDBRANCH   1   2
BRANCH   1  15
HETATM   15  C   UNL     1     -21.214  -4.973  -7.357  1.00  0.00     0.213 C 
BRANCH  15  16
HETATM   16  C   UNL     1     -22.382  -4.010  -7.540  1.00  0.00     0.174 C 
BRANCH  16  17
HETATM   17  C   UNL     1     -22.615  -3.614  -9.016  1.00  0.00     0.183 C 
HETATM   18  C   UNL     1     -24.081  -3.836  -9.380  1.00  0.00     0.180 C 
HETATM   19  C   UNL     1     -24.075  -4.141 -10.876  1.00  0.00     0.173 C 
HETATM   20  C   UNL     1     -22.603  -4.077 -11.254  1.00  0.00     0.202 C 
HETATM   21  O   UNL     1     -21.877  -4.331 -10.027  1.00  0.00    -0.378 OA
BRANCH  18  22
HETATM   22  O   UNL     1     -24.881  -2.725  -9.012  1.00  0.00    -0.390 OA
HETATM   23  H   UNL     1     -24.396  -2.185  -8.369  1.00  0.00     0.210 HD
ENDBRANCH  18  22
BRANCH  19  24
HETATM   24  O   UNL     1     -24.871  -3.248 -11.643  1.00  0.00    -0.391 OA
HETATM   25  H   UNL     1     -24.762  -3.471 -12.580  1.00  0.00     0.210 HD
ENDBRANCH  19  24
ENDBRANCH  16  17
BRANCH  16  26
HETATM   26  O   UNL     1     -23.560  -4.548  -6.923  1.00  0.00    -0.391 OA
HETATM   27  H   UNL     1     -23.306  -5.003  -6.102  1.00  0.00     0.210 HD
ENDBRANCH  16  26
ENDBRANCH  15  16
ENDBRANCH   1  15
TORSDOF 17
ENDMDL
MODEL 8
REMARK VINA RESULT:      -6.4      1.758      2.636
REMARK  17 active torsions:
REMARK  status: ('A' for Active; 'I' for Inactive)
REMARK    1  A    between atoms: C_2  and  C_3 
REMARK    2  A    between atoms: C_3  and  C_4 
REMARK    3  A    between atoms: C_4  and  C_5 
REMARK    4  A    between atoms: C_5  and  C_6 
REMARK    5  A    between atoms: C_6  and  C_7 
REMARK    6  A    between atoms: C_7  and  C_8 
REMARK    7  A    between atoms: C_8  and  C_9 
REMARK    8  A    between atoms: C_9  and  C_10 
REMARK    9  A    between atoms: C_10  and  C_11 
REMARK   10  A    between atoms: C_11  and  C_12 
REMARK   11  A    between atoms: C_12  and  O_14 
REMARK   12  A    between atoms: O_14  and  C_15 
REMARK   13  A    between atoms: C_15  and  C_16 
REMARK   14  A    between atoms: C_16  and  C_17 
REMARK   15  A    between atoms: C_16  and  O_24 
REMARK   16  A    between atoms: C_18  and  O_23 
REMARK   17  A    between atoms: C_19  and  O_22 
ROOT
HETATM    1  O   UNL     1     -20.735  -5.195  -8.551  1.00  0.00    -0.319 OA
ENDROOT
BRANCH   1   2
HETATM    2  C   UNL     1     -21.303  -4.834  -7.370  1.00  0.00     0.258 C 
HETATM    3  O   UNL     1     -22.469  -4.430  -7.229  1.00  0.00    -0.265 OA
BRANCH   2   4
HETATM    4  C   UNL     1     -20.369  -5.067  -6.222  1.00  0.00     0.111 C 
BRANCH   4   5
HETATM    5  C   UNL     1     -20.941  -6.133  -5.271  1.00  0.00     0.010 C 
BRANCH   5   6
HETATM    6  C   UNL     1     -20.164  -7.445  -5.323  1.00  0.00     0.000 C 
BRANCH   6   7
HETATM    7  C   UNL     1     -21.085  -8.634  -5.083  1.00  0.00     0.000 C 
BRANCH   7   8
HETATM    8  C   UNL     1     -20.334  -9.760  -4.398  1.00  0.00     0.000 C 
BRANCH   8   9
HETATM    9  C   UNL     1     -21.312 -10.646  -3.641  1.00  0.00     0.000 C 
BRANCH   9  10
HETATM   10  C   UNL     1     -20.958 -10.657  -2.166  1.00  0.00     0.000 C 
BRANCH  10  11
HETATM   11  C   UNL     1     -20.618  -9.252  -1.704  1.00  0.00     0.000 C 
BRANCH  11  12
HETATM   12  C   UNL     1     -21.205  -9.002  -0.323  1.00  0.00    -0.000 C 
BRANCH  12  13
HETATM   13  C   UNL     1     -22.137  -7.799  -0.357  1.00  0.00    -0.005 C 
HETATM   14  C   UNL     1     -23.206  -7.938   0.710  1.00  0.00     0.005 C 
ENDBRANCH  12  13
ENDBRANCH  11  12
ENDBRANCH  10  11
ENDBRANCH   9  10
ENDBRANCH   8   9
ENDBRANCH   7   8
ENDBRANCH   6   7
ENDBRANCH   5   6
ENDBRANCH   4   5
ENDBRANCH   2   4
ENDBRANCH   1   2
BRANCH   1  15
HETATM   15  C   UNL     1     -20.552  -4.135  -9.506  1.00  0.00     0.213 C 
BRANCH  15  16
HETATM   16  C   UNL     1     -20.794  -4.524 -10.961  1.00  0.00     0.174 C 
BRANCH  16  17
HETATM   17  C   UNL     1     -22.261  -4.326 -11.405  1.00  0.00     0.183 C 
HETATM   18  C   UNL     1     -22.368  -3.076 -12.276  1.00  0.00     0.180 C 
HETATM   19  C   UNL     1     -23.786  -2.558 -12.053  1.00  0.00     0.173 C 
HETATM   20  C   UNL     1     -24.383  -3.549 -11.065  1.00  0.00     0.202 C 
HETATM   21  O   UNL     1     -23.253  -4.137 -10.375  1.00  0.00    -0.378 OA
BRANCH  18  22
HETATM   22  O   UNL     1     -22.053  -3.358 -13.629  1.00  0.00    -0.390 OA
HETATM   23  H   UNL     1     -21.799  -2.534 -14.072  1.00  0.00     0.210 HD
ENDBRANCH  18  22
BRANCH  19  24
HETATM   24  O   UNL     1     -24.551  -2.457 -13.247  1.00  0.00    -0.391 OA
HETATM   25  H   UNL     1     -25.395  -2.914 -13.109  1.00  0.00     0.210 HD
ENDBRANCH  19  24
ENDBRANCH  16  17
BRANCH  16  26
HETATM   26  O   UNL     1     -19.865  -3.839 -11.811  1.00  0.00    -0.391 OA
HETATM   27  H   UNL     1     -19.285  -4.492 -12.237  1.00  0.00     0.210 HD
ENDBRANCH  16  26
ENDBRANCH  15  16
ENDBRANCH   1  15
TORSDOF 17
ENDMDL
MODEL 9
REMARK VINA RESULT:      -6.3      1.850      3.446
REMARK  17 active torsions:
REMARK  status: ('A' for Active; 'I' for Inactive)
REMARK    1  A    between atoms: C_2  and  C_3 
REMARK    2  A    between atoms: C_3  and  C_4 
REMARK    3  A    between atoms: C_4  and  C_5 
REMARK    4  A    between atoms: C_5  and  C_6 
REMARK    5  A    between atoms: C_6  and  C_7 
REMARK    6  A    between atoms: C_7  and  C_8 
REMARK    7  A    between atoms: C_8  and  C_9 
REMARK    8  A    between atoms: C_9  and  C_10 
REMARK    9  A    between atoms: C_10  and  C_11 
REMARK   10  A    between atoms: C_11  and  C_12 
REMARK   11  A    between atoms: C_12  and  O_14 
REMARK   12  A    between atoms: O_14  and  C_15 
REMARK   13  A    between atoms: C_15  and  C_16 
REMARK   14  A    between atoms: C_16  and  C_17 
REMARK   15  A    between atoms: C_16  and  O_24 
REMARK   16  A    between atoms: C_18  and  O_23 
REMARK   17  A    between atoms: C_19  and  O_22 
ROOT
HETATM    1  O   UNL     1     -22.030  -6.311  -6.117  1.00  0.00    -0.319 OA
ENDROOT
BRANCH   1   2
HETATM    2  C   UNL     1     -21.184  -6.382  -5.055  1.00  0.00     0.258 C 
HETATM    3  O   UNL     1     -20.886  -5.434  -4.312  1.00  0.00    -0.265 OA
BRANCH   2   4
HETATM    4  C   UNL     1     -20.708  -7.785  -4.829  1.00  0.00     0.111 C 
BRANCH   4   5
HETATM    5  C   UNL     1     -20.424  -8.023  -3.336  1.00  0.00     0.010 C 
BRANCH   5   6
HETATM    6  C   UNL     1     -21.668  -8.448  -2.561  1.00  0.00     0.000 C 
BRANCH   6   7
HETATM    7  C   UNL     1     -21.887  -7.554  -1.348  1.00  0.00     0.000 C 
BRANCH   7   8
HETATM    8  C   UNL     1     -22.321  -8.378  -0.150  1.00  0.00     0.000 C 
BRANCH   8   9
HETATM    9  C   UNL     1     -21.303  -8.232   0.970  1.00  0.00     0.000 C 
BRANCH   9  10
HETATM   10  C   UNL     1     -20.799  -9.601   1.386  1.00  0.00     0.000 C 
BRANCH  10  11
HETATM   11  C   UNL     1     -21.221 -10.641   0.365  1.00  0.00     0.000 C 
BRANCH  11  12
HETATM   12  C   UNL     1     -20.007 -11.133  -0.409  1.00  0.00    -0.000 C 
BRANCH  12  13
HETATM   13  C   UNL     1     -20.447 -11.875  -1.663  1.00  0.00    -0.005 C 
HETATM   14  C   UNL     1     -21.956 -12.024  -1.677  1.00  0.00     0.005 C 
ENDBRANCH  12  13
ENDBRANCH  11  12
ENDBRANCH  10  11
ENDBRANCH   9  10
ENDBRANCH   8   9
ENDBRANCH   7   8
ENDBRANCH   6   7
ENDBRANCH   5   6
ENDBRANCH   4   5
ENDBRANCH   2   4
ENDBRANCH   1   2
BRANCH   1  15
HETATM   15  C   UNL     1     -21.614  -5.452  -7.192  1.00  0.00     0.213 C 
BRANCH  15  16
HETATM   16  C   UNL     1     -22.492  -4.226  -7.418  1.00  0.00     0.174 C 
BRANCH  16  17
HETATM   17  C   UNL     1     -22.602  -3.826  -8.907  1.00  0.00     0.183 C 
HETATM   18  C   UNL     1     -24.037  -4.030  -9.388  1.00  0.00     0.180 C 
HETATM   19  C   UNL     1     -23.916  -4.334 -10.879  1.00  0.00     0.173 C 
HETATM   20  C   UNL     1     -22.418  -4.287 -11.138  1.00  0.00     0.202 C 
HETATM   21  O   UNL     1     -21.795  -4.551  -9.857  1.00  0.00    -0.378 OA
BRANCH  18  22
HETATM   22  O   UNL     1     -24.851  -2.910  -9.083  1.00  0.00    -0.390 OA
HETATM   23  H   UNL     1     -25.723  -3.222  -8.797  1.00  0.00     0.210 HD
ENDBRANCH  18  22
BRANCH  19  24
HETATM   24  O   UNL     1     -24.637  -3.431 -11.706  1.00  0.00    -0.391 OA
HETATM   25  H   UNL     1     -25.172  -3.948 -12.328  1.00  0.00     0.210 HD
ENDBRANCH  19  24
ENDBRANCH  16  17
BRANCH  16  26
HETATM   26  O   UNL     1     -23.774  -4.423  -6.806  1.00  0.00    -0.391 OA
HETATM   27  H   UNL     1     -23.645  -4.736  -5.895  1.00  0.00     0.210 HD
ENDBRANCH  16  26
ENDBRANCH  15  16
ENDBRANCH   1  15
TORSDOF 17
ENDMDL
