MODEL 1
REMARK VINA RESULT:      -6.9      0.000      0.000
REMARK  19 active torsions:
REMARK  status: ('A' for Active; 'I' for Inactive)
REMARK    1  A    between atoms: C_2  and  C_3 
REMARK    2  A    between atoms: C_3  and  C_4 
REMARK    3  A    between atoms: C_4  and  C_5 
REMARK    4  A    between atoms: C_5  and  C_6 
REMARK    5  A    between atoms: C_6  and  C_7 
REMARK    6  A    between atoms: C_7  and  C_8 
REMARK    7  A    between atoms: C_8  and  O_10 
REMARK    8  A    between atoms: O_10  and  C_11 
REMARK    9  A    between atoms: C_11  and  C_12 
REMARK   10  A    between atoms: C_17  and  O_30 
REMARK   11  A    between atoms: C_18  and  C_19 
REMARK   12  A    between atoms: C_19  and  O_20 
REMARK   13  A    between atoms: O_20  and  C_21 
REMARK   14  A    between atoms: C_21  and  C_23 
REMARK   15  A    between atoms: C_23  and  C_24 
REMARK   16  A    between atoms: C_24  and  C_25 
REMARK   17  A    between atoms: C_25  and  C_26 
REMARK   18  A    between atoms: C_26  and  C_27 
REMARK   19  A    between atoms: C_27  and  C_28 
ROOT
HETATM    1  C   UNL     1     -21.256  -6.856  -3.163  1.00  0.00    -0.007 A 
HETATM    2  C   UNL     1     -22.128  -6.239  -2.263  1.00  0.00     0.098 A 
HETATM    3  N   UNL     1     -22.401  -6.687  -1.019  1.00  0.00    -0.367 N 
ATOM      4  HN  UNL     1     -23.048  -6.191  -0.406  1.00  0.00     0.165 HD
HETATM    5  C   UNL     1     -21.783  -7.819  -0.621  1.00  0.00     0.039 A 
HETATM    6  C   UNL     1     -20.891  -8.515  -1.443  1.00  0.00     0.096 A 
HETATM    7  C   UNL     1     -20.615  -8.038  -2.743  1.00  0.00     0.011 A 
HETATM    8  C   UNL     1     -22.116  -8.301   0.760  1.00  0.00     0.071 C 
ENDROOT
BRANCH   1   9
HETATM    9  C   UNL     1     -21.075  -6.244  -4.530  1.00  0.00     0.219 C 
BRANCH   9  10
HETATM   10  O   UNL     1     -22.266  -6.313  -5.330  1.00  0.00    -0.317 OA
BRANCH  10  11
HETATM   11  C   UNL     1     -22.326  -5.372  -6.312  1.00  0.00     0.259 C 
HETATM   12  O   UNL     1     -23.314  -4.696  -6.568  1.00  0.00    -0.265 OA
BRANCH  11  13
HETATM   13  C   UNL     1     -21.011  -5.275  -7.053  1.00  0.00     0.111 C 
BRANCH  13  14
HETATM   14  C   UNL     1     -21.126  -4.372  -8.285  1.00  0.00     0.010 C 
BRANCH  14  15
HETATM   15  C   UNL     1     -19.898  -4.450  -9.199  1.00  0.00     0.000 C 
BRANCH  15  16
HETATM   16  C   UNL     1     -20.316  -4.447 -10.672  1.00  0.00     0.000 C 
BRANCH  16  17
HETATM   17  C   UNL     1     -21.513  -3.528 -10.914  1.00  0.00    -0.000 C 
BRANCH  17  18
HETATM   18  C   UNL     1     -22.550  -4.190 -11.822  1.00  0.00    -0.005 C 
HETATM   19  C   UNL     1     -23.654  -4.846 -11.009  1.00  0.00     0.005 C 
ENDBRANCH  17  18
ENDBRANCH  16  17
ENDBRANCH  15  16
ENDBRANCH  14  15
ENDBRANCH  13  14
ENDBRANCH  11  13
ENDBRANCH  10  11
ENDBRANCH   9  10
ENDBRANCH   1   9
BRANCH   7  20
HETATM   20  C   UNL     1     -19.661  -8.770  -3.659  1.00  0.00     0.221 C 
BRANCH  20  21
HETATM   21  O   UNL     1     -20.045 -10.133  -3.893  1.00  0.00    -0.317 OA
BRANCH  21  22
HETATM   22  C   UNL     1     -20.980 -10.298  -4.878  1.00  0.00     0.259 C 
HETATM   23  O   UNL     1     -21.048  -9.652  -5.897  1.00  0.00    -0.265 OA
BRANCH  22  24
HETATM   24  C   UNL     1     -21.922 -11.427  -4.495  1.00  0.00     0.111 C 
BRANCH  24  25
HETATM   25  C   UNL     1     -22.946 -10.961  -3.466  1.00  0.00     0.010 C 
BRANCH  25  26
HETATM   26  C   UNL     1     -22.826 -11.701  -2.133  1.00  0.00     0.000 C 
BRANCH  26  27
HETATM   27  C   UNL     1     -23.863 -11.174  -1.142  1.00  0.00     0.000 C 
BRANCH  27  28
HETATM   28  C   UNL     1     -23.706 -11.821   0.230  1.00  0.00    -0.000 C 
BRANCH  28  29
HETATM   29  C   UNL     1     -22.253 -12.213   0.492  1.00  0.00    -0.005 C 
HETATM   30  C   UNL     1     -22.168 -13.375   1.467  1.00  0.00     0.005 C 
ENDBRANCH  28  29
ENDBRANCH  27  28
ENDBRANCH  26  27
ENDBRANCH  25  26
ENDBRANCH  24  25
ENDBRANCH  22  24
ENDBRANCH  21  22
ENDBRANCH  20  21
ENDBRANCH   7  20
BRANCH   6  31
HETATM   31  O   UNL     1     -20.281  -9.660  -0.996  1.00  0.00    -0.358 OA
HETATM   32  H   UNL     1     -19.401  -9.449  -0.637  1.00  0.00     0.217 HD
ENDBRANCH   6  31
TORSDOF 19
ENDMDL
MODEL 2
REMARK VINA RESULT:      -6.7      2.098      9.169
REMARK  19 active torsions:
REMARK  status: ('A' for Active; 'I' for Inactive)
REMARK    1  A    between atoms: C_2  and  C_3 
REMARK    2  A    between atoms: C_3  and  C_4 
REMARK    3  A    between atoms: C_4  and  C_5 
REMARK    4  A    between atoms: C_5  and  C_6 
REMARK    5  A    between atoms: C_6  and  C_7 
REMARK    6  A    between atoms: C_7  and  C_8 
REMARK    7  A    between atoms: C_8  and  O_10 
REMARK    8  A    between atoms: O_10  and  C_11 
REMARK    9  A    between atoms: C_11  and  C_12 
REMARK   10  A    between atoms: C_17  and  O_30 
REMARK   11  A    between atoms: C_18  and  C_19 
REMARK   12  A    between atoms: C_19  and  O_20 
REMARK   13  A    between atoms: O_20  and  C_21 
REMARK   14  A    between atoms: C_21  and  C_23 
REMARK   15  A    between atoms: C_23  and  C_24 
REMARK   16  A    between atoms: C_24  and  C_25 
REMARK   17  A    between atoms: C_25  and  C_26 
REMARK   18  A    between atoms: C_26  and  C_27 
REMARK   19  A    between atoms: C_27  and  C_28 
ROOT
HETATM    1  C   UNL     1     -19.406  -9.288  -2.960  1.00  0.00    -0.007 A 
HETATM    2  C   UNL     1     -18.189  -9.744  -2.450  1.00  0.00     0.098 A 
HETATM    3  N   UNL     1     -17.075  -9.962  -3.183  1.00  0.00    -0.367 N 
ATOM      4  HN  UNL     1     -16.213 -10.296  -2.752  1.00  0.00     0.165 HD
HETATM    5  C   UNL     1     -17.152  -9.721  -4.508  1.00  0.00     0.039 A 
HETATM    6  C   UNL     1     -18.323  -9.260  -5.120  1.00  0.00     0.096 A 
HETATM    7  C   UNL     1     -19.481  -9.039  -4.344  1.00  0.00     0.011 A 
HETATM    8  C   UNL     1     -15.905  -9.984  -5.299  1.00  0.00     0.071 C 
ENDROOT
BRANCH   1   9
HETATM    9  C   UNL     1     -20.568  -9.117  -2.013  1.00  0.00     0.219 C 
BRANCH   9  10
HETATM   10  O   UNL     1     -20.724  -7.761  -1.565  1.00  0.00    -0.317 OA
BRANCH  10  11
HETATM   11  C   UNL     1     -21.879  -7.536  -0.880  1.00  0.00     0.259 C 
HETATM   12  O   UNL     1     -22.684  -6.654  -1.148  1.00  0.00    -0.265 OA
BRANCH  11  13
HETATM   13  C   UNL     1     -22.035  -8.516   0.261  1.00  0.00     0.111 C 
BRANCH  13  14
HETATM   14  C   UNL     1     -23.437  -9.132   0.283  1.00  0.00     0.010 C 
BRANCH  14  15
HETATM   15  C   UNL     1     -23.541 -10.409  -0.559  1.00  0.00     0.000 C 
BRANCH  15  16
HETATM   16  C   UNL     1     -23.525 -11.653   0.335  1.00  0.00     0.000 C 
BRANCH  16  17
HETATM   17  C   UNL     1     -22.153 -12.327   0.333  1.00  0.00    -0.000 C 
BRANCH  17  18
HETATM   18  C   UNL     1     -22.056 -13.395   1.423  1.00  0.00    -0.005 C 
HETATM   19  C   UNL     1     -23.426 -13.729   1.990  1.00  0.00     0.005 C 
ENDBRANCH  17  18
ENDBRANCH  16  17
ENDBRANCH  15  16
ENDBRANCH  14  15
ENDBRANCH  13  14
ENDBRANCH  11  13
ENDBRANCH  10  11
ENDBRANCH   9  10
ENDBRANCH   1   9
BRANCH   7  20
HETATM   20  C   UNL     1     -20.764  -8.549  -4.976  1.00  0.00     0.221 C 
BRANCH  20  21
HETATM   21  O   UNL     1     -20.603  -7.309  -5.680  1.00  0.00    -0.317 OA
BRANCH  21  22
HETATM   22  C   UNL     1     -21.174  -6.229  -5.064  1.00  0.00     0.259 C 
HETATM   23  O   UNL     1     -22.220  -6.236  -4.460  1.00  0.00    -0.265 OA
BRANCH  22  24
HETATM   24  C   UNL     1     -20.282  -5.013  -5.254  1.00  0.00     0.111 C 
BRANCH  24  25
HETATM   25  C   UNL     1     -19.899  -4.837  -6.720  1.00  0.00     0.010 C 
BRANCH  25  26
HETATM   26  C   UNL     1     -20.838  -3.889  -7.469  1.00  0.00     0.000 C 
BRANCH  26  27
HETATM   27  C   UNL     1     -21.825  -4.688  -8.319  1.00  0.00     0.000 C 
BRANCH  27  28
HETATM   28  C   UNL     1     -22.348  -3.864  -9.492  1.00  0.00    -0.000 C 
BRANCH  28  29
HETATM   29  C   UNL     1     -21.422  -3.977 -10.701  1.00  0.00    -0.005 C 
HETATM   30  C   UNL     1     -21.871  -3.053 -11.821  1.00  0.00     0.005 C 
ENDBRANCH  28  29
ENDBRANCH  27  28
ENDBRANCH  26  27
ENDBRANCH  25  26
ENDBRANCH  24  25
ENDBRANCH  22  24
ENDBRANCH  21  22
ENDBRANCH  20  21
ENDBRANCH   7  20
BRANCH   6  31
HETATM   31  O   UNL     1     -18.355  -9.024  -6.472  1.00  0.00    -0.358 OA
HETATM   32  H   UNL     1     -19.276  -8.922  -6.770  1.00  0.00     0.217 HD
ENDBRANCH   6  31
TORSDOF 19
ENDMDL
MODEL 3
REMARK VINA RESULT:      -6.7      2.477      3.449
REMARK  19 active torsions:
REMARK  status: ('A' for Active; 'I' for Inactive)
REMARK    1  A    between atoms: C_2  and  C_3 
REMARK    2  A    between atoms: C_3  and  C_4 
REMARK    3  A    between atoms: C_4  and  C_5 
REMARK    4  A    between atoms: C_5  and  C_6 
REMARK    5  A    between atoms: C_6  and  C_7 
REMARK    6  A    between atoms: C_7  and  C_8 
REMARK    7  A    between atoms: C_8  and  O_10 
REMARK    8  A    between atoms: O_10  and  C_11 
REMARK    9  A    between atoms: C_11  and  C_12 
REMARK   10  A    between atoms: C_17  and  O_30 
REMARK   11  A    between atoms: C_18  and  C_19 
REMARK   12  A    between atoms: C_19  and  O_20 
REMARK   13  A    between atoms: O_20  and  C_21 
REMARK   14  A    between atoms: C_21  and  C_23 
REMARK   15  A    between atoms: C_23  and  C_24 
REMARK   16  A    between atoms: C_24  and  C_25 
REMARK   17  A    between atoms: C_25  and  C_26 
REMARK   18  A    between atoms: C_26  and  C_27 
REMARK   19  A    between atoms: C_27  and  C_28 
ROOT
HETATM    1  C   UNL     1     -21.662  -6.927  -3.255  1.00  0.00    -0.007 A 
HETATM    2  C   UNL     1     -22.258  -6.240  -2.194  1.00  0.00     0.098 A 
HETATM    3  N   UNL     1     -22.258  -6.653  -0.908  1.00  0.00    -0.367 N 
ATOM      4  HN  UNL     1     -22.710  -6.106  -0.175  1.00  0.00     0.165 HD
HETATM    5  C   UNL     1     -21.635  -7.818  -0.634  1.00  0.00     0.039 A 
HETATM    6  C   UNL     1     -21.005  -8.583  -1.622  1.00  0.00     0.096 A 
HETATM    7  C   UNL     1     -21.015  -8.143  -2.963  1.00  0.00     0.011 A 
HETATM    8  C   UNL     1     -21.661  -8.257   0.800  1.00  0.00     0.071 C 
ENDROOT
BRANCH   1   9
HETATM    9  C   UNL     1     -21.772  -6.347  -4.644  1.00  0.00     0.219 C 
BRANCH   9  10
HETATM   10  O   UNL     1     -20.679  -5.472  -4.966  1.00  0.00    -0.317 OA
BRANCH  10  11
HETATM   11  C   UNL     1     -20.155  -5.678  -6.206  1.00  0.00     0.259 C 
HETATM   12  O   UNL     1     -19.917  -6.778  -6.686  1.00  0.00    -0.265 OA
BRANCH  11  13
HETATM   13  C   UNL     1     -19.901  -4.365  -6.913  1.00  0.00     0.111 C 
BRANCH  13  14
HETATM   14  C   UNL     1     -21.192  -3.782  -7.495  1.00  0.00     0.010 C 
BRANCH  14  15
HETATM   15  C   UNL     1     -21.591  -4.426  -8.828  1.00  0.00     0.000 C 
BRANCH  15  16
HETATM   16  C   UNL     1     -20.398  -4.478  -9.785  1.00  0.00     0.000 C 
BRANCH  16  17
HETATM   17  C   UNL     1     -20.611  -3.574 -10.999  1.00  0.00    -0.000 C 
BRANCH  17  18
HETATM   18  C   UNL     1     -21.821  -4.020 -11.821  1.00  0.00    -0.005 C 
HETATM   19  C   UNL     1     -22.597  -2.825 -12.351  1.00  0.00     0.005 C 
ENDBRANCH  17  18
ENDBRANCH  16  17
ENDBRANCH  15  16
ENDBRANCH  14  15
ENDBRANCH  13  14
ENDBRANCH  11  13
ENDBRANCH  10  11
ENDBRANCH   9  10
ENDBRANCH   1   9
BRANCH   7  20
HETATM   20  C   UNL     1     -20.351  -8.950  -4.056  1.00  0.00     0.221 C 
BRANCH  20  21
HETATM   21  O   UNL     1     -18.919  -8.946  -3.962  1.00  0.00    -0.317 OA
BRANCH  21  22
HETATM   22  C   UNL     1     -18.287  -9.712  -4.904  1.00  0.00     0.259 C 
HETATM   23  O   UNL     1     -18.459  -9.640  -6.098  1.00  0.00    -0.265 OA
BRANCH  22  24
HETATM   24  C   UNL     1     -17.328 -10.668  -4.214  1.00  0.00     0.111 C 
BRANCH  24  25
HETATM   25  C   UNL     1     -16.056  -9.947  -3.778  1.00  0.00     0.010 C 
BRANCH  25  26
HETATM   26  C   UNL     1     -15.795 -10.061  -2.275  1.00  0.00     0.000 C 
BRANCH  26  27
HETATM   27  C   UNL     1     -16.055 -11.491  -1.802  1.00  0.00     0.000 C 
BRANCH  27  28
HETATM   28  C   UNL     1     -15.698 -11.666  -0.329  1.00  0.00    -0.000 C 
BRANCH  28  29
HETATM   29  C   UNL     1     -16.832 -12.347   0.435  1.00  0.00    -0.005 C 
HETATM   30  C   UNL     1     -18.164 -12.141  -0.268  1.00  0.00     0.005 C 
ENDBRANCH  28  29
ENDBRANCH  27  28
ENDBRANCH  26  27
ENDBRANCH  25  26
ENDBRANCH  24  25
ENDBRANCH  22  24
ENDBRANCH  21  22
ENDBRANCH  20  21
ENDBRANCH   7  20
BRANCH   6  31
HETATM   31  O   UNL     1     -20.380  -9.760  -1.296  1.00  0.00    -0.358 OA
HETATM   32  H   UNL     1     -20.831 -10.507  -1.729  1.00  0.00     0.217 HD
ENDBRANCH   6  31
TORSDOF 19
ENDMDL
MODEL 4
REMARK VINA RESULT:      -6.5      3.240      4.846
REMARK  19 active torsions:
REMARK  status: ('A' for Active; 'I' for Inactive)
REMARK    1  A    between atoms: C_2  and  C_3 
REMARK    2  A    between atoms: C_3  and  C_4 
REMARK    3  A    between atoms: C_4  and  C_5 
REMARK    4  A    between atoms: C_5  and  C_6 
REMARK    5  A    between atoms: C_6  and  C_7 
REMARK    6  A    between atoms: C_7  and  C_8 
REMARK    7  A    between atoms: C_8  and  O_10 
REMARK    8  A    between atoms: O_10  and  C_11 
REMARK    9  A    between atoms: C_11  and  C_12 
REMARK   10  A    between atoms: C_17  and  O_30 
REMARK   11  A    between atoms: C_18  and  C_19 
REMARK   12  A    between atoms: C_19  and  O_20 
REMARK   13  A    between atoms: O_20  and  C_21 
REMARK   14  A    between atoms: C_21  and  C_23 
REMARK   15  A    between atoms: C_23  and  C_24 
REMARK   16  A    between atoms: C_24  and  C_25 
REMARK   17  A    between atoms: C_25  and  C_26 
REMARK   18  A    between atoms: C_26  and  C_27 
REMARK   19  A    between atoms: C_27  and  C_28 
ROOT
HETATM    1  C   UNL     1     -21.576  -6.965  -3.215  1.00  0.00    -0.007 A 
HETATM    2  C   UNL     1     -22.251  -6.316  -2.179  1.00  0.00     0.098 A 
HETATM    3  N   UNL     1     -22.275  -6.727  -0.893  1.00  0.00    -0.367 N 
ATOM      4  HN  UNL     1     -22.787  -6.209  -0.179  1.00  0.00     0.165 HD
HETATM    5  C   UNL     1     -21.594  -7.852  -0.593  1.00  0.00     0.039 A 
HETATM    6  C   UNL     1     -20.882  -8.578  -1.554  1.00  0.00     0.096 A 
HETATM    7  C   UNL     1     -20.867  -8.140  -2.896  1.00  0.00     0.011 A 
HETATM    8  C   UNL     1     -21.648  -8.293   0.840  1.00  0.00     0.071 C 
ENDROOT
BRANCH   1   9
HETATM    9  C   UNL     1     -21.667  -6.393  -4.608  1.00  0.00     0.219 C 
BRANCH   9  10
HETATM   10  O   UNL     1     -20.537  -5.573  -4.945  1.00  0.00    -0.317 OA
BRANCH  10  11
HETATM   11  C   UNL     1     -20.154  -5.670  -6.248  1.00  0.00     0.259 C 
HETATM   12  O   UNL     1     -19.682  -6.677  -6.760  1.00  0.00    -0.265 OA
BRANCH  11  13
HETATM   13  C   UNL     1     -20.382  -4.367  -6.981  1.00  0.00     0.111 C 
BRANCH  13  14
HETATM   14  C   UNL     1     -21.171  -4.583  -8.276  1.00  0.00     0.010 C 
BRANCH  14  15
HETATM   15  C   UNL     1     -20.355  -4.260  -9.534  1.00  0.00     0.000 C 
BRANCH  15  16
HETATM   16  C   UNL     1     -21.262  -4.173 -10.764  1.00  0.00     0.000 C 
BRANCH  16  17
HETATM   17  C   UNL     1     -22.736  -4.085 -10.369  1.00  0.00    -0.000 C 
BRANCH  17  18
HETATM   18  C   UNL     1     -23.524  -3.211 -11.346  1.00  0.00    -0.005 C 
HETATM   19  C   UNL     1     -22.682  -2.845 -12.558  1.00  0.00     0.005 C 
ENDBRANCH  17  18
ENDBRANCH  16  17
ENDBRANCH  15  16
ENDBRANCH  14  15
ENDBRANCH  13  14
ENDBRANCH  11  13
ENDBRANCH  10  11
ENDBRANCH   9  10
ENDBRANCH   1   9
BRANCH   7  20
HETATM   20  C   UNL     1     -20.115  -8.905  -3.961  1.00  0.00     0.221 C 
BRANCH  20  21
HETATM   21  O   UNL     1     -18.691  -8.792  -3.829  1.00  0.00    -0.317 OA
BRANCH  21  22
HETATM   22  C   UNL     1     -18.029  -9.988  -3.773  1.00  0.00     0.259 C 
HETATM   23  O   UNL     1     -18.469 -11.013  -3.306  1.00  0.00    -0.265 OA
BRANCH  22  24
HETATM   24  C   UNL     1     -16.652  -9.832  -4.396  1.00  0.00     0.111 C 
BRANCH  24  25
HETATM   25  C   UNL     1     -16.691 -10.122  -5.892  1.00  0.00     0.010 C 
BRANCH  25  26
HETATM   26  C   UNL     1     -15.724 -11.233  -6.307  1.00  0.00     0.000 C 
BRANCH  26  27
HETATM   27  C   UNL     1     -15.132 -11.905  -5.070  1.00  0.00     0.000 C 
BRANCH  27  28
HETATM   28  C   UNL     1     -13.619 -12.065  -5.190  1.00  0.00    -0.000 C 
BRANCH  28  29
HETATM   29  C   UNL     1     -13.248 -12.876  -6.430  1.00  0.00    -0.005 C 
HETATM   30  C   UNL     1     -13.308 -14.367  -6.145  1.00  0.00     0.005 C 
ENDBRANCH  28  29
ENDBRANCH  27  28
ENDBRANCH  26  27
ENDBRANCH  25  26
ENDBRANCH  24  25
ENDBRANCH  22  24
ENDBRANCH  21  22
ENDBRANCH  20  21
ENDBRANCH   7  20
BRANCH   6  31
HETATM   31  O   UNL     1     -20.199  -9.715  -1.203  1.00  0.00    -0.358 OA
HETATM   32  H   UNL     1     -19.410  -9.481  -0.682  1.00  0.00     0.217 HD
ENDBRANCH   6  31
TORSDOF 19
ENDMDL
MODEL 5
REMARK VINA RESULT:      -6.5      2.355      7.896
REMARK  19 active torsions:
REMARK  status: ('A' for Active; 'I' for Inactive)
REMARK    1  A    between atoms: C_2  and  C_3 
REMARK    2  A    between atoms: C_3  and  C_4 
REMARK    3  A    between atoms: C_4  and  C_5 
REMARK    4  A    between atoms: C_5  and  C_6 
REMARK    5  A    between atoms: C_6  and  C_7 
REMARK    6  A    between atoms: C_7  and  C_8 
REMARK    7  A    between atoms: C_8  and  O_10 
REMARK    8  A    between atoms: O_10  and  C_11 
REMARK    9  A    between atoms: C_11  and  C_12 
REMARK   10  A    between atoms: C_17  and  O_30 
REMARK   11  A    between atoms: C_18  and  C_19 
REMARK   12  A    between atoms: C_19  and  O_20 
REMARK   13  A    between atoms: O_20  and  C_21 
REMARK   14  A    between atoms: C_21  and  C_23 
REMARK   15  A    between atoms: C_23  and  C_24 
REMARK   16  A    between atoms: C_24  and  C_25 
REMARK   17  A    between atoms: C_25  and  C_26 
REMARK   18  A    between atoms: C_26  and  C_27 
REMARK   19  A    between atoms: C_27  and  C_28 
ROOT
HETATM    1  C   UNL     1     -20.564  -8.344  -2.976  1.00  0.00    -0.007 A 
HETATM    2  C   UNL     1     -20.811  -9.337  -2.025  1.00  0.00     0.098 A 
HETATM    3  N   UNL     1     -21.596  -9.186  -0.936  1.00  0.00    -0.367 N 
ATOM      4  HN  UNL     1     -21.739  -9.951  -0.275  1.00  0.00     0.165 HD
HETATM    5  C   UNL     1     -22.180  -7.984  -0.758  1.00  0.00     0.039 A 
HETATM    6  C   UNL     1     -22.000  -6.922  -1.651  1.00  0.00     0.096 A 
HETATM    7  C   UNL     1     -21.176  -7.090  -2.785  1.00  0.00     0.011 A 
HETATM    8  C   UNL     1     -23.035  -7.841   0.467  1.00  0.00     0.071 C 
ENDROOT
BRANCH   1   9
HETATM    9  C   UNL     1     -19.641  -8.660  -4.128  1.00  0.00     0.219 C 
BRANCH   9  10
HETATM   10  O   UNL     1     -19.429 -10.071  -4.297  1.00  0.00    -0.317 OA
BRANCH  10  11
HETATM   11  C   UNL     1     -19.740 -10.531  -5.539  1.00  0.00     0.259 C 
HETATM   12  O   UNL     1     -20.833 -10.399  -6.075  1.00  0.00    -0.265 OA
BRANCH  11  13
HETATM   13  C   UNL     1     -18.559 -11.232  -6.172  1.00  0.00     0.111 C 
BRANCH  13  14
HETATM   14  C   UNL     1     -17.323 -10.327  -6.209  1.00  0.00     0.010 C 
BRANCH  14  15
HETATM   15  C   UNL     1     -16.007 -11.111  -6.157  1.00  0.00     0.000 C 
BRANCH  15  16
HETATM   16  C   UNL     1     -15.308 -10.913  -4.810  1.00  0.00     0.000 C 
BRANCH  16  17
HETATM   17  C   UNL     1     -15.943  -9.775  -4.010  1.00  0.00    -0.000 C 
BRANCH  17  18
HETATM   18  C   UNL     1     -15.854 -10.034  -2.506  1.00  0.00    -0.005 C 
HETATM   19  C   UNL     1     -17.012 -10.894  -2.026  1.00  0.00     0.005 C 
ENDBRANCH  17  18
ENDBRANCH  16  17
ENDBRANCH  15  16
ENDBRANCH  14  15
ENDBRANCH  13  14
ENDBRANCH  11  13
ENDBRANCH  10  11
ENDBRANCH   9  10
ENDBRANCH   1   9
BRANCH   7  20
HETATM   20  C   UNL     1     -20.954  -5.961  -3.765  1.00  0.00     0.221 C 
BRANCH  20  21
HETATM   21  O   UNL     1     -21.874  -5.989  -4.867  1.00  0.00    -0.317 OA
BRANCH  21  22
HETATM   22  C   UNL     1     -21.282  -5.968  -6.100  1.00  0.00     0.259 C 
HETATM   23  O   UNL     1     -21.089  -6.933  -6.803  1.00  0.00    -0.265 OA
BRANCH  22  24
HETATM   24  C   UNL     1     -20.907  -4.539  -6.455  1.00  0.00     0.111 C 
BRANCH  24  25
HETATM   25  C   UNL     1     -21.434  -4.162  -7.836  1.00  0.00     0.010 C 
BRANCH  25  26
HETATM   26  C   UNL     1     -22.957  -4.260  -7.937  1.00  0.00     0.000 C 
BRANCH  26  27
HETATM   27  C   UNL     1     -23.432  -3.710  -9.281  1.00  0.00     0.000 C 
BRANCH  27  28
HETATM   28  C   UNL     1     -23.856  -4.831 -10.226  1.00  0.00    -0.000 C 
BRANCH  28  29
HETATM   29  C   UNL     1     -23.278  -4.621 -11.624  1.00  0.00    -0.005 C 
HETATM   30  C   UNL     1     -21.791  -4.314 -11.559  1.00  0.00     0.005 C 
ENDBRANCH  28  29
ENDBRANCH  27  28
ENDBRANCH  26  27
ENDBRANCH  25  26
ENDBRANCH  24  25
ENDBRANCH  22  24
ENDBRANCH  21  22
ENDBRANCH  20  21
ENDBRANCH   7  20
BRANCH   6  31
HETATM   31  O   UNL     1     -22.618  -5.717  -1.433  1.00  0.00    -0.358 OA
HETATM   32  H   UNL     1     -22.694  -5.225  -2.270  1.00  0.00     0.217 HD
ENDBRANCH   6  31
TORSDOF 19
ENDMDL
MODEL 6
REMARK VINA RESULT:      -6.4      2.335      4.200
REMARK  19 active torsions:
REMARK  status: ('A' for Active; 'I' for Inactive)
REMARK    1  A    between atoms: C_2  and  C_3 
REMARK    2  A    between atoms: C_3  and  C_4 
REMARK    3  A    between atoms: C_4  and  C_5 
REMARK    4  A    between atoms: C_5  and  C_6 
REMARK    5  A    between atoms: C_6  and  C_7 
REMARK    6  A    between atoms: C_7  and  C_8 
REMARK    7  A    between atoms: C_8  and  O_10 
REMARK    8  A    between atoms: O_10  and  C_11 
REMARK    9  A    between atoms: C_11  and  C_12 
REMARK   10  A    between atoms: C_17  and  O_30 
REMARK   11  A    between atoms: C_18  and  C_19 
REMARK   12  A    between atoms: C_19  and  O_20 
REMARK   13  A    between atoms: O_20  and  C_21 
REMARK   14  A    between atoms: C_21  and  C_23 
REMARK   15  A    between atoms: C_23  and  C_24 
REMARK   16  A    between atoms: C_24  and  C_25 
REMARK   17  A    between atoms: C_25  and  C_26 
REMARK   18  A    between atoms: C_26  and  C_27 
REMARK   19  A    between atoms: C_27  and  C_28 
ROOT
HETATM    1  C   UNL     1     -21.138  -7.326  -3.067  1.00  0.00    -0.007 A 
HETATM    2  C   UNL     1     -21.975  -6.451  -2.371  1.00  0.00     0.098 A 
HETATM    3  N   UNL     1     -22.385  -6.623  -1.095  1.00  0.00    -0.367 N 
ATOM      4  HN  UNL     1     -22.997  -5.947  -0.638  1.00  0.00     0.165 HD
HETATM    5  C   UNL     1     -21.951  -7.727  -0.451  1.00  0.00     0.039 A 
HETATM    6  C   UNL     1     -21.110  -8.666  -1.056  1.00  0.00     0.096 A 
HETATM    7  C   UNL     1     -20.690  -8.477  -2.390  1.00  0.00     0.011 A 
HETATM    8  C   UNL     1     -22.433  -7.898   0.959  1.00  0.00     0.071 C 
ENDROOT
BRANCH   1   9
HETATM    9  C   UNL     1     -20.790  -7.007  -4.500  1.00  0.00     0.219 C 
BRANCH   9  10
HETATM   10  O   UNL     1     -21.209  -5.690  -4.892  1.00  0.00    -0.317 OA
BRANCH  10  11
HETATM   11  C   UNL     1     -20.972  -5.402  -6.201  1.00  0.00     0.259 C 
HETATM   12  O   UNL     1     -19.911  -5.607  -6.776  1.00  0.00    -0.265 OA
BRANCH  11  13
HETATM   13  C   UNL     1     -22.191  -4.789  -6.853  1.00  0.00     0.111 C 
BRANCH  13  14
HETATM   14  C   UNL     1     -21.801  -3.814  -7.968  1.00  0.00     0.010 C 
BRANCH  14  15
HETATM   15  C   UNL     1     -21.954  -4.416  -9.369  1.00  0.00     0.000 C 
BRANCH  15  16
HETATM   16  C   UNL     1     -20.793  -3.993 -10.273  1.00  0.00     0.000 C 
BRANCH  16  17
HETATM   17  C   UNL     1     -21.294  -3.428 -11.602  1.00  0.00    -0.000 C 
BRANCH  17  18
HETATM   18  C   UNL     1     -22.815  -3.273 -11.604  1.00  0.00    -0.005 C 
HETATM   19  C   UNL     1     -23.293  -2.553 -12.855  1.00  0.00     0.005 C 
ENDBRANCH  17  18
ENDBRANCH  16  17
ENDBRANCH  15  16
ENDBRANCH  14  15
ENDBRANCH  13  14
ENDBRANCH  11  13
ENDBRANCH  10  11
ENDBRANCH   9  10
ENDBRANCH   1   9
BRANCH   7  20
HETATM   20  C   UNL     1     -19.787  -9.478  -3.076  1.00  0.00     0.221 C 
BRANCH  20  21
HETATM   21  O   UNL     1     -18.431  -9.418  -2.609  1.00  0.00    -0.317 OA
BRANCH  21  22
HETATM   22  C   UNL     1     -17.938 -10.606  -2.144  1.00  0.00     0.259 C 
HETATM   23  O   UNL     1     -18.576 -11.450  -1.560  1.00  0.00    -0.265 OA
BRANCH  22  24
HETATM   24  C   UNL     1     -16.460 -10.705  -2.480  1.00  0.00     0.111 C 
BRANCH  24  25
HETATM   25  C   UNL     1     -16.067  -9.672  -3.532  1.00  0.00     0.010 C 
BRANCH  25  26
HETATM   26  C   UNL     1     -15.491 -10.306  -4.799  1.00  0.00     0.000 C 
BRANCH  26  27
HETATM   27  C   UNL     1     -16.141  -9.691  -6.038  1.00  0.00     0.000 C 
BRANCH  27  28
HETATM   28  C   UNL     1     -17.655  -9.882  -6.029  1.00  0.00    -0.000 C 
BRANCH  28  29
HETATM   29  C   UNL     1     -18.039 -11.254  -6.579  1.00  0.00    -0.005 C 
HETATM   30  C   UNL     1     -18.717 -12.100  -5.513  1.00  0.00     0.005 C 
ENDBRANCH  28  29
ENDBRANCH  27  28
ENDBRANCH  26  27
ENDBRANCH  25  26
ENDBRANCH  24  25
ENDBRANCH  22  24
ENDBRANCH  21  22
ENDBRANCH  20  21
ENDBRANCH   7  20
BRANCH   6  31
HETATM   31  O   UNL     1     -20.689  -9.772  -0.361  1.00  0.00    -0.358 OA
HETATM   32  H   UNL     1     -20.840  -9.643   0.592  1.00  0.00     0.217 HD
ENDBRANCH   6  31
TORSDOF 19
ENDMDL
MODEL 7
REMARK VINA RESULT:      -6.4      2.941      8.791
REMARK  19 active torsions:
REMARK  status: ('A' for Active; 'I' for Inactive)
REMARK    1  A    between atoms: C_2  and  C_3 
REMARK    2  A    between atoms: C_3  and  C_4 
REMARK    3  A    between atoms: C_4  and  C_5 
REMARK    4  A    between atoms: C_5  and  C_6 
REMARK    5  A    between atoms: C_6  and  C_7 
REMARK    6  A    between atoms: C_7  and  C_8 
REMARK    7  A    between atoms: C_8  and  O_10 
REMARK    8  A    between atoms: O_10  and  C_11 
REMARK    9  A    between atoms: C_11  and  C_12 
REMARK   10  A    between atoms: C_17  and  O_30 
REMARK   11  A    between atoms: C_18  and  C_19 
REMARK   12  A    between atoms: C_19  and  O_20 
REMARK   13  A    between atoms: O_20  and  C_21 
REMARK   14  A    between atoms: C_21  and  C_23 
REMARK   15  A    between atoms: C_23  and  C_24 
REMARK   16  A    between atoms: C_24  and  C_25 
REMARK   17  A    between atoms: C_25  and  C_26 
REMARK   18  A    between atoms: C_26  and  C_27 
REMARK   19  A    between atoms: C_27  and  C_28 
ROOT
HETATM    1  C   UNL     1     -20.805  -8.718  -3.591  1.00  0.00    -0.007 A 
HETATM    2  C   UNL     1     -20.625  -9.483  -2.436  1.00  0.00     0.098 A 
HETATM    3  N   UNL     1     -21.041  -9.129  -1.201  1.00  0.00    -0.367 N 
ATOM      4  HN  UNL     1     -20.881  -9.732  -0.393  1.00  0.00     0.165 HD
HETATM    5  C   UNL     1     -21.676  -7.945  -1.079  1.00  0.00     0.039 A 
HETATM    6  C   UNL     1     -21.909  -7.103  -2.172  1.00  0.00     0.096 A 
HETATM    7  C   UNL     1     -21.468  -7.482  -3.457  1.00  0.00     0.011 A 
HETATM    8  C   UNL     1     -22.116  -7.572   0.306  1.00  0.00     0.071 C 
ENDROOT
BRANCH   1   9
HETATM    9  C   UNL     1     -20.258  -9.240  -4.896  1.00  0.00     0.219 C 
BRANCH   9  10
HETATM   10  O   UNL     1     -18.881  -8.886  -5.102  1.00  0.00    -0.317 OA
BRANCH  10  11
HETATM   11  C   UNL     1     -18.143  -9.864  -5.694  1.00  0.00     0.259 C 
HETATM   12  O   UNL     1     -18.566 -10.635  -6.546  1.00  0.00    -0.265 OA
BRANCH  11  13
HETATM   13  C   UNL     1     -16.728  -9.878  -5.158  1.00  0.00     0.111 C 
BRANCH  13  14
HETATM   14  C   UNL     1     -16.699  -9.623  -3.648  1.00  0.00     0.010 C 
BRANCH  14  15
HETATM   15  C   UNL     1     -17.034 -10.872  -2.824  1.00  0.00     0.000 C 
BRANCH  15  16
HETATM   16  C   UNL     1     -15.919 -11.175  -1.819  1.00  0.00     0.000 C 
BRANCH  16  17
HETATM   17  C   UNL     1     -15.222 -12.498  -2.136  1.00  0.00    -0.000 C 
BRANCH  17  18
HETATM   18  C   UNL     1     -14.427 -12.410  -3.439  1.00  0.00    -0.005 C 
HETATM   19  C   UNL     1     -13.192 -13.296  -3.390  1.00  0.00     0.005 C 
ENDBRANCH  17  18
ENDBRANCH  16  17
ENDBRANCH  15  16
ENDBRANCH  14  15
ENDBRANCH  13  14
ENDBRANCH  11  13
ENDBRANCH  10  11
ENDBRANCH   9  10
ENDBRANCH   1   9
BRANCH   7  20
HETATM   20  C   UNL     1     -21.697  -6.592  -4.657  1.00  0.00     0.221 C 
BRANCH  20  21
HETATM   21  O   UNL     1     -20.530  -5.844  -5.030  1.00  0.00    -0.317 OA
BRANCH  21  22
HETATM   22  C   UNL     1     -20.322  -5.751  -6.379  1.00  0.00     0.259 C 
HETATM   23  O   UNL     1     -19.655  -6.510  -7.041  1.00  0.00    -0.265 OA
BRANCH  22  24
HETATM   24  C   UNL     1     -21.069  -4.543  -6.921  1.00  0.00     0.111 C 
BRANCH  24  25
HETATM   25  C   UNL     1     -21.377  -4.711  -8.405  1.00  0.00     0.010 C 
BRANCH  25  26
HETATM   26  C   UNL     1     -20.323  -4.067  -9.307  1.00  0.00     0.000 C 
BRANCH  26  27
HETATM   27  C   UNL     1     -20.650  -4.336 -10.775  1.00  0.00     0.000 C 
BRANCH  27  28
HETATM   28  C   UNL     1     -21.265  -3.110 -11.445  1.00  0.00    -0.000 C 
BRANCH  28  29
HETATM   29  C   UNL     1     -22.483  -3.494 -12.283  1.00  0.00    -0.005 C 
HETATM   30  C   UNL     1     -23.282  -4.599 -11.611  1.00  0.00     0.005 C 
ENDBRANCH  28  29
ENDBRANCH  27  28
ENDBRANCH  26  27
ENDBRANCH  25  26
ENDBRANCH  24  25
ENDBRANCH  22  24
ENDBRANCH  21  22
ENDBRANCH  20  21
ENDBRANCH   7  20
BRANCH   6  31
HETATM   31  O   UNL     1     -22.564  -5.909  -2.002  1.00  0.00    -0.358 OA
HETATM   32  H   UNL     1     -22.058  -5.190  -2.421  1.00  0.00     0.217 HD
ENDBRANCH   6  31
TORSDOF 19
ENDMDL
MODEL 8
REMARK VINA RESULT:      -6.4      1.939      3.250
REMARK  19 active torsions:
REMARK  status: ('A' for Active; 'I' for Inactive)
REMARK    1  A    between atoms: C_2  and  C_3 
REMARK    2  A    between atoms: C_3  and  C_4 
REMARK    3  A    between atoms: C_4  and  C_5 
REMARK    4  A    between atoms: C_5  and  C_6 
REMARK    5  A    between atoms: C_6  and  C_7 
REMARK    6  A    between atoms: C_7  and  C_8 
REMARK    7  A    between atoms: C_8  and  O_10 
REMARK    8  A    between atoms: O_10  and  C_11 
REMARK    9  A    between atoms: C_11  and  C_12 
REMARK   10  A    between atoms: C_17  and  O_30 
REMARK   11  A    between atoms: C_18  and  C_19 
REMARK   12  A    between atoms: C_19  and  O_20 
REMARK   13  A    between atoms: O_20  and  C_21 
REMARK   14  A    between atoms: C_21  and  C_23 
REMARK   15  A    between atoms: C_23  and  C_24 
REMARK   16  A    between atoms: C_24  and  C_25 
REMARK   17  A    between atoms: C_25  and  C_26 
REMARK   18  A    between atoms: C_26  and  C_27 
REMARK   19  A    between atoms: C_27  and  C_28 
ROOT
HETATM    1  C   UNL     1     -20.855  -8.422  -4.185  1.00  0.00    -0.007 A 
HETATM    2  C   UNL     1     -21.056  -9.427  -5.134  1.00  0.00     0.098 A 
HETATM    3  N   UNL     1     -20.924 -10.751  -4.900  1.00  0.00    -0.367 N 
ATOM      4  HN  UNL     1     -21.085 -11.439  -5.635  1.00  0.00     0.165 HD
HETATM    5  C   UNL     1     -20.568 -11.124  -3.653  1.00  0.00     0.039 A 
HETATM    6  C   UNL     1     -20.344 -10.199  -2.628  1.00  0.00     0.096 A 
HETATM    7  C   UNL     1     -20.482  -8.818  -2.885  1.00  0.00     0.011 A 
HETATM    8  C   UNL     1     -20.416 -12.599  -3.425  1.00  0.00     0.071 C 
ENDROOT
BRANCH   1   9
HETATM    9  C   UNL     1     -21.017  -6.984  -4.609  1.00  0.00     0.219 C 
BRANCH   9  10
HETATM   10  O   UNL     1     -20.144  -6.624  -5.692  1.00  0.00    -0.317 OA
BRANCH  10  11
HETATM   11  C   UNL     1     -19.997  -5.281  -5.859  1.00  0.00     0.259 C 
HETATM   12  O   UNL     1     -20.154  -4.449  -4.974  1.00  0.00    -0.265 OA
BRANCH  11  13
HETATM   13  C   UNL     1     -19.617  -4.948  -7.285  1.00  0.00     0.111 C 
BRANCH  13  14
HETATM   14  C   UNL     1     -20.823  -5.044  -8.223  1.00  0.00     0.010 C 
BRANCH  14  15
HETATM   15  C   UNL     1     -22.008  -4.186  -7.763  1.00  0.00     0.000 C 
BRANCH  15  16
HETATM   16  C   UNL     1     -22.836  -3.715  -8.961  1.00  0.00     0.000 C 
BRANCH  16  17
HETATM   17  C   UNL     1     -22.466  -4.477 -10.234  1.00  0.00    -0.000 C 
BRANCH  17  18
HETATM   18  C   UNL     1     -23.659  -4.588 -11.184  1.00  0.00    -0.005 C 
HETATM   19  C   UNL     1     -24.129  -3.216 -11.640  1.00  0.00     0.005 C 
ENDBRANCH  17  18
ENDBRANCH  16  17
ENDBRANCH  15  16
ENDBRANCH  14  15
ENDBRANCH  13  14
ENDBRANCH  11  13
ENDBRANCH  10  11
ENDBRANCH   9  10
ENDBRANCH   1   9
BRANCH   7  20
HETATM   20  C   UNL     1     -20.239  -7.792  -1.802  1.00  0.00     0.221 C 
BRANCH  20  21
HETATM   21  O   UNL     1     -21.018  -8.031  -0.621  1.00  0.00    -0.317 OA
BRANCH  21  22
HETATM   22  C   UNL     1     -22.263  -7.462  -0.637  1.00  0.00     0.259 C 
HETATM   23  O   UNL     1     -22.576  -6.476  -1.261  1.00  0.00    -0.265 OA
BRANCH  22  24
HETATM   24  C   UNL     1     -23.197  -8.268   0.251  1.00  0.00     0.111 C 
BRANCH  24  25
HETATM   25  C   UNL     1     -22.820  -9.746   0.243  1.00  0.00     0.010 C 
BRANCH  25  26
HETATM   26  C   UNL     1     -23.514 -10.529  -0.874  1.00  0.00     0.000 C 
BRANCH  26  27
HETATM   27  C   UNL     1     -23.838 -11.945  -0.401  1.00  0.00     0.000 C 
BRANCH  27  28
HETATM   28  C   UNL     1     -22.828 -12.434   0.634  1.00  0.00    -0.000 C 
BRANCH  28  29
HETATM   29  C   UNL     1     -23.347 -13.668   1.369  1.00  0.00    -0.005 C 
HETATM   30  C   UNL     1     -22.344 -14.147   2.406  1.00  0.00     0.005 C 
ENDBRANCH  28  29
ENDBRANCH  27  28
ENDBRANCH  26  27
ENDBRANCH  25  26
ENDBRANCH  24  25
ENDBRANCH  22  24
ENDBRANCH  21  22
ENDBRANCH  20  21
ENDBRANCH   7  20
BRANCH   6  31
HETATM   31  O   UNL     1     -19.988 -10.625  -1.373  1.00  0.00    -0.358 OA
HETATM   32  H   UNL     1     -20.347 -10.017  -0.702  1.00  0.00     0.217 HD
ENDBRANCH   6  31
TORSDOF 19
ENDMDL
MODEL 9
REMARK VINA RESULT:      -6.1      2.689      4.468
REMARK  19 active torsions:
REMARK  status: ('A' for Active; 'I' for Inactive)
REMARK    1  A    between atoms: C_2  and  C_3 
REMARK    2  A    between atoms: C_3  and  C_4 
REMARK    3  A    between atoms: C_4  and  C_5 
REMARK    4  A    between atoms: C_5  and  C_6 
REMARK    5  A    between atoms: C_6  and  C_7 
REMARK    6  A    between atoms: C_7  and  C_8 
REMARK    7  A    between atoms: C_8  and  O_10 
REMARK    8  A    between atoms: O_10  and  C_11 
REMARK    9  A    between atoms: C_11  and  C_12 
REMARK   10  A    between atoms: C_17  and  O_30 
REMARK   11  A    between atoms: C_18  and  C_19 
REMARK   12  A    between atoms: C_19  and  O_20 
REMARK   13  A    between atoms: O_20  and  C_21 
REMARK   14  A    between atoms: C_21  and  C_23 
REMARK   15  A    between atoms: C_23  and  C_24 
REMARK   16  A    between atoms: C_24  and  C_25 
REMARK   17  A    between atoms: C_25  and  C_26 
REMARK   18  A    between atoms: C_26  and  C_27 
REMARK   19  A    between atoms: C_27  and  C_28 
ROOT
HETATM    1  C   UNL     1     -18.590  -9.495  -4.932  1.00  0.00    -0.007 A 
HETATM    2  C   UNL     1     -17.640  -9.497  -5.955  1.00  0.00     0.098 A 
HETATM    3  N   UNL     1     -16.473 -10.176  -5.927  1.00  0.00    -0.367 N 
ATOM      4  HN  UNL     1     -15.818 -10.139  -6.708  1.00  0.00     0.165 HD
HETATM    5  C   UNL     1     -16.210 -10.905  -4.822  1.00  0.00     0.039 A 
HETATM    6  C   UNL     1     -17.094 -10.973  -3.740  1.00  0.00     0.096 A 
HETATM    7  C   UNL     1     -18.310 -10.256  -3.780  1.00  0.00     0.011 A 
HETATM    8  C   UNL     1     -14.901 -11.638  -4.813  1.00  0.00     0.071 C 
ENDROOT
BRANCH   1   9
HETATM    9  C   UNL     1     -19.836  -8.662  -5.103  1.00  0.00     0.219 C 
BRANCH   9  10
HETATM   10  O   UNL     1     -19.638  -7.543  -5.982  1.00  0.00    -0.317 OA
BRANCH  10  11
HETATM   11  C   UNL     1     -20.634  -6.616  -5.928  1.00  0.00     0.259 C 
HETATM   12  O   UNL     1     -21.752  -6.823  -5.476  1.00  0.00    -0.265 OA
BRANCH  11  13
HETATM   13  C   UNL     1     -20.178  -5.294  -6.505  1.00  0.00     0.111 C 
BRANCH  13  14
HETATM   14  C   UNL     1     -20.834  -5.019  -7.862  1.00  0.00     0.010 C 
BRANCH  14  15
HETATM   15  C   UNL     1     -21.816  -3.842  -7.822  1.00  0.00     0.000 C 
BRANCH  15  16
HETATM   16  C   UNL     1     -22.655  -3.790  -9.102  1.00  0.00     0.000 C 
BRANCH  16  17
HETATM   17  C   UNL     1     -21.920  -4.427 -10.281  1.00  0.00    -0.000 C 
BRANCH  17  18
HETATM   18  C   UNL     1     -21.384  -3.366 -11.243  1.00  0.00    -0.005 C 
HETATM   19  C   UNL     1     -22.514  -2.695 -12.007  1.00  0.00     0.005 C 
ENDBRANCH  17  18
ENDBRANCH  16  17
ENDBRANCH  15  16
ENDBRANCH  14  15
ENDBRANCH  13  14
ENDBRANCH  11  13
ENDBRANCH  10  11
ENDBRANCH   9  10
ENDBRANCH   1   9
BRANCH   7  20
HETATM   20  C   UNL     1     -19.283 -10.302  -2.624  1.00  0.00     0.221 C 
BRANCH  20  21
HETATM   21  O   UNL     1     -20.415 -11.147  -2.880  1.00  0.00    -0.317 OA
BRANCH  21  22
HETATM   22  C   UNL     1     -21.445 -10.998  -1.992  1.00  0.00     0.259 C 
HETATM   23  O   UNL     1     -22.593 -10.758  -2.283  1.00  0.00    -0.265 OA
BRANCH  22  24
HETATM   24  C   UNL     1     -20.923 -11.188  -0.578  1.00  0.00     0.111 C 
BRANCH  24  25
HETATM   25  C   UNL     1     -21.768 -10.411   0.427  1.00  0.00     0.010 C 
BRANCH  25  26
HETATM   26  C   UNL     1     -20.978  -9.315   1.143  1.00  0.00     0.000 C 
BRANCH  26  27
HETATM   27  C   UNL     1     -21.767  -8.007   1.136  1.00  0.00     0.000 C 
BRANCH  27  28
HETATM   28  C   UNL     1     -22.742  -7.948  -0.036  1.00  0.00    -0.000 C 
BRANCH  28  29
HETATM   29  C   UNL     1     -22.376  -6.823  -1.002  1.00  0.00    -0.005 C 
HETATM   30  C   UNL     1     -21.313  -7.276  -1.990  1.00  0.00     0.005 C 
ENDBRANCH  28  29
ENDBRANCH  27  28
ENDBRANCH  26  27
ENDBRANCH  25  26
ENDBRANCH  24  25
ENDBRANCH  22  24
ENDBRANCH  21  22
ENDBRANCH  20  21
ENDBRANCH   7  20
BRANCH   6  31
HETATM   31  O   UNL     1     -16.787 -11.731  -2.638  1.00  0.00    -0.358 OA
HETATM   32  H   UNL     1     -15.824 -11.742  -2.500  1.00  0.00     0.217 HD
ENDBRANCH   6  31
TORSDOF 19
ENDMDL
