MODEL 1
REMARK VINA RESULT:      -7.3      0.000      0.000
REMARK  6 active torsions:
REMARK  status: ('A' for Active; 'I' for Inactive)
REMARK       I    between atoms: C_2  and  N_4 
REMARK    1  A    between atoms: N_4  and  CA_5 
REMARK    2  A    between atoms: CA_5  and  CB_6 
REMARK    3  A    between atoms: CA_5  and  C_14 
REMARK    4  A    between atoms: CB_6  and  CG_7 
REMARK    5  A    between atoms: CZ_10  and  OH_13 
REMARK    6  A    between atoms: C_14  and  OXT_16 
ROOT
ATOM      1  CA  TYR A   1     -35.845  -1.076 -12.064  1.00  0.00     0.186 C 
ENDROOT
BRANCH   1   2
ATOM      2  N   TYR A   1     -35.682  -0.157 -13.200  1.00  0.00    -0.347 N 
HETATM    3  C   UNK A   0     -36.541  -0.156 -14.263  1.00  0.00     0.214 C 
HETATM    4  C   UNK A   0     -36.128   0.714 -15.414  1.00  0.00     0.117 C 
HETATM    5  O   UNK A   0     -37.589  -0.796 -14.233  1.00  0.00    -0.274 OA
ATOM      6  H   TYR A   1     -34.924   0.517 -13.163  1.00  0.00     0.163 HD
ENDBRANCH   1   2
BRANCH   1   7
ATOM      7  CB  TYR A   1     -34.489  -1.491 -11.468  1.00  0.00     0.074 C 
BRANCH   7   8
ATOM      8  CG  TYR A   1     -34.220  -2.987 -11.388  1.00  0.00    -0.056 A 
ATOM      9  CD1 TYR A   1     -33.001  -3.577 -11.763  1.00  0.00     0.010 A 
ATOM     10  CE1 TYR A   1     -32.765  -4.939 -11.573  1.00  0.00     0.037 A 
ATOM     11  CZ  TYR A   1     -33.772  -5.735 -11.047  1.00  0.00     0.065 A 
ATOM     12  CE2 TYR A   1     -35.013  -5.193 -10.731  1.00  0.00     0.037 A 
ATOM     13  CD2 TYR A   1     -35.236  -3.825 -10.900  1.00  0.00     0.010 A 
BRANCH  11  14
ATOM     14  OH  TYR A   1     -33.573  -7.064 -10.821  1.00  0.00    -0.361 OA
ATOM     15  HH  TYR A   1     -33.199  -7.174  -9.931  1.00  0.00     0.217 HD
ENDBRANCH  11  14
ENDBRANCH   7   8
ENDBRANCH   1   7
BRANCH   1  16
ATOM     16  C   TYR A   1     -36.760  -0.426 -11.020  1.00  0.00     0.163 C 
ATOM     17  O   TYR A   1     -36.388   0.345 -10.147  1.00  0.00    -0.648 OA
BRANCH  16  18
ATOM     18  OXT TYR A   1     -38.052  -0.838 -11.118  1.00  0.00    -0.775 OA
ATOM     19  HXT TYR A   1     -38.233  -1.320 -11.960  1.00  0.00     0.167 HD
ENDBRANCH  16  18
ENDBRANCH   1  16
TORSDOF 6
ENDMDL
MODEL 2
REMARK VINA RESULT:      -6.4     12.541     15.529
REMARK  6 active torsions:
REMARK  status: ('A' for Active; 'I' for Inactive)
REMARK       I    between atoms: C_2  and  N_4 
REMARK    1  A    between atoms: N_4  and  CA_5 
REMARK    2  A    between atoms: CA_5  and  CB_6 
REMARK    3  A    between atoms: CA_5  and  C_14 
REMARK    4  A    between atoms: CB_6  and  CG_7 
REMARK    5  A    between atoms: CZ_10  and  OH_13 
REMARK    6  A    between atoms: C_14  and  OXT_16 
ROOT
ATOM      1  CA  TYR A   1     -21.281  -5.436  -6.541  1.00  0.00     0.186 C 
ENDROOT
BRANCH   1   2
ATOM      2  N   TYR A   1     -21.395  -5.405  -5.076  1.00  0.00    -0.347 N 
HETATM    3  C   UNK A   0     -21.805  -6.493  -4.356  1.00  0.00     0.214 C 
HETATM    4  C   UNK A   0     -22.041  -6.238  -2.896  1.00  0.00     0.117 C 
HETATM    5  O   UNK A   0     -21.920  -7.596  -4.884  1.00  0.00    -0.274 OA
ATOM      6  H   TYR A   1     -21.124  -4.554  -4.594  1.00  0.00     0.163 HD
ENDBRANCH   1   2
BRANCH   1   7
ATOM      7  CB  TYR A   1     -21.743  -4.112  -7.176  1.00  0.00     0.074 C 
BRANCH   7   8
ATOM      8  CG  TYR A   1     -22.203  -4.188  -8.625  1.00  0.00    -0.056 A 
ATOM      9  CD1 TYR A   1     -21.323  -4.187  -9.719  1.00  0.00     0.010 A 
ATOM     10  CE1 TYR A   1     -21.786  -4.364 -11.024  1.00  0.00     0.037 A 
ATOM     11  CZ  TYR A   1     -23.148  -4.496 -11.248  1.00  0.00     0.065 A 
ATOM     12  CE2 TYR A   1     -24.050  -4.432 -10.192  1.00  0.00     0.037 A 
ATOM     13  CD2 TYR A   1     -23.580  -4.279  -8.886  1.00  0.00     0.010 A 
BRANCH  11  14
ATOM     14  OH  TYR A   1     -23.638  -4.697 -12.504  1.00  0.00    -0.361 OA
ATOM     15  HH  TYR A   1     -23.488  -3.892 -13.027  1.00  0.00     0.217 HD
ENDBRANCH  11  14
ENDBRANCH   7   8
ENDBRANCH   1   7
BRANCH   1  16
ATOM     16  C   TYR A   1     -19.839  -5.787  -6.924  1.00  0.00     0.163 C 
ATOM     17  O   TYR A   1     -19.390  -6.923  -6.994  1.00  0.00    -0.648 OA
BRANCH  16  18
ATOM     18  OXT TYR A   1     -19.063  -4.690  -7.131  1.00  0.00    -0.775 OA
ATOM     19  HXT TYR A   1     -18.827  -4.567  -8.082  1.00  0.00     0.167 HD
ENDBRANCH  16  18
ENDBRANCH   1  16
TORSDOF 6
ENDMDL
MODEL 3
REMARK VINA RESULT:      -6.3     12.555     14.861
REMARK  6 active torsions:
REMARK  status: ('A' for Active; 'I' for Inactive)
REMARK       I    between atoms: C_2  and  N_4 
REMARK    1  A    between atoms: N_4  and  CA_5 
REMARK    2  A    between atoms: CA_5  and  CB_6 
REMARK    3  A    between atoms: CA_5  and  C_14 
REMARK    4  A    between atoms: CB_6  and  CG_7 
REMARK    5  A    between atoms: CZ_10  and  OH_13 
REMARK    6  A    between atoms: C_14  and  OXT_16 
ROOT
ATOM      1  CA  TYR A   1     -21.891  -4.838  -7.704  1.00  0.00     0.186 C 
ENDROOT
BRANCH   1   2
ATOM      2  N   TYR A   1     -22.170  -5.421  -6.383  1.00  0.00    -0.347 N 
HETATM    3  C   UNK A   0     -21.524  -6.538  -5.931  1.00  0.00     0.214 C 
HETATM    4  C   UNK A   0     -22.055  -7.104  -4.646  1.00  0.00     0.117 C 
HETATM    5  O   UNK A   0     -20.555  -6.996  -6.530  1.00  0.00    -0.274 OA
ATOM      6  H   TYR A   1     -22.840  -4.949  -5.785  1.00  0.00     0.163 HD
ENDBRANCH   1   2
BRANCH   1   7
ATOM      7  CB  TYR A   1     -23.183  -4.397  -8.415  1.00  0.00     0.074 C 
BRANCH   7   8
ATOM      8  CG  TYR A   1     -23.056  -4.074  -9.897  1.00  0.00    -0.056 A 
ATOM      9  CD1 TYR A   1     -24.032  -3.375 -10.625  1.00  0.00     0.010 A 
ATOM     10  CE1 TYR A   1     -23.824  -3.011 -11.956  1.00  0.00     0.037 A 
ATOM     11  CZ  TYR A   1     -22.648  -3.390 -12.587  1.00  0.00     0.065 A 
ATOM     12  CE2 TYR A   1     -21.692  -4.142 -11.913  1.00  0.00     0.037 A 
ATOM     13  CD2 TYR A   1     -21.895  -4.483 -10.574  1.00  0.00     0.010 A 
BRANCH  11  14
ATOM     14  OH  TYR A   1     -22.395  -3.032 -13.877  1.00  0.00    -0.361 OA
ATOM     15  HH  TYR A   1     -22.459  -3.825 -14.435  1.00  0.00     0.217 HD
ENDBRANCH  11  14
ENDBRANCH   7   8
ENDBRANCH   1   7
BRANCH   1  16
ATOM     16  C   TYR A   1     -20.897  -3.682  -7.542  1.00  0.00     0.163 C 
ATOM     17  O   TYR A   1     -19.713  -3.731  -7.843  1.00  0.00    -0.648 OA
BRANCH  16  18
ATOM     18  OXT TYR A   1     -21.451  -2.584  -6.964  1.00  0.00    -0.775 OA
ATOM     19  HXT TYR A   1     -22.436  -2.643  -6.906  1.00  0.00     0.167 HD
ENDBRANCH  16  18
ENDBRANCH   1  16
TORSDOF 6
ENDMDL
MODEL 4
REMARK VINA RESULT:      -6.1      9.955     12.029
REMARK  6 active torsions:
REMARK  status: ('A' for Active; 'I' for Inactive)
REMARK       I    between atoms: C_2  and  N_4 
REMARK    1  A    between atoms: N_4  and  CA_5 
REMARK    2  A    between atoms: CA_5  and  CB_6 
REMARK    3  A    between atoms: CA_5  and  C_14 
REMARK    4  A    between atoms: CB_6  and  CG_7 
REMARK    5  A    between atoms: CZ_10  and  OH_13 
REMARK    6  A    between atoms: C_14  and  OXT_16 
ROOT
ATOM      1  CA  TYR A   1     -28.058  -6.890 -17.257  1.00  0.00     0.186 C 
ENDROOT
BRANCH   1   2
ATOM      2  N   TYR A   1     -29.487  -6.613 -17.053  1.00  0.00    -0.347 N 
HETATM    3  C   UNK A   0     -30.459  -7.230 -17.790  1.00  0.00     0.214 C 
HETATM    4  C   UNK A   0     -31.848  -6.701 -17.581  1.00  0.00     0.117 C 
HETATM    5  O   UNK A   0     -30.192  -8.174 -18.528  1.00  0.00    -0.274 OA
ATOM      6  H   TYR A   1     -29.747  -5.968 -16.314  1.00  0.00     0.163 HD
ENDBRANCH   1   2
BRANCH   1   7
ATOM      7  CB  TYR A   1     -27.461  -6.011 -18.370  1.00  0.00     0.074 C 
BRANCH   7   8
ATOM      8  CG  TYR A   1     -26.384  -6.656 -19.231  1.00  0.00    -0.056 A 
ATOM      9  CD1 TYR A   1     -25.030  -6.718 -18.861  1.00  0.00     0.010 A 
ATOM     10  CE1 TYR A   1     -24.098  -7.413 -19.633  1.00  0.00     0.037 A 
ATOM     11  CZ  TYR A   1     -24.508  -8.013 -20.814  1.00  0.00     0.065 A 
ATOM     12  CE2 TYR A   1     -25.827  -7.910 -21.242  1.00  0.00     0.037 A 
ATOM     13  CD2 TYR A   1     -26.761  -7.235 -20.453  1.00  0.00     0.010 A 
BRANCH  11  14
ATOM     14  OH  TYR A   1     -23.635  -8.723 -21.583  1.00  0.00    -0.361 OA
ATOM     15  HH  TYR A   1     -24.139  -9.362 -22.113  1.00  0.00     0.217 HD
ENDBRANCH  11  14
ENDBRANCH   7   8
ENDBRANCH   1   7
BRANCH   1  16
ATOM     16  C   TYR A   1     -27.318  -6.718 -15.926  1.00  0.00     0.163 C 
ATOM     17  O   TYR A   1     -26.375  -5.960 -15.743  1.00  0.00    -0.648 OA
BRANCH  16  18
ATOM     18  OXT TYR A   1     -27.778  -7.546 -14.952  1.00  0.00    -0.775 OA
ATOM     19  HXT TYR A   1     -27.175  -8.311 -14.789  1.00  0.00     0.167 HD
ENDBRANCH  16  18
ENDBRANCH   1  16
TORSDOF 6
ENDMDL
MODEL 5
REMARK VINA RESULT:      -6.0      1.629      2.126
REMARK  6 active torsions:
REMARK  status: ('A' for Active; 'I' for Inactive)
REMARK       I    between atoms: C_2  and  N_4 
REMARK    1  A    between atoms: N_4  and  CA_5 
REMARK    2  A    between atoms: CA_5  and  CB_6 
REMARK    3  A    between atoms: CA_5  and  C_14 
REMARK    4  A    between atoms: CB_6  and  CG_7 
REMARK    5  A    between atoms: CZ_10  and  OH_13 
REMARK    6  A    between atoms: C_14  and  OXT_16 
ROOT
ATOM      1  CA  TYR A   1     -36.832  -0.900 -10.552  1.00  0.00     0.186 C 
ENDROOT
BRANCH   1   2
ATOM      2  N   TYR A   1     -35.881  -0.246 -11.463  1.00  0.00    -0.347 N 
HETATM    3  C   UNK A   0     -36.188   0.009 -12.771  1.00  0.00     0.214 C 
HETATM    4  C   UNK A   0     -35.046   0.513 -13.605  1.00  0.00     0.117 C 
HETATM    5  O   UNK A   0     -37.332  -0.132 -13.193  1.00  0.00    -0.274 OA
ATOM      6  H   TYR A   1     -34.988   0.052 -11.087  1.00  0.00     0.163 HD
ENDBRANCH   1   2
BRANCH   1   7
ATOM      7  CB  TYR A   1     -36.174  -2.055  -9.776  1.00  0.00     0.074 C 
BRANCH   7   8
ATOM      8  CG  TYR A   1     -35.122  -2.856 -10.530  1.00  0.00    -0.056 A 
ATOM      9  CD1 TYR A   1     -35.408  -4.026 -11.253  1.00  0.00     0.010 A 
ATOM     10  CE1 TYR A   1     -34.430  -4.667 -12.015  1.00  0.00     0.037 A 
ATOM     11  CZ  TYR A   1     -33.137  -4.164 -12.021  1.00  0.00     0.065 A 
ATOM     12  CE2 TYR A   1     -32.807  -3.047 -11.261  1.00  0.00     0.037 A 
ATOM     13  CD2 TYR A   1     -33.795  -2.396 -10.519  1.00  0.00     0.010 A 
BRANCH  11  14
ATOM     14  OH  TYR A   1     -32.160  -4.744 -12.772  1.00  0.00    -0.361 OA
ATOM     15  HH  TYR A   1     -32.236  -4.417 -13.684  1.00  0.00     0.217 HD
ENDBRANCH  11  14
ENDBRANCH   7   8
ENDBRANCH   1   7
BRANCH   1  16
ATOM     16  C   TYR A   1     -37.435   0.153  -9.615  1.00  0.00     0.163 C 
ATOM     17  O   TYR A   1     -37.405   0.103  -8.394  1.00  0.00    -0.648 OA
BRANCH  16  18
ATOM     18  OXT TYR A   1     -38.075   1.150 -10.282  1.00  0.00    -0.775 OA
ATOM     19  HXT TYR A   1     -38.754   1.602  -9.725  1.00  0.00     0.167 HD
ENDBRANCH  16  18
ENDBRANCH   1  16
TORSDOF 6
ENDMDL
MODEL 6
REMARK VINA RESULT:      -5.9     12.090     14.284
REMARK  6 active torsions:
REMARK  status: ('A' for Active; 'I' for Inactive)
REMARK       I    between atoms: C_2  and  N_4 
REMARK    1  A    between atoms: N_4  and  CA_5 
REMARK    2  A    between atoms: CA_5  and  CB_6 
REMARK    3  A    between atoms: CA_5  and  C_14 
REMARK    4  A    between atoms: CB_6  and  CG_7 
REMARK    5  A    between atoms: CZ_10  and  OH_13 
REMARK    6  A    between atoms: C_14  and  OXT_16 
ROOT
ATOM      1  CA  TYR A   1     -23.020  -4.316  -8.913  1.00  0.00     0.186 C 
ENDROOT
BRANCH   1   2
ATOM      2  N   TYR A   1     -22.038  -3.502  -9.644  1.00  0.00    -0.347 N 
HETATM    3  C   UNK A   0     -21.569  -3.863 -10.877  1.00  0.00     0.214 C 
HETATM    4  C   UNK A   0     -20.442  -3.021 -11.401  1.00  0.00     0.117 C 
HETATM    5  O   UNK A   0     -22.082  -4.784 -11.506  1.00  0.00    -0.274 OA
ATOM      6  H   TYR A   1     -21.734  -2.630  -9.225  1.00  0.00     0.163 HD
ENDBRANCH   1   2
BRANCH   1   7
ATOM      7  CB  TYR A   1     -22.858  -4.170  -7.390  1.00  0.00     0.074 C 
BRANCH   7   8
ATOM      8  CG  TYR A   1     -21.968  -5.199  -6.708  1.00  0.00    -0.056 A 
ATOM      9  CD1 TYR A   1     -22.390  -5.998  -5.632  1.00  0.00     0.010 A 
ATOM     10  CE1 TYR A   1     -21.573  -7.001  -5.109  1.00  0.00     0.037 A 
ATOM     11  CZ  TYR A   1     -20.300  -7.180  -5.630  1.00  0.00     0.065 A 
ATOM     12  CE2 TYR A   1     -19.828  -6.359  -6.648  1.00  0.00     0.037 A 
ATOM     13  CD2 TYR A   1     -20.659  -5.373  -7.185  1.00  0.00     0.010 A 
BRANCH  11  14
ATOM     14  OH  TYR A   1     -19.481  -8.165  -5.165  1.00  0.00    -0.361 OA
ATOM     15  HH  TYR A   1     -19.046  -8.589  -5.923  1.00  0.00     0.217 HD
ENDBRANCH  11  14
ENDBRANCH   7   8
ENDBRANCH   1   7
BRANCH   1  16
ATOM     16  C   TYR A   1     -24.430  -3.941  -9.383  1.00  0.00     0.163 C 
ATOM     17  O   TYR A   1     -24.821  -2.799  -9.581  1.00  0.00    -0.648 OA
BRANCH  16  18
ATOM     18  OXT TYR A   1     -25.250  -5.018  -9.509  1.00  0.00    -0.775 OA
ATOM     19  HXT TYR A   1     -24.800  -5.865  -9.274  1.00  0.00     0.167 HD
ENDBRANCH  16  18
ENDBRANCH   1  16
TORSDOF 6
ENDMDL
MODEL 7
REMARK VINA RESULT:      -5.8      2.346      2.958
REMARK  6 active torsions:
REMARK  status: ('A' for Active; 'I' for Inactive)
REMARK       I    between atoms: C_2  and  N_4 
REMARK    1  A    between atoms: N_4  and  CA_5 
REMARK    2  A    between atoms: CA_5  and  CB_6 
REMARK    3  A    between atoms: CA_5  and  C_14 
REMARK    4  A    between atoms: CB_6  and  CG_7 
REMARK    5  A    between atoms: CZ_10  and  OH_13 
REMARK    6  A    between atoms: C_14  and  OXT_16 
ROOT
ATOM      1  CA  TYR A   1     -35.760  -0.259 -14.170  1.00  0.00     0.186 C 
ENDROOT
BRANCH   1   2
ATOM      2  N   TYR A   1     -35.037  -1.133 -15.106  1.00  0.00    -0.347 N 
HETATM    3  C   UNK A   0     -35.442  -1.303 -16.400  1.00  0.00     0.214 C 
HETATM    4  C   UNK A   0     -34.705  -2.365 -17.163  1.00  0.00     0.117 C 
HETATM    5  O   UNK A   0     -36.317  -0.595 -16.890  1.00  0.00    -0.274 OA
ATOM      6  H   TYR A   1     -34.194  -1.591 -14.777  1.00  0.00     0.163 HD
ENDBRANCH   1   2
BRANCH   1   7
ATOM      7  CB  TYR A   1     -35.749  -0.824 -12.739  1.00  0.00     0.074 C 
BRANCH   7   8
ATOM      8  CG  TYR A   1     -34.765  -1.954 -12.471  1.00  0.00    -0.056 A 
ATOM      9  CD1 TYR A   1     -33.867  -1.962 -11.391  1.00  0.00     0.010 A 
ATOM     10  CE1 TYR A   1     -33.059  -3.068 -11.127  1.00  0.00     0.037 A 
ATOM     11  CZ  TYR A   1     -33.109  -4.164 -11.976  1.00  0.00     0.065 A 
ATOM     12  CE2 TYR A   1     -33.937  -4.158 -13.093  1.00  0.00     0.037 A 
ATOM     13  CD2 TYR A   1     -34.762  -3.058 -13.340  1.00  0.00     0.010 A 
BRANCH  11  14
ATOM     14  OH  TYR A   1     -32.355  -5.274 -11.739  1.00  0.00    -0.361 OA
ATOM     15  HH  TYR A   1     -32.438  -5.508 -10.799  1.00  0.00     0.217 HD
ENDBRANCH  11  14
ENDBRANCH   7   8
ENDBRANCH   1   7
BRANCH   1  16
ATOM     16  C   TYR A   1     -35.162   1.151 -14.239  1.00  0.00     0.163 C 
ATOM     17  O   TYR A   1     -34.302   1.584 -13.484  1.00  0.00    -0.648 OA
BRANCH  16  18
ATOM     18  OXT TYR A   1     -35.728   1.921 -15.205  1.00  0.00    -0.775 OA
ATOM     19  HXT TYR A   1     -35.947   2.829 -14.886  1.00  0.00     0.167 HD
ENDBRANCH  16  18
ENDBRANCH   1  16
TORSDOF 6
ENDMDL
MODEL 8
REMARK VINA RESULT:      -5.8     17.150     19.034
REMARK  6 active torsions:
REMARK  status: ('A' for Active; 'I' for Inactive)
REMARK       I    between atoms: C_2  and  N_4 
REMARK    1  A    between atoms: N_4  and  CA_5 
REMARK    2  A    between atoms: CA_5  and  CB_6 
REMARK    3  A    between atoms: CA_5  and  C_14 
REMARK    4  A    between atoms: CB_6  and  CG_7 
REMARK    5  A    between atoms: CZ_10  and  OH_13 
REMARK    6  A    between atoms: C_14  and  OXT_16 
ROOT
ATOM      1  CA  TYR A   1     -21.610  -7.860  -2.051  1.00  0.00     0.186 C 
ENDROOT
BRANCH   1   2
ATOM      2  N   TYR A   1     -20.180  -8.096  -2.299  1.00  0.00    -0.347 N 
HETATM    3  C   UNK A   0     -19.719  -9.266  -2.835  1.00  0.00     0.214 C 
HETATM    4  C   UNK A   0     -18.226  -9.414  -2.853  1.00  0.00     0.117 C 
HETATM    5  O   UNK A   0     -20.493 -10.099  -3.300  1.00  0.00    -0.274 OA
ATOM      6  H   TYR A   1     -19.530  -7.345  -2.095  1.00  0.00     0.163 HD
ENDBRANCH   1   2
BRANCH   1   7
ATOM      7  CB  TYR A   1     -21.974  -8.078  -0.572  1.00  0.00     0.074 C 
BRANCH   7   8
ATOM      8  CG  TYR A   1     -22.259  -9.514  -0.155  1.00  0.00    -0.056 A 
ATOM      9  CD1 TYR A   1     -23.508 -10.136  -0.319  1.00  0.00     0.010 A 
ATOM     10  CE1 TYR A   1     -23.692 -11.486  -0.020  1.00  0.00     0.037 A 
ATOM     11  CZ  TYR A   1     -22.632 -12.217   0.495  1.00  0.00     0.065 A 
ATOM     12  CE2 TYR A   1     -21.402 -11.613   0.733  1.00  0.00     0.037 A 
ATOM     13  CD2 TYR A   1     -21.217 -10.267   0.409  1.00  0.00     0.010 A 
BRANCH  11  14
ATOM     14  OH  TYR A   1     -22.763 -13.545   0.776  1.00  0.00    -0.361 OA
ATOM     15  HH  TYR A   1     -23.663 -13.703   1.107  1.00  0.00     0.217 HD
ENDBRANCH  11  14
ENDBRANCH   7   8
ENDBRANCH   1   7
BRANCH   1  16
ATOM     16  C   TYR A   1     -21.978  -6.453  -2.535  1.00  0.00     0.163 C 
ATOM     17  O   TYR A   1     -21.824  -6.044  -3.677  1.00  0.00    -0.648 OA
BRANCH  16  18
ATOM     18  OXT TYR A   1     -22.452  -5.658  -1.540  1.00  0.00    -0.775 OA
ATOM     19  HXT TYR A   1     -22.089  -4.741  -1.583  1.00  0.00     0.167 HD
ENDBRANCH  16  18
ENDBRANCH   1  16
TORSDOF 6
ENDMDL
MODEL 9
REMARK VINA RESULT:      -5.6     15.139     16.647
REMARK  6 active torsions:
REMARK  status: ('A' for Active; 'I' for Inactive)
REMARK       I    between atoms: C_2  and  N_4 
REMARK    1  A    between atoms: N_4  and  CA_5 
REMARK    2  A    between atoms: CA_5  and  CB_6 
REMARK    3  A    between atoms: CA_5  and  C_14 
REMARK    4  A    between atoms: CB_6  and  CG_7 
REMARK    5  A    between atoms: CZ_10  and  OH_13 
REMARK    6  A    between atoms: C_14  and  OXT_16 
ROOT
ATOM      1  CA  TYR A   1     -25.612   8.201 -11.138  1.00  0.00     0.186 C 
ENDROOT
BRANCH   1   2
ATOM      2  N   TYR A   1     -25.807   9.019  -9.932  1.00  0.00    -0.347 N 
HETATM    3  C   UNK A   0     -26.478  10.211  -9.964  1.00  0.00     0.214 C 
HETATM    4  C   UNK A   0     -26.429  11.003  -8.690  1.00  0.00     0.117 C 
HETATM    5  O   UNK A   0     -27.102  10.561 -10.962  1.00  0.00    -0.274 OA
ATOM      6  H   TYR A   1     -25.460   8.660  -9.050  1.00  0.00     0.163 HD
ENDBRANCH   1   2
BRANCH   1   7
ATOM      7  CB  TYR A   1     -24.119   7.973 -11.435  1.00  0.00     0.074 C 
BRANCH   7   8
ATOM      8  CG  TYR A   1     -23.312   9.210 -11.800  1.00  0.00    -0.056 A 
ATOM      9  CD1 TYR A   1     -22.160   9.617 -11.106  1.00  0.00     0.010 A 
ATOM     10  CE1 TYR A   1     -21.393  10.699 -11.542  1.00  0.00     0.037 A 
ATOM     11  CZ  TYR A   1     -21.804  11.415 -12.657  1.00  0.00     0.065 A 
ATOM     12  CE2 TYR A   1     -22.976  11.079 -13.324  1.00  0.00     0.037 A 
ATOM     13  CD2 TYR A   1     -23.727   9.981 -12.898  1.00  0.00     0.010 A 
BRANCH  11  14
ATOM     14  OH  TYR A   1     -21.069  12.461 -13.131  1.00  0.00    -0.361 OA
ATOM     15  HH  TYR A   1     -21.438  13.285 -12.771  1.00  0.00     0.217 HD
ENDBRANCH  11  14
ENDBRANCH   7   8
ENDBRANCH   1   7
BRANCH   1  16
ATOM     16  C   TYR A   1     -26.376   6.881 -10.977  1.00  0.00     0.163 C 
ATOM     17  O   TYR A   1     -25.887   5.833 -10.580  1.00  0.00    -0.648 OA
BRANCH  16  18
ATOM     18  OXT TYR A   1     -27.671   6.967 -11.380  1.00  0.00    -0.775 OA
ATOM     19  HXT TYR A   1     -28.291   6.507 -10.763  1.00  0.00     0.167 HD
ENDBRANCH  16  18
ENDBRANCH   1  16
TORSDOF 6
ENDMDL
