MODEL 1
REMARK VINA RESULT:      -5.9      0.000      0.000
REMARK  27 active torsions:
REMARK  status: ('A' for Active; 'I' for Inactive)
REMARK    1  A    between atoms: C_2  and  C_3 
REMARK    2  A    between atoms: C_3  and  O_4 
REMARK    3  A    between atoms: C_3  and  O_5 
REMARK    4  A    between atoms: O_5  and  C_6 
REMARK    5  A    between atoms: C_7  and  O_70 
REMARK    6  A    between atoms: C_10  and  C_68 
REMARK    7  A    between atoms: C_14  and  O_67 
REMARK    8  A    between atoms: C_15  and  O_66 
REMARK    9  A    between atoms: C_17  and  C_19 
REMARK   10  A    between atoms: C_19  and  O_20 
REMARK   11  A    between atoms: C_23  and  O_65 
REMARK   12  A    between atoms: C_24  and  O_64 
REMARK   13  A    between atoms: C_26  and  C_28 
REMARK   14  A    between atoms: C_28  and  O_29 
REMARK   15  A    between atoms: C_32  and  O_63 
REMARK   16  A    between atoms: C_33  and  O_62 
REMARK   17  A    between atoms: C_35  and  C_37 
REMARK   18  A    between atoms: C_37  and  O_38 
REMARK   19  A    between atoms: C_41  and  O_61 
REMARK   20  A    between atoms: C_42  and  O_60 
REMARK   21  A    between atoms: C_44  and  C_46 
REMARK   22  A    between atoms: C_46  and  O_47 
REMARK   23  A    between atoms: C_50  and  O_59 
REMARK   24  A    between atoms: C_51  and  O_58 
REMARK   25  A    between atoms: C_54  and  C_56 
REMARK   26  A    between atoms: C_56  and  O_57 
REMARK   27  A    between atoms: C_68  and  O_69 
ROOT
HETATM    1  C   UNL     1     -20.873 -14.763  -0.656  1.00  0.00     0.189 C 
HETATM    2  C   UNL     1     -20.793 -15.541  -2.165  1.00  0.00     0.205 C 
HETATM    3  C   UNL     1     -19.278 -15.636  -2.718  1.00  0.00     0.292 C 
HETATM    4  O   UNL     1     -18.615 -16.499  -1.399  1.00  0.00    -0.348 OA
HETATM    5  C   UNL     1     -19.475 -16.474   0.024  1.00  0.00     0.180 C 
HETATM    6  C   UNL     1     -19.444 -15.013   0.271  1.00  0.00     0.187 C 
HETATM    7  O   UNL     1     -18.787 -14.285   1.395  1.00  0.00    -0.348 OA
HETATM    8  C   UNL     1     -17.164 -13.938   1.469  1.00  0.00     0.292 C 
HETATM    9  C   UNL     1     -16.603 -12.653   0.754  1.00  0.00     0.204 C 
HETATM   10  C   UNL     1     -15.696 -13.132  -0.409  1.00  0.00     0.183 C 
HETATM   11  C   UNL     1     -14.991 -14.264  -1.144  1.00  0.00     0.187 C 
HETATM   12  C   UNL     1     -15.279 -15.361   0.054  1.00  0.00     0.180 C 
HETATM   13  O   UNL     1     -16.106 -14.992   1.365  1.00  0.00    -0.348 OA
HETATM   14  O   UNL     1     -13.935 -13.799  -2.291  1.00  0.00    -0.348 OA
HETATM   15  C   UNL     1     -14.159 -13.915  -4.020  1.00  0.00     0.292 C 
HETATM   16  C   UNL     1     -14.669 -12.459  -5.455  1.00  0.00     0.204 C 
HETATM   17  C   UNL     1     -16.303 -12.833  -6.572  1.00  0.00     0.183 C 
HETATM   18  C   UNL     1     -17.251 -14.510  -6.363  1.00  0.00     0.187 C 
HETATM   19  C   UNL     1     -16.509 -15.798  -5.117  1.00  0.00     0.180 C 
HETATM   20  O   UNL     1     -14.957 -15.507  -4.245  1.00  0.00    -0.348 OA
HETATM   21  O   UNL     1     -18.276 -14.815  -7.373  1.00  0.00    -0.348 OA
HETATM   22  C   UNL     1     -19.707 -14.266  -7.370  1.00  0.00     0.292 C 
HETATM   23  C   UNL     1     -20.075 -12.764  -7.175  1.00  0.00     0.204 C 
HETATM   24  C   UNL     1     -20.487 -12.482  -5.743  1.00  0.00     0.183 C 
HETATM   25  C   UNL     1     -21.620 -13.138  -5.015  1.00  0.00     0.187 C 
HETATM   26  C   UNL     1     -21.311 -14.725  -5.426  1.00  0.00     0.180 C 
HETATM   27  O   UNL     1     -20.750 -15.052  -6.744  1.00  0.00    -0.348 OA
HETATM   28  O   UNL     1     -21.514 -12.810  -3.529  1.00  0.00    -0.348 OA
HETATM   29  C   UNL     1     -21.520 -11.636  -2.574  1.00  0.00     0.292 C 
HETATM   30  C   UNL     1     -21.040 -10.083  -2.458  1.00  0.00     0.204 C 
HETATM   31  C   UNL     1     -19.549  -9.767  -2.765  1.00  0.00     0.183 C 
HETATM   32  C   UNL     1     -18.606 -10.885  -2.317  1.00  0.00     0.187 C 
HETATM   33  C   UNL     1     -19.307 -12.160  -2.121  1.00  0.00     0.180 C 
HETATM   34  O   UNL     1     -20.568 -12.012  -1.521  1.00  0.00    -0.348 OA
HETATM   35  O   UNL     1     -17.255 -10.715  -1.912  1.00  0.00    -0.348 OA
HETATM   36  C   UNL     1     -16.084 -10.926  -2.917  1.00  0.00     0.292 C 
HETATM   37  C   UNL     1     -16.410 -10.035  -3.988  1.00  0.00     0.204 C 
HETATM   38  C   UNL     1     -17.321 -11.018  -4.796  1.00  0.00     0.183 C 
HETATM   39  C   UNL     1     -17.538 -12.925  -4.258  1.00  0.00     0.187 C 
HETATM   40  O   UNL     1     -18.779 -14.199  -3.753  1.00  0.00    -0.348 OA
HETATM   41  C   UNL     1     -16.171 -13.516  -4.444  1.00  0.00     0.180 C 
HETATM   42  O   UNL     1     -15.546 -12.251  -3.520  1.00  0.00    -0.348 OA
ENDROOT
BRANCH   1  43
HETATM   43  O   UNL     1     -22.108 -14.363  -0.061  1.00  0.00    -0.351 OA
BRANCH  43  44
HETATM   44  C   UNL     1     -22.167 -13.435   0.995  1.00  0.00     0.257 C 
BRANCH  44  45
HETATM   45  C   UNL     1     -22.239 -14.167   2.347  1.00  0.00     0.056 C 
HETATM   46  C   UNL     1     -23.698 -14.460   2.676  1.00  0.00     0.010 C 
ENDBRANCH  44  45
BRANCH  44  47
HETATM   47  O   UNL     1     -21.094 -12.534   1.077  1.00  0.00    -0.371 OA
HETATM   48  H   UNL     1     -20.571 -12.575   0.264  1.00  0.00     0.212 HD
ENDBRANCH  44  47
ENDBRANCH  43  44
ENDBRANCH   1  43
BRANCH   2  49
HETATM   49  O   UNL     1     -21.289 -16.905  -2.146  1.00  0.00    -0.388 OA
HETATM   50  H   UNL     1     -20.844 -17.425  -1.449  1.00  0.00     0.210 HD
ENDBRANCH   2  49
BRANCH   5  51
HETATM   51  C   UNL     1     -19.396 -17.071   1.458  1.00  0.00     0.198 C 
BRANCH  51  52
HETATM   52  O   UNL     1     -18.063 -17.175   1.954  1.00  0.00    -0.398 OA
HETATM   53  H   UNL     1     -17.618 -17.901   1.471  1.00  0.00     0.209 HD
ENDBRANCH  51  52
ENDBRANCH   5  51
BRANCH   9  54
HETATM   54  O   UNL     1     -15.938 -11.561   1.406  1.00  0.00    -0.388 OA
HETATM   55  H   UNL     1     -16.632 -10.873   1.547  1.00  0.00     0.210 HD
ENDBRANCH   9  54
BRANCH  38  56
HETATM   56  O   UNL     1     -17.023 -10.506  -6.135  1.00  0.00    -0.390 OA
HETATM   57  H   UNL     1     -17.632 -10.974  -6.769  1.00  0.00     0.210 HD
ENDBRANCH  38  56
BRANCH  41  58
HETATM   58  C   UNL     1     -15.071 -14.484  -6.018  1.00  0.00     0.198 C 
BRANCH  58  59
HETATM   59  O   UNL     1     -13.603 -14.883  -5.968  1.00  0.00    -0.398 OA
HETATM   60  H   UNL     1     -13.525 -15.860  -6.163  1.00  0.00     0.209 HD
ENDBRANCH  58  59
ENDBRANCH  41  58
BRANCH  10  61
HETATM   61  O   UNL     1     -15.843 -12.185  -1.313  1.00  0.00    -0.390 OA
HETATM   62  H   UNL     1     -14.932 -11.959  -1.603  1.00  0.00     0.210 HD
ENDBRANCH  10  61
BRANCH  12  63
HETATM   63  C   UNL     1     -14.101 -16.214   0.458  1.00  0.00     0.198 C 
BRANCH  63  64
HETATM   64  O   UNL     1     -13.093 -16.133  -0.551  1.00  0.00    -0.398 OA
HETATM   65  H   UNL     1     -13.264 -16.889  -1.154  1.00  0.00     0.209 HD
ENDBRANCH  63  64
ENDBRANCH  12  63
BRANCH  37  66
HETATM   66  O   UNL     1     -15.257  -9.515  -4.676  1.00  0.00    -0.388 OA
HETATM   67  H   UNL     1     -15.043 -10.107  -5.441  1.00  0.00     0.210 HD
ENDBRANCH  37  66
BRANCH  16  68
HETATM   68  O   UNL     1     -13.659 -12.240  -6.532  1.00  0.00    -0.388 OA
HETATM   69  H   UNL     1     -14.201 -11.992  -7.323  1.00  0.00     0.210 HD
ENDBRANCH  16  68
BRANCH  31  70
HETATM   70  O   UNL     1     -19.029  -8.502  -2.405  1.00  0.00    -0.390 OA
HETATM   71  H   UNL     1     -18.140  -8.652  -2.028  1.00  0.00     0.210 HD
ENDBRANCH  31  70
BRANCH  33  72
HETATM   72  C   UNL     1     -18.559 -13.239  -1.511  1.00  0.00     0.198 C 
BRANCH  72  73
HETATM   73  O   UNL     1     -17.576 -14.046  -2.051  1.00  0.00    -0.398 OA
HETATM   74  H   UNL     1     -16.943 -14.423  -1.416  1.00  0.00     0.209 HD
ENDBRANCH  72  73
ENDBRANCH  33  72
BRANCH  17  75
HETATM   75  O   UNL     1     -16.174 -12.270  -7.893  1.00  0.00    -0.390 OA
HETATM   76  H   UNL     1     -16.604 -12.944  -8.479  1.00  0.00     0.210 HD
ENDBRANCH  17  75
BRANCH  19  77
HETATM   77  C   UNL     1     -16.372 -17.183  -5.769  1.00  0.00     0.198 C 
BRANCH  77  78
HETATM   78  O   UNL     1     -15.352 -17.106  -6.752  1.00  0.00    -0.398 OA
HETATM   79  H   UNL     1     -15.532 -17.811  -7.397  1.00  0.00     0.209 HD
ENDBRANCH  77  78
ENDBRANCH  19  77
BRANCH  30  80
HETATM   80  O   UNL     1     -21.163  -9.689  -1.043  1.00  0.00    -0.388 OA
HETATM   81  H   UNL     1     -22.033 -10.023  -0.724  1.00  0.00     0.210 HD
ENDBRANCH  30  80
BRANCH  23  82
HETATM   82  O   UNL     1     -21.222 -12.346  -7.941  1.00  0.00    -0.388 OA
HETATM   83  H   UNL     1     -20.904 -12.236  -8.862  1.00  0.00     0.210 HD
ENDBRANCH  23  82
BRANCH  24  84
HETATM   84  O   UNL     1     -20.524 -11.097  -5.523  1.00  0.00    -0.390 OA
HETATM   85  H   UNL     1     -21.334 -10.911  -5.999  1.00  0.00     0.210 HD
ENDBRANCH  24  84
BRANCH  26  86
HETATM   86  C   UNL     1     -22.548 -15.640  -5.300  1.00  0.00     0.198 C 
BRANCH  86  87
HETATM   87  O   UNL     1     -23.512 -15.075  -4.401  1.00  0.00    -0.398 OA
HETATM   88  H   UNL     1     -24.164 -14.595  -4.949  1.00  0.00     0.209 HD
ENDBRANCH  86  87
ENDBRANCH  26  86
TORSDOF 27
ENDMDL
MODEL 2
REMARK VINA RESULT:      -5.8      1.769      5.116
REMARK  27 active torsions:
REMARK  status: ('A' for Active; 'I' for Inactive)
REMARK    1  A    between atoms: C_2  and  C_3 
REMARK    2  A    between atoms: C_3  and  O_4 
REMARK    3  A    between atoms: C_3  and  O_5 
REMARK    4  A    between atoms: O_5  and  C_6 
REMARK    5  A    between atoms: C_7  and  O_70 
REMARK    6  A    between atoms: C_10  and  C_68 
REMARK    7  A    between atoms: C_14  and  O_67 
REMARK    8  A    between atoms: C_15  and  O_66 
REMARK    9  A    between atoms: C_17  and  C_19 
REMARK   10  A    between atoms: C_19  and  O_20 
REMARK   11  A    between atoms: C_23  and  O_65 
REMARK   12  A    between atoms: C_24  and  O_64 
REMARK   13  A    between atoms: C_26  and  C_28 
REMARK   14  A    between atoms: C_28  and  O_29 
REMARK   15  A    between atoms: C_32  and  O_63 
REMARK   16  A    between atoms: C_33  and  O_62 
REMARK   17  A    between atoms: C_35  and  C_37 
REMARK   18  A    between atoms: C_37  and  O_38 
REMARK   19  A    between atoms: C_41  and  O_61 
REMARK   20  A    between atoms: C_42  and  O_60 
REMARK   21  A    between atoms: C_44  and  C_46 
REMARK   22  A    between atoms: C_46  and  O_47 
REMARK   23  A    between atoms: C_50  and  O_59 
REMARK   24  A    between atoms: C_51  and  O_58 
REMARK   25  A    between atoms: C_54  and  C_56 
REMARK   26  A    between atoms: C_56  and  O_57 
REMARK   27  A    between atoms: C_68  and  O_69 
ROOT
HETATM    1  C   UNL     1     -17.230 -14.266   0.219  1.00  0.00     0.189 C 
HETATM    2  C   UNL     1     -18.216 -15.401  -0.574  1.00  0.00     0.205 C 
HETATM    3  C   UNL     1     -18.356 -15.084  -2.152  1.00  0.00     0.292 C 
HETATM    4  O   UNL     1     -16.691 -15.146  -2.538  1.00  0.00    -0.348 OA
HETATM    5  C   UNL     1     -15.621 -14.987  -1.276  1.00  0.00     0.180 C 
HETATM    6  C   UNL     1     -16.015 -13.633  -0.824  1.00  0.00     0.187 C 
HETATM    7  O   UNL     1     -15.199 -12.384  -0.838  1.00  0.00    -0.348 OA
HETATM    8  C   UNL     1     -14.951 -11.439  -2.183  1.00  0.00     0.292 C 
HETATM    9  C   UNL     1     -16.012 -10.349  -2.581  1.00  0.00     0.204 C 
HETATM   10  C   UNL     1     -16.652 -10.795  -3.921  1.00  0.00     0.183 C 
HETATM   11  C   UNL     1     -16.678 -11.745  -5.112  1.00  0.00     0.187 C 
HETATM   12  C   UNL     1     -15.213 -12.411  -4.745  1.00  0.00     0.180 C 
HETATM   13  O   UNL     1     -14.381 -11.979  -3.457  1.00  0.00    -0.348 OA
HETATM   14  O   UNL     1     -17.673 -11.313  -6.325  1.00  0.00    -0.348 OA
HETATM   15  C   UNL     1     -19.196 -12.064  -6.738  1.00  0.00     0.292 C 
HETATM   16  C   UNL     1     -21.183 -11.471  -6.368  1.00  0.00     0.204 C 
HETATM   17  C   UNL     1     -22.342 -12.783  -5.374  1.00  0.00     0.183 C 
HETATM   18  C   UNL     1     -21.639 -14.527  -4.904  1.00  0.00     0.187 C 
HETATM   19  C   UNL     1     -19.842 -14.950  -5.502  1.00  0.00     0.180 C 
HETATM   20  O   UNL     1     -18.882 -13.819  -6.527  1.00  0.00    -0.348 OA
HETATM   21  O   UNL     1     -22.610 -15.514  -4.404  1.00  0.00    -0.348 OA
HETATM   22  C   UNL     1     -23.130 -15.586  -2.964  1.00  0.00     0.292 C 
HETATM   23  C   UNL     1     -23.669 -14.364  -2.160  1.00  0.00     0.204 C 
HETATM   24  C   UNL     1     -22.609 -13.810  -1.228  1.00  0.00     0.183 C 
HETATM   25  C   UNL     1     -21.918 -14.572  -0.139  1.00  0.00     0.187 C 
HETATM   26  C   UNL     1     -21.546 -15.960  -0.987  1.00  0.00     0.180 C 
HETATM   27  O   UNL     1     -22.457 -16.459  -2.026  1.00  0.00    -0.348 OA
HETATM   28  O   UNL     1     -20.725 -13.763   0.357  1.00  0.00    -0.348 OA
HETATM   29  C   UNL     1     -20.380 -12.438   1.002  1.00  0.00     0.292 C 
HETATM   30  C   UNL     1     -20.838 -10.874   1.031  1.00  0.00     0.204 C 
HETATM   31  C   UNL     1     -20.941 -10.132  -0.331  1.00  0.00     0.183 C 
HETATM   32  C   UNL     1     -19.880 -10.590  -1.334  1.00  0.00     0.187 C 
HETATM   33  C   UNL     1     -19.308 -11.897  -0.981  1.00  0.00     0.180 C 
HETATM   34  O   UNL     1     -19.098 -12.054   0.398  1.00  0.00    -0.348 OA
HETATM   35  O   UNL     1     -19.320  -9.794  -2.369  1.00  0.00    -0.348 OA
HETATM   36  C   UNL     1     -19.879  -9.857  -3.820  1.00  0.00     0.292 C 
HETATM   37  C   UNL     1     -21.268  -9.562  -3.646  1.00  0.00     0.204 C 
HETATM   38  C   UNL     1     -21.750 -11.024  -3.365  1.00  0.00     0.183 C 
HETATM   39  C   UNL     1     -20.511 -12.579  -3.505  1.00  0.00     0.187 C 
HETATM   40  O   UNL     1     -19.778 -13.990  -2.561  1.00  0.00    -0.348 OA
HETATM   41  C   UNL     1     -20.148 -12.628  -4.960  1.00  0.00     0.180 C 
HETATM   42  O   UNL     1     -19.741 -10.993  -4.868  1.00  0.00    -0.348 OA
ENDROOT
BRANCH   1  43
HETATM   43  O   UNL     1     -17.126 -14.199   1.642  1.00  0.00    -0.351 OA
BRANCH  43  44
HETATM   44  C   UNL     1     -16.398 -15.147   2.386  1.00  0.00     0.257 C 
BRANCH  44  45
HETATM   45  C   UNL     1     -15.537 -14.444   3.451  1.00  0.00     0.056 C 
HETATM   46  C   UNL     1     -14.840 -15.500   4.300  1.00  0.00     0.010 C 
ENDBRANCH  44  45
BRANCH  44  47
HETATM   47  O   UNL     1     -17.163 -16.115   3.054  1.00  0.00    -0.371 OA
HETATM   48  H   UNL     1     -17.501 -16.760   2.418  1.00  0.00     0.212 HD
ENDBRANCH  44  47
ENDBRANCH  43  44
ENDBRANCH   1  43
BRANCH   2  49
HETATM   49  O   UNL     1     -17.722 -16.763  -0.491  1.00  0.00    -0.388 OA
HETATM   50  H   UNL     1     -18.379 -17.344  -0.062  1.00  0.00     0.210 HD
ENDBRANCH   2  49
BRANCH   5  51
HETATM   51  C   UNL     1     -14.086 -15.004  -1.025  1.00  0.00     0.198 C 
BRANCH  51  52
HETATM   52  O   UNL     1     -13.332 -14.447  -2.098  1.00  0.00    -0.398 OA
HETATM   53  H   UNL     1     -12.453 -14.879  -2.106  1.00  0.00     0.209 HD
ENDBRANCH  51  52
ENDBRANCH   5  51
BRANCH   9  54
HETATM   54  O   UNL     1     -15.765  -8.937  -2.665  1.00  0.00    -0.388 OA
HETATM   55  H   UNL     1     -16.554  -8.504  -2.257  1.00  0.00     0.210 HD
ENDBRANCH   9  54
BRANCH  38  56
HETATM   56  O   UNL     1     -23.088 -10.905  -3.946  1.00  0.00    -0.390 OA
HETATM   57  H   UNL     1     -23.014 -11.159  -4.906  1.00  0.00     0.210 HD
ENDBRANCH  38  56
BRANCH  41  58
HETATM   58  C   UNL     1     -20.903 -13.558  -6.746  1.00  0.00     0.198 C 
BRANCH  58  59
HETATM   59  O   UNL     1     -20.349 -13.376  -8.151  1.00  0.00    -0.398 OA
HETATM   60  H   UNL     1     -21.101 -13.431  -8.807  1.00  0.00     0.209 HD
ENDBRANCH  58  59
ENDBRANCH  41  58
BRANCH  10  61
HETATM   61  O   UNL     1     -17.882 -10.329  -3.838  1.00  0.00    -0.390 OA
HETATM   62  H   UNL     1     -18.274 -10.769  -3.053  1.00  0.00     0.210 HD
ENDBRANCH  10  61
BRANCH  12  63
HETATM   63  C   UNL     1     -14.257 -12.566  -5.903  1.00  0.00     0.198 C 
BRANCH  63  64
HETATM   64  O   UNL     1     -14.810 -11.936  -7.059  1.00  0.00    -0.398 OA
HETATM   65  H   UNL     1     -15.572 -11.410  -6.732  1.00  0.00     0.209 HD
ENDBRANCH  63  64
ENDBRANCH  12  63
BRANCH  37  66
HETATM   66  O   UNL     1     -21.862  -8.897  -4.777  1.00  0.00    -0.388 OA
HETATM   67  H   UNL     1     -22.641  -8.368  -4.470  1.00  0.00     0.210 HD
ENDBRANCH  37  66
BRANCH  16  68
HETATM   68  O   UNL     1     -22.021 -11.247  -7.583  1.00  0.00    -0.388 OA
HETATM   69  H   UNL     1     -22.743 -11.920  -7.504  1.00  0.00     0.210 HD
ENDBRANCH  16  68
BRANCH  31  70
HETATM   70  O   UNL     1     -21.053  -8.722  -0.335  1.00  0.00    -0.390 OA
HETATM   71  H   UNL     1     -21.988  -8.506  -0.145  1.00  0.00     0.210 HD
ENDBRANCH  31  70
BRANCH  33  72
HETATM   72  C   UNL     1     -18.161 -12.343  -1.742  1.00  0.00     0.198 C 
BRANCH  72  73
HETATM   73  O   UNL     1     -18.097 -12.854  -3.024  1.00  0.00    -0.398 OA
HETATM   74  H   UNL     1     -17.331 -12.574  -3.553  1.00  0.00     0.209 HD
ENDBRANCH  72  73
ENDBRANCH  33  72
BRANCH  17  75
HETATM   75  O   UNL     1     -23.720 -12.680  -5.784  1.00  0.00    -0.390 OA
HETATM   76  H   UNL     1     -23.707 -12.970  -6.732  1.00  0.00     0.210 HD
ENDBRANCH  17  75
BRANCH  19  77
HETATM   77  C   UNL     1     -19.804 -16.307  -6.221  1.00  0.00     0.198 C 
BRANCH  77  78
HETATM   78  O   UNL     1     -18.472 -16.539  -6.650  1.00  0.00    -0.398 OA
HETATM   79  H   UNL     1     -18.512 -17.246  -7.316  1.00  0.00     0.209 HD
ENDBRANCH  77  78
ENDBRANCH  19  77
BRANCH  30  80
HETATM   80  O   UNL     1     -19.781 -10.118   1.726  1.00  0.00    -0.388 OA
HETATM   81  H   UNL     1     -20.206  -9.319   2.115  1.00  0.00     0.210 HD
ENDBRANCH  30  80
BRANCH  23  82
HETATM   82  O   UNL     1     -24.755 -14.693  -1.270  1.00  0.00    -0.388 OA
HETATM   83  H   UNL     1     -25.409 -15.181  -1.815  1.00  0.00     0.210 HD
ENDBRANCH  23  82
BRANCH  24  84
HETATM   84  O   UNL     1     -23.009 -12.556  -0.745  1.00  0.00    -0.390 OA
HETATM   85  H   UNL     1     -22.304 -12.430  -0.108  1.00  0.00     0.210 HD
ENDBRANCH  24  84
BRANCH  26  86
HETATM   86  C   UNL     1     -21.298 -17.183  -0.078  1.00  0.00     0.198 C 
BRANCH  86  87
HETATM   87  O   UNL     1     -20.578 -16.804   1.104  1.00  0.00    -0.398 OA
HETATM   88  H   UNL     1     -21.058 -17.188   1.864  1.00  0.00     0.209 HD
ENDBRANCH  86  87
ENDBRANCH  26  86
TORSDOF 27
ENDMDL
MODEL 3
REMARK VINA RESULT:      -5.7      1.343      1.620
REMARK  27 active torsions:
REMARK  status: ('A' for Active; 'I' for Inactive)
REMARK    1  A    between atoms: C_2  and  C_3 
REMARK    2  A    between atoms: C_3  and  O_4 
REMARK    3  A    between atoms: C_3  and  O_5 
REMARK    4  A    between atoms: O_5  and  C_6 
REMARK    5  A    between atoms: C_7  and  O_70 
REMARK    6  A    between atoms: C_10  and  C_68 
REMARK    7  A    between atoms: C_14  and  O_67 
REMARK    8  A    between atoms: C_15  and  O_66 
REMARK    9  A    between atoms: C_17  and  C_19 
REMARK   10  A    between atoms: C_19  and  O_20 
REMARK   11  A    between atoms: C_23  and  O_65 
REMARK   12  A    between atoms: C_24  and  O_64 
REMARK   13  A    between atoms: C_26  and  C_28 
REMARK   14  A    between atoms: C_28  and  O_29 
REMARK   15  A    between atoms: C_32  and  O_63 
REMARK   16  A    between atoms: C_33  and  O_62 
REMARK   17  A    between atoms: C_35  and  C_37 
REMARK   18  A    between atoms: C_37  and  O_38 
REMARK   19  A    between atoms: C_41  and  O_61 
REMARK   20  A    between atoms: C_42  and  O_60 
REMARK   21  A    between atoms: C_44  and  C_46 
REMARK   22  A    between atoms: C_46  and  O_47 
REMARK   23  A    between atoms: C_50  and  O_59 
REMARK   24  A    between atoms: C_51  and  O_58 
REMARK   25  A    between atoms: C_54  and  C_56 
REMARK   26  A    between atoms: C_56  and  O_57 
REMARK   27  A    between atoms: C_68  and  O_69 
ROOT
HETATM    1  C   UNL     1     -20.449 -14.975   0.459  1.00  0.00     0.189 C 
HETATM    2  C   UNL     1     -20.854 -15.759  -0.995  1.00  0.00     0.205 C 
HETATM    3  C   UNL     1     -19.621 -15.775  -2.039  1.00  0.00     0.292 C 
HETATM    4  O   UNL     1     -18.498 -16.591  -1.041  1.00  0.00    -0.348 OA
HETATM    5  C   UNL     1     -18.811 -16.601   0.591  1.00  0.00     0.180 C 
HETATM    6  C   UNL     1     -18.775 -15.140   0.830  1.00  0.00     0.187 C 
HETATM    7  O   UNL     1     -17.811 -14.368   1.666  1.00  0.00    -0.348 OA
HETATM    8  C   UNL     1     -16.283 -13.932   1.177  1.00  0.00     0.292 C 
HETATM    9  C   UNL     1     -16.075 -12.624   0.328  1.00  0.00     0.204 C 
HETATM   10  C   UNL     1     -15.603 -13.061  -1.083  1.00  0.00     0.183 C 
HETATM   11  C   UNL     1     -15.136 -14.159  -2.030  1.00  0.00     0.187 C 
HETATM   12  C   UNL     1     -14.932 -15.261  -0.819  1.00  0.00     0.180 C 
HETATM   13  O   UNL     1     -15.272 -14.927   0.701  1.00  0.00    -0.348 OA
HETATM   14  O   UNL     1     -14.569 -13.644  -3.467  1.00  0.00    -0.348 OA
HETATM   15  C   UNL     1     -15.372 -13.785  -5.012  1.00  0.00     0.292 C 
HETATM   16  C   UNL     1     -16.426 -12.371  -6.165  1.00  0.00     0.204 C 
HETATM   17  C   UNL     1     -18.322 -12.842  -6.650  1.00  0.00     0.183 C 
HETATM   18  C   UNL     1     -19.047 -14.567  -6.146  1.00  0.00     0.187 C 
HETATM   19  C   UNL     1     -17.851 -15.803  -5.250  1.00  0.00     0.180 C 
HETATM   20  O   UNL     1     -16.111 -15.421  -4.966  1.00  0.00    -0.348 OA
HETATM   21  O   UNL     1     -20.341 -14.936  -6.743  1.00  0.00    -0.348 OA
HETATM   22  C   UNL     1     -21.709 -14.466  -6.237  1.00  0.00     0.292 C 
HETATM   23  C   UNL     1     -22.067 -12.985  -5.909  1.00  0.00     0.204 C 
HETATM   24  C   UNL     1     -21.972 -12.715  -4.420  1.00  0.00     0.183 C 
HETATM   25  C   UNL     1     -22.746 -13.426  -3.353  1.00  0.00     0.187 C 
HETATM   26  C   UNL     1     -22.513 -14.997  -3.865  1.00  0.00     0.180 C 
HETATM   27  O   UNL     1     -22.427 -15.303  -5.299  1.00  0.00    -0.348 OA
HETATM   28  O   UNL     1     -22.150 -13.081  -1.992  1.00  0.00    -0.348 OA
HETATM   29  C   UNL     1     -21.888 -11.903  -1.080  1.00  0.00     0.292 C 
HETATM   30  C   UNL     1     -21.482 -10.325  -1.118  1.00  0.00     0.204 C 
HETATM   31  C   UNL     1     -20.209  -9.930  -1.919  1.00  0.00     0.183 C 
HETATM   32  C   UNL     1     -19.110 -10.991  -1.839  1.00  0.00     0.187 C 
HETATM   33  C   UNL     1     -19.630 -12.301  -1.427  1.00  0.00     0.180 C 
HETATM   34  O   UNL     1     -20.611 -12.218  -0.426  1.00  0.00    -0.348 OA
HETATM   35  O   UNL     1     -17.714 -10.744  -1.925  1.00  0.00    -0.348 OA
HETATM   36  C   UNL     1     -16.954 -10.898  -3.275  1.00  0.00     0.292 C 
HETATM   37  C   UNL     1     -17.679 -10.035  -4.156  1.00  0.00     0.204 C 
HETATM   38  C   UNL     1     -18.758 -11.072  -4.611  1.00  0.00     0.183 C 
HETATM   39  C   UNL     1     -18.672 -12.984  -4.053  1.00  0.00     0.187 C 
HETATM   40  O   UNL     1     -19.591 -14.320  -3.166  1.00  0.00    -0.348 OA
HETATM   41  C   UNL     1     -17.425 -13.501  -4.709  1.00  0.00     0.180 C 
HETATM   42  O   UNL     1     -16.588 -12.196  -4.043  1.00  0.00    -0.348 OA
ENDROOT
BRANCH   1  43
HETATM   43  O   UNL     1     -21.421 -14.639   1.448  1.00  0.00    -0.351 OA
BRANCH  43  44
HETATM   44  C   UNL     1     -21.962 -15.599   2.325  1.00  0.00     0.257 C 
BRANCH  44  45
HETATM   45  C   UNL     1     -22.655 -14.909   3.513  1.00  0.00     0.056 C 
HETATM   46  C   UNL     1     -24.165 -15.050   3.357  1.00  0.00     0.010 C 
ENDBRANCH  44  45
BRANCH  44  47
HETATM   47  O   UNL     1     -22.899 -16.480   1.762  1.00  0.00    -0.371 OA
HETATM   48  H   UNL     1     -23.759 -16.042   1.696  1.00  0.00     0.212 HD
ENDBRANCH  44  47
ENDBRANCH  43  44
ENDBRANCH   1  43
BRANCH   2  49
HETATM   49  O   UNL     1     -21.238 -17.148  -0.821  1.00  0.00    -0.388 OA
HETATM   50  H   UNL     1     -20.687 -17.576  -0.139  1.00  0.00     0.210 HD
ENDBRANCH   2  49
BRANCH   5  51
HETATM   51  C   UNL     1     -18.208 -17.182   1.903  1.00  0.00     0.198 C 
BRANCH  51  52
HETATM   52  O   UNL     1     -16.783 -17.182   1.917  1.00  0.00    -0.398 OA
HETATM   53  H   UNL     1     -16.473 -16.786   1.076  1.00  0.00     0.209 HD
ENDBRANCH  51  52
ENDBRANCH   5  51
BRANCH   9  54
HETATM   54  O   UNL     1     -15.286 -11.492   0.721  1.00  0.00    -0.388 OA
HETATM   55  H   UNL     1     -14.418 -11.600   0.262  1.00  0.00     0.210 HD
ENDBRANCH   9  54
BRANCH  38  56
HETATM   56  O   UNL     1     -18.971 -10.555  -5.963  1.00  0.00    -0.390 OA
HETATM   57  H   UNL     1     -18.400  -9.745  -6.061  1.00  0.00     0.210 HD
ENDBRANCH  38  56
BRANCH  41  58
HETATM   58  C   UNL     1     -16.887 -14.419  -6.578  1.00  0.00     0.198 C 
BRANCH  58  59
HETATM   59  O   UNL     1     -15.476 -14.758  -7.034  1.00  0.00    -0.398 OA
HETATM   60  H   UNL     1     -15.109 -13.990  -7.557  1.00  0.00     0.209 HD
ENDBRANCH  58  59
ENDBRANCH  41  58
BRANCH  10  61
HETATM   61  O   UNL     1     -16.105 -12.130  -1.870  1.00  0.00    -0.390 OA
HETATM   62  H   UNL     1     -15.332 -11.617  -2.191  1.00  0.00     0.210 HD
ENDBRANCH  10  61
BRANCH  12  63
HETATM   63  C   UNL     1     -13.642 -16.045  -0.859  1.00  0.00     0.198 C 
BRANCH  63  64
HETATM   64  O   UNL     1     -13.171 -16.108  -2.206  1.00  0.00    -0.398 OA
HETATM   65  H   UNL     1     -13.977 -16.134  -2.765  1.00  0.00     0.209 HD
ENDBRANCH  63  64
ENDBRANCH  12  63
BRANCH  37  66
HETATM   66  O   UNL     1     -16.865  -9.458  -5.195  1.00  0.00    -0.388 OA
HETATM   67  H   UNL     1     -16.456  -8.621  -4.859  1.00  0.00     0.210 HD
ENDBRANCH  37  66
BRANCH  16  68
HETATM   68  O   UNL     1     -15.864 -12.104  -7.522  1.00  0.00    -0.388 OA
HETATM   69  H   UNL     1     -15.285 -12.888  -7.700  1.00  0.00     0.210 HD
ENDBRANCH  16  68
BRANCH  31  70
HETATM   70  O   UNL     1     -19.666  -8.636  -1.747  1.00  0.00    -0.390 OA
HETATM   71  H   UNL     1     -19.205  -8.403  -2.577  1.00  0.00     0.210 HD
ENDBRANCH  31  70
BRANCH  33  72
HETATM   72  C   UNL     1     -18.660 -13.333  -1.127  1.00  0.00     0.198 C 
BRANCH  72  73
HETATM   73  O   UNL     1     -17.880 -14.086  -1.983  1.00  0.00    -0.398 OA
HETATM   74  H   UNL     1     -17.601 -13.641  -2.801  1.00  0.00     0.209 HD
ENDBRANCH  72  73
ENDBRANCH  33  72
BRANCH  17  75
HETATM   75  O   UNL     1     -18.689 -12.283  -7.928  1.00  0.00    -0.390 OA
HETATM   76  H   UNL     1     -18.226 -12.865  -8.582  1.00  0.00     0.210 HD
ENDBRANCH  17  75
BRANCH  19  77
HETATM   77  C   UNL     1     -17.874 -17.183  -5.926  1.00  0.00     0.198 C 
BRANCH  77  78
HETATM   78  O   UNL     1     -16.900 -17.183  -6.958  1.00  0.00    -0.398 OA
HETATM   79  H   UNL     1     -16.716 -18.114  -7.169  1.00  0.00     0.209 HD
ENDBRANCH  77  78
ENDBRANCH  19  77
BRANCH  30  80
HETATM   80  O   UNL     1     -21.128  -9.927   0.256  1.00  0.00    -0.388 OA
HETATM   81  H   UNL     1     -21.608  -9.088   0.447  1.00  0.00     0.210 HD
ENDBRANCH  30  80
BRANCH  23  82
HETATM   82  O   UNL     1     -23.430 -12.636  -6.225  1.00  0.00    -0.388 OA
HETATM   83  H   UNL     1     -23.865 -13.473  -6.494  1.00  0.00     0.210 HD
ENDBRANCH  23  82
BRANCH  24  84
HETATM   84  O   UNL     1     -22.006 -11.332  -4.184  1.00  0.00    -0.390 OA
HETATM   85  H   UNL     1     -21.186 -11.105  -4.625  1.00  0.00     0.210 HD
ENDBRANCH  24  84
BRANCH  26  86
HETATM   86  C   UNL     1     -23.578 -15.978  -3.329  1.00  0.00     0.198 C 
BRANCH  86  87
HETATM   87  O   UNL     1     -24.245 -15.432  -2.182  1.00  0.00    -0.398 OA
HETATM   88  H   UNL     1     -25.197 -15.627  -2.287  1.00  0.00     0.209 HD
ENDBRANCH  86  87
ENDBRANCH  26  86
TORSDOF 27
ENDMDL
MODEL 4
REMARK VINA RESULT:      -5.1      1.772      6.422
REMARK  27 active torsions:
REMARK  status: ('A' for Active; 'I' for Inactive)
REMARK    1  A    between atoms: C_2  and  C_3 
REMARK    2  A    between atoms: C_3  and  O_4 
REMARK    3  A    between atoms: C_3  and  O_5 
REMARK    4  A    between atoms: O_5  and  C_6 
REMARK    5  A    between atoms: C_7  and  O_70 
REMARK    6  A    between atoms: C_10  and  C_68 
REMARK    7  A    between atoms: C_14  and  O_67 
REMARK    8  A    between atoms: C_15  and  O_66 
REMARK    9  A    between atoms: C_17  and  C_19 
REMARK   10  A    between atoms: C_19  and  O_20 
REMARK   11  A    between atoms: C_23  and  O_65 
REMARK   12  A    between atoms: C_24  and  O_64 
REMARK   13  A    between atoms: C_26  and  C_28 
REMARK   14  A    between atoms: C_28  and  O_29 
REMARK   15  A    between atoms: C_32  and  O_63 
REMARK   16  A    between atoms: C_33  and  O_62 
REMARK   17  A    between atoms: C_35  and  C_37 
REMARK   18  A    between atoms: C_37  and  O_38 
REMARK   19  A    between atoms: C_41  and  O_61 
REMARK   20  A    between atoms: C_42  and  O_60 
REMARK   21  A    between atoms: C_44  and  C_46 
REMARK   22  A    between atoms: C_46  and  O_47 
REMARK   23  A    between atoms: C_50  and  O_59 
REMARK   24  A    between atoms: C_51  and  O_58 
REMARK   25  A    between atoms: C_54  and  C_56 
REMARK   26  A    between atoms: C_56  and  O_57 
REMARK   27  A    between atoms: C_68  and  O_69 
ROOT
HETATM    1  C   UNL     1     -21.243 -13.064  -0.260  1.00  0.00     0.189 C 
HETATM    2  C   UNL     1     -19.614 -12.798   0.149  1.00  0.00     0.205 C 
HETATM    3  C   UNL     1     -18.835 -11.950  -0.984  1.00  0.00     0.292 C 
HETATM    4  O   UNL     1     -19.843 -10.569  -0.958  1.00  0.00    -0.348 OA
HETATM    5  C   UNL     1     -21.354 -10.755  -0.289  1.00  0.00     0.180 C 
HETATM    6  C   UNL     1     -21.879 -11.782  -1.218  1.00  0.00     0.187 C 
HETATM    7  O   UNL     1     -23.016 -11.661  -2.177  1.00  0.00    -0.348 OA
HETATM    8  C   UNL     1     -22.916 -10.928  -3.664  1.00  0.00     0.292 C 
HETATM    9  C   UNL     1     -22.395 -11.741  -4.906  1.00  0.00     0.204 C 
HETATM   10  C   UNL     1     -21.039 -11.119  -5.329  1.00  0.00     0.183 C 
HETATM   11  C   UNL     1     -19.998 -10.017  -5.184  1.00  0.00     0.187 C 
HETATM   12  C   UNL     1     -20.984  -9.062  -4.269  1.00  0.00     0.180 C 
HETATM   13  O   UNL     1     -22.450  -9.516  -3.840  1.00  0.00    -0.348 OA
HETATM   14  O   UNL     1     -18.822 -10.017  -6.310  1.00  0.00    -0.348 OA
HETATM   15  C   UNL     1     -17.157 -10.493  -6.075  1.00  0.00     0.292 C 
HETATM   16  C   UNL     1     -16.131 -12.259  -6.589  1.00  0.00     0.204 C 
HETATM   17  C   UNL     1     -15.218 -13.237  -5.085  1.00  0.00     0.183 C 
HETATM   18  C   UNL     1     -15.227 -12.485  -3.299  1.00  0.00     0.187 C 
HETATM   19  C   UNL     1     -16.069 -10.751  -3.072  1.00  0.00     0.180 C 
HETATM   20  O   UNL     1     -16.741  -9.821  -4.463  1.00  0.00    -0.348 OA
HETATM   21  O   UNL     1     -14.339 -13.121  -2.313  1.00  0.00    -0.348 OA
HETATM   22  C   UNL     1     -14.664 -14.399  -1.532  1.00  0.00     0.292 C 
HETATM   23  C   UNL     1     -15.205 -15.712  -2.175  1.00  0.00     0.204 C 
HETATM   24  C   UNL     1     -16.709 -15.820  -2.016  1.00  0.00     0.183 C 
HETATM   25  C   UNL     1     -17.452 -15.825  -0.715  1.00  0.00     0.187 C 
HETATM   26  C   UNL     1     -16.693 -14.537   0.024  1.00  0.00     0.180 C 
HETATM   27  O   UNL     1     -15.268 -14.277  -0.222  1.00  0.00    -0.348 OA
HETATM   28  O   UNL     1     -18.941 -15.643  -0.991  1.00  0.00    -0.348 OA
HETATM   29  C   UNL     1     -20.100 -16.300  -1.708  1.00  0.00     0.292 C 
HETATM   30  C   UNL     1     -20.450 -17.160  -3.047  1.00  0.00     0.204 C 
HETATM   31  C   UNL     1     -19.994 -16.577  -4.414  1.00  0.00     0.183 C 
HETATM   32  C   UNL     1     -20.067 -15.050  -4.457  1.00  0.00     0.187 C 
HETATM   33  C   UNL     1     -20.108 -14.457  -3.114  1.00  0.00     0.180 C 
HETATM   34  O   UNL     1     -20.905 -15.180  -2.213  1.00  0.00    -0.348 OA
HETATM   35  O   UNL     1     -20.293 -14.264  -5.619  1.00  0.00    -0.348 OA
HETATM   36  C   UNL     1     -19.105 -13.647  -6.413  1.00  0.00     0.292 C 
HETATM   37  C   UNL     1     -18.292 -14.784  -6.718  1.00  0.00     0.204 C 
HETATM   38  C   UNL     1     -17.449 -14.787  -5.400  1.00  0.00     0.183 C 
HETATM   39  C   UNL     1     -17.624 -13.339  -4.042  1.00  0.00     0.187 C 
HETATM   40  O   UNL     1     -18.043 -12.996  -2.275  1.00  0.00    -0.348 OA
HETATM   41  C   UNL     1     -17.124 -12.113  -4.748  1.00  0.00     0.180 C 
HETATM   42  O   UNL     1     -18.177 -12.467  -6.017  1.00  0.00    -0.348 OA
ENDROOT
BRANCH   1  43
HETATM   43  O   UNL     1     -22.080 -13.964   0.465  1.00  0.00    -0.351 OA
BRANCH  43  44
HETATM   44  C   UNL     1     -22.259 -13.866   1.858  1.00  0.00     0.257 C 
BRANCH  44  45
HETATM   45  C   UNL     1     -23.758 -13.835   2.204  1.00  0.00     0.056 C 
HETATM   46  C   UNL     1     -24.049 -14.908   3.246  1.00  0.00     0.010 C 
ENDBRANCH  44  45
BRANCH  44  47
HETATM   47  O   UNL     1     -21.687 -14.895   2.622  1.00  0.00    -0.371 OA
HETATM   48  H   UNL     1     -22.378 -15.361   3.111  1.00  0.00     0.212 HD
ENDBRANCH  44  47
ENDBRANCH  43  44
ENDBRANCH   1  43
BRANCH   2  49
HETATM   49  O   UNL     1     -19.435 -12.058   1.385  1.00  0.00    -0.388 OA
HETATM   50  H   UNL     1     -18.495 -12.044   1.646  1.00  0.00     0.210 HD
ENDBRANCH   2  49
BRANCH   5  51
HETATM   51  C   UNL     1     -22.614  -9.899   0.030  1.00  0.00     0.198 C 
BRANCH  51  52
HETATM   52  O   UNL     1     -22.748  -8.756  -0.811  1.00  0.00    -0.398 OA
HETATM   53  H   UNL     1     -22.761  -9.066  -1.740  1.00  0.00     0.209 HD
ENDBRANCH  51  52
ENDBRANCH   5  51
BRANCH   9  54
HETATM   54  O   UNL     1     -23.145 -12.007  -6.101  1.00  0.00    -0.388 OA
HETATM   55  H   UNL     1     -22.674 -12.751  -6.550  1.00  0.00     0.210 HD
ENDBRANCH   9  54
BRANCH  38  56
HETATM   56  O   UNL     1     -16.210 -15.328  -5.961  1.00  0.00    -0.390 OA
HETATM   57  H   UNL     1     -16.324 -16.315  -6.028  1.00  0.00     0.210 HD
ENDBRANCH  38  56
BRANCH  41  58
HETATM   58  C   UNL     1     -15.244 -11.105  -5.022  1.00  0.00     0.198 C 
BRANCH  58  59
HETATM   59  O   UNL     1     -15.008  -9.870  -5.879  1.00  0.00    -0.398 OA
HETATM   60  H   UNL     1     -15.781  -9.752  -6.500  1.00  0.00     0.209 HD
ENDBRANCH  58  59
ENDBRANCH  41  58
BRANCH  10  61
HETATM   61  O   UNL     1     -20.372 -12.150  -5.809  1.00  0.00    -0.390 OA
HETATM   62  H   UNL     1     -19.891 -12.527  -5.041  1.00  0.00     0.210 HD
ENDBRANCH  10  61
BRANCH  12  63
HETATM   63  C   UNL     1     -21.031  -7.605  -4.660  1.00  0.00     0.198 C 
BRANCH  63  64
HETATM   64  O   UNL     1     -20.544  -7.459  -5.995  1.00  0.00    -0.398 OA
HETATM   65  H   UNL     1     -20.518  -6.492  -6.161  1.00  0.00     0.209 HD
ENDBRANCH  63  64
ENDBRANCH  12  63
BRANCH  37  66
HETATM   66  O   UNL     1     -17.558 -14.653  -7.950  1.00  0.00    -0.388 OA
HETATM   67  H   UNL     1     -17.820 -13.808  -8.395  1.00  0.00     0.210 HD
ENDBRANCH  37  66
BRANCH  16  68
HETATM   68  O   UNL     1     -14.982 -12.083  -7.525  1.00  0.00    -0.388 OA
HETATM   69  H   UNL     1     -14.859 -11.102  -7.572  1.00  0.00     0.210 HD
ENDBRANCH  16  68
BRANCH  31  70
HETATM   70  O   UNL     1     -20.517 -17.134  -5.604  1.00  0.00    -0.390 OA
HETATM   71  H   UNL     1     -21.299 -17.666  -5.355  1.00  0.00     0.210 HD
ENDBRANCH  31  70
BRANCH  33  72
HETATM   72  C   UNL     1     -20.374 -13.036  -3.026  1.00  0.00     0.198 C 
BRANCH  72  73
HETATM   73  O   UNL     1     -19.539 -11.965  -3.281  1.00  0.00    -0.398 OA
HETATM   74  H   UNL     1     -18.697 -11.962  -2.795  1.00  0.00     0.209 HD
ENDBRANCH  72  73
ENDBRANCH  33  72
BRANCH  17  75
HETATM   75  O   UNL     1     -14.030 -13.913  -5.545  1.00  0.00    -0.390 OA
HETATM   76  H   UNL     1     -13.810 -13.451  -6.394  1.00  0.00     0.210 HD
ENDBRANCH  17  75
BRANCH  19  77
HETATM   77  C   UNL     1     -15.142  -9.780  -2.325  1.00  0.00     0.198 C 
BRANCH  77  78
HETATM   78  O   UNL     1     -15.537  -8.458  -2.649  1.00  0.00    -0.398 OA
HETATM   79  H   UNL     1     -15.886  -8.484  -3.556  1.00  0.00     0.209 HD
ENDBRANCH  77  78
ENDBRANCH  19  77
BRANCH  30  80
HETATM   80  O   UNL     1     -21.918 -17.183  -3.185  1.00  0.00    -0.388 OA
HETATM   81  H   UNL     1     -22.118 -17.167  -4.149  1.00  0.00     0.210 HD
ENDBRANCH  30  80
BRANCH  23  82
HETATM   82  O   UNL     1     -14.716 -16.910  -1.540  1.00  0.00    -0.388 OA
HETATM   83  H   UNL     1     -13.786 -16.720  -1.289  1.00  0.00     0.210 HD
ENDBRANCH  23  82
BRANCH  24  84
HETATM   84  O   UNL     1     -17.203 -16.838  -2.845  1.00  0.00    -0.390 OA
HETATM   85  H   UNL     1     -16.486 -17.462  -2.726  1.00  0.00     0.210 HD
ENDBRANCH  24  84
BRANCH  26  86
HETATM   86  C   UNL     1     -16.816 -14.557   1.563  1.00  0.00     0.198 C 
BRANCH  86  87
HETATM   87  O   UNL     1     -18.000 -15.256   1.972  1.00  0.00    -0.398 OA
HETATM   88  H   UNL     1     -18.378 -14.759   2.725  1.00  0.00     0.209 HD
ENDBRANCH  86  87
ENDBRANCH  26  86
TORSDOF 27
ENDMDL
MODEL 5
REMARK VINA RESULT:      -4.6      1.777      5.935
REMARK  27 active torsions:
REMARK  status: ('A' for Active; 'I' for Inactive)
REMARK    1  A    between atoms: C_2  and  C_3 
REMARK    2  A    between atoms: C_3  and  O_4 
REMARK    3  A    between atoms: C_3  and  O_5 
REMARK    4  A    between atoms: O_5  and  C_6 
REMARK    5  A    between atoms: C_7  and  O_70 
REMARK    6  A    between atoms: C_10  and  C_68 
REMARK    7  A    between atoms: C_14  and  O_67 
REMARK    8  A    between atoms: C_15  and  O_66 
REMARK    9  A    between atoms: C_17  and  C_19 
REMARK   10  A    between atoms: C_19  and  O_20 
REMARK   11  A    between atoms: C_23  and  O_65 
REMARK   12  A    between atoms: C_24  and  O_64 
REMARK   13  A    between atoms: C_26  and  C_28 
REMARK   14  A    between atoms: C_28  and  O_29 
REMARK   15  A    between atoms: C_32  and  O_63 
REMARK   16  A    between atoms: C_33  and  O_62 
REMARK   17  A    between atoms: C_35  and  C_37 
REMARK   18  A    between atoms: C_37  and  O_38 
REMARK   19  A    between atoms: C_41  and  O_61 
REMARK   20  A    between atoms: C_42  and  O_60 
REMARK   21  A    between atoms: C_44  and  C_46 
REMARK   22  A    between atoms: C_46  and  O_47 
REMARK   23  A    between atoms: C_50  and  O_59 
REMARK   24  A    between atoms: C_51  and  O_58 
REMARK   25  A    between atoms: C_54  and  C_56 
REMARK   26  A    between atoms: C_56  and  O_57 
REMARK   27  A    between atoms: C_68  and  O_69 
ROOT
HETATM    1  C   UNL     1     -21.112 -15.299  -0.483  1.00  0.00     0.189 C 
HETATM    2  C   UNL     1     -19.444 -15.182  -0.175  1.00  0.00     0.205 C 
HETATM    3  C   UNL     1     -18.836 -13.766  -0.658  1.00  0.00     0.292 C 
HETATM    4  O   UNL     1     -19.840 -12.759   0.291  1.00  0.00    -0.348 OA
HETATM    5  C   UNL     1     -21.242 -13.433   0.876  1.00  0.00     0.180 C 
HETATM    6  C   UNL     1     -21.884 -13.761  -0.418  1.00  0.00     0.187 C 
HETATM    7  O   UNL     1     -23.143 -13.200  -0.989  1.00  0.00    -0.348 OA
HETATM    8  C   UNL     1     -23.255 -11.727  -1.750  1.00  0.00     0.292 C 
HETATM    9  C   UNL     1     -22.906 -11.606  -3.279  1.00  0.00     0.204 C 
HETATM   10  C   UNL     1     -21.626 -10.739  -3.393  1.00  0.00     0.183 C 
HETATM   11  C   UNL     1     -20.582  -9.846  -2.735  1.00  0.00     0.187 C 
HETATM   12  C   UNL     1     -21.438  -9.702  -1.332  1.00  0.00     0.180 C 
HETATM   13  O   UNL     1     -22.827 -10.448  -1.102  1.00  0.00    -0.348 OA
HETATM   14  O   UNL     1     -19.574  -9.082  -3.759  1.00  0.00    -0.348 OA
HETATM   15  C   UNL     1     -17.889  -9.457  -4.033  1.00  0.00     0.292 C 
HETATM   16  C   UNL     1     -16.933 -10.486  -5.602  1.00  0.00     0.204 C 
HETATM   17  C   UNL     1     -15.813 -12.076  -5.081  1.00  0.00     0.183 C 
HETATM   18  C   UNL     1     -15.580 -12.520  -3.210  1.00  0.00     0.187 C 
HETATM   19  C   UNL     1     -16.393 -11.333  -1.909  1.00  0.00     0.180 C 
HETATM   20  O   UNL     1     -17.258  -9.827  -2.394  1.00  0.00    -0.348 OA
HETATM   21  O   UNL     1     -14.559 -13.534  -2.897  1.00  0.00    -0.348 OA
HETATM   22  C   UNL     1     -14.764 -15.049  -2.998  1.00  0.00     0.292 C 
HETATM   23  C   UNL     1     -15.380 -15.776  -4.231  1.00  0.00     0.204 C 
HETATM   24  C   UNL     1     -16.847 -16.088  -4.008  1.00  0.00     0.183 C 
HETATM   25  C   UNL     1     -17.402 -16.921  -2.893  1.00  0.00     0.187 C 
HETATM   26  C   UNL     1     -16.557 -16.252  -1.621  1.00  0.00     0.180 C 
HETATM   27  O   UNL     1     -15.181 -15.774  -1.816  1.00  0.00    -0.348 OA
HETATM   28  O   UNL     1     -18.916 -16.743  -2.845  1.00  0.00    -0.348 OA
HETATM   29  C   UNL     1     -20.159 -16.952  -3.682  1.00  0.00     0.292 C 
HETATM   30  C   UNL     1     -20.686 -16.889  -5.223  1.00  0.00     0.204 C 
HETATM   31  C   UNL     1     -20.428 -15.576  -6.016  1.00  0.00     0.183 C 
HETATM   32  C   UNL     1     -20.516 -14.329  -5.135  1.00  0.00     0.187 C 
HETATM   33  C   UNL     1     -20.374 -14.644  -3.708  1.00  0.00     0.180 C 
HETATM   34  O   UNL     1     -21.034 -15.825  -3.334  1.00  0.00    -0.348 OA
HETATM   35  O   UNL     1     -20.906 -13.034  -5.571  1.00  0.00    -0.348 OA
HETATM   36  C   UNL     1     -19.843 -11.967  -5.966  1.00  0.00     0.292 C 
HETATM   37  C   UNL     1     -19.073 -12.632  -6.972  1.00  0.00     0.204 C 
HETATM   38  C   UNL     1     -18.055 -13.334  -6.014  1.00  0.00     0.183 C 
HETATM   39  C   UNL     1     -18.050 -12.982  -4.051  1.00  0.00     0.187 C 
HETATM   40  O   UNL     1     -18.223 -13.780  -2.393  1.00  0.00    -0.348 OA
HETATM   41  C   UNL     1     -17.661 -11.537  -3.941  1.00  0.00     0.180 C 
HETATM   42  O   UNL     1     -18.878 -11.169  -5.049  1.00  0.00    -0.348 OA
ENDROOT
BRANCH   1  43
HETATM   43  O   UNL     1     -21.835 -16.522  -0.350  1.00  0.00    -0.351 OA
BRANCH  43  44
HETATM   44  C   UNL     1     -22.968 -16.814  -1.133  1.00  0.00     0.257 C 
BRANCH  44  45
HETATM   45  C   UNL     1     -24.166 -17.162  -0.232  1.00  0.00     0.056 C 
HETATM   46  C   UNL     1     -25.321 -16.221  -0.557  1.00  0.00     0.010 C 
ENDBRANCH  44  45
BRANCH  44  47
HETATM   47  O   UNL     1     -23.392 -15.792  -1.997  1.00  0.00    -0.371 OA
HETATM   48  H   UNL     1     -24.317 -15.575  -1.817  1.00  0.00     0.212 HD
ENDBRANCH  44  47
ENDBRANCH  43  44
ENDBRANCH   1  43
BRANCH   2  49
HETATM   49  O   UNL     1     -19.101 -15.297   1.231  1.00  0.00    -0.388 OA
HETATM   50  H   UNL     1     -19.735 -14.801   1.783  1.00  0.00     0.210 HD
ENDBRANCH   2  49
BRANCH   5  51
HETATM   51  C   UNL     1     -22.451 -13.043   1.774  1.00  0.00     0.198 C 
BRANCH  51  52
HETATM   52  O   UNL     1     -22.905 -14.109   2.605  1.00  0.00    -0.398 OA
HETATM   53  H   UNL     1     -22.341 -14.128   3.405  1.00  0.00     0.209 HD
ENDBRANCH  51  52
ENDBRANCH   5  51
BRANCH   9  54
HETATM   54  O   UNL     1     -23.812 -11.184  -4.310  1.00  0.00    -0.388 OA
HETATM   55  H   UNL     1     -24.247 -12.009  -4.636  1.00  0.00     0.210 HD
ENDBRANCH   9  54
BRANCH  38  56
HETATM   56  O   UNL     1     -16.902 -13.331  -6.915  1.00  0.00    -0.390 OA
HETATM   57  H   UNL     1     -16.249 -12.672  -6.553  1.00  0.00     0.210 HD
ENDBRANCH  38  56
BRANCH  41  58
HETATM   58  C   UNL     1     -15.844 -10.400  -3.762  1.00  0.00     0.198 C 
BRANCH  58  59
HETATM   59  O   UNL     1     -15.739  -8.882  -3.721  1.00  0.00    -0.398 OA
HETATM   60  H   UNL     1     -15.188  -8.616  -2.932  1.00  0.00     0.209 HD
ENDBRANCH  58  59
ENDBRANCH  41  58
BRANCH  10  61
HETATM   61  O   UNL     1     -21.025 -11.228  -4.459  1.00  0.00    -0.390 OA
HETATM   62  H   UNL     1     -21.308 -12.167  -4.509  1.00  0.00     0.210 HD
ENDBRANCH  10  61
BRANCH  12  63
HETATM   63  C   UNL     1     -21.549  -8.303  -0.774  1.00  0.00     0.198 C 
BRANCH  63  64
HETATM   64  O   UNL     1     -20.930  -7.385  -1.676  1.00  0.00    -0.398 OA
HETATM   65  H   UNL     1     -20.777  -6.568  -1.155  1.00  0.00     0.209 HD
ENDBRANCH  63  64
ENDBRANCH  12  63
BRANCH  37  66
HETATM   66  O   UNL     1     -18.518 -11.739  -7.955  1.00  0.00    -0.388 OA
HETATM   67  H   UNL     1     -17.736 -11.272  -7.565  1.00  0.00     0.210 HD
ENDBRANCH  37  66
BRANCH  16  68
HETATM   68  O   UNL     1     -15.926  -9.694  -6.368  1.00  0.00    -0.388 OA
HETATM   69  H   UNL     1     -15.299  -9.367  -5.674  1.00  0.00     0.210 HD
ENDBRANCH  16  68
BRANCH  31  70
HETATM   70  O   UNL     1     -21.106 -15.371  -7.240  1.00  0.00    -0.390 OA
HETATM   71  H   UNL     1     -21.339 -16.253  -7.592  1.00  0.00     0.210 HD
ENDBRANCH  31  70
BRANCH  33  72
HETATM   72  C   UNL     1     -20.635 -13.575  -2.766  1.00  0.00     0.198 C 
BRANCH  72  73
HETATM   73  O   UNL     1     -19.852 -12.489  -2.426  1.00  0.00    -0.398 OA
HETATM   74  H   UNL     1     -20.286 -11.811  -1.881  1.00  0.00     0.209 HD
ENDBRANCH  72  73
ENDBRANCH  33  72
BRANCH  17  75
HETATM   75  O   UNL     1     -14.696 -12.246  -5.977  1.00  0.00    -0.390 OA
HETATM   76  H   UNL     1     -14.438 -11.318  -6.211  1.00  0.00     0.210 HD
ENDBRANCH  17  75
BRANCH  19  77
HETATM   77  C   UNL     1     -15.378 -10.909  -0.836  1.00  0.00     0.198 C 
BRANCH  77  78
HETATM   78  O   UNL     1     -15.745 -11.530   0.385  1.00  0.00    -0.398 OA
HETATM   79  H   UNL     1     -16.673 -11.295   0.551  1.00  0.00     0.209 HD
ENDBRANCH  77  78
ENDBRANCH  19  77
BRANCH  30  80
HETATM   80  O   UNL     1     -22.158 -16.954  -5.189  1.00  0.00    -0.388 OA
HETATM   81  H   UNL     1     -22.420 -17.073  -4.247  1.00  0.00     0.210 HD
ENDBRANCH  30  80
BRANCH  23  82
HETATM   82  O   UNL     1     -14.800 -17.070  -4.489  1.00  0.00    -0.388 OA
HETATM   83  H   UNL     1     -14.266 -17.287  -3.695  1.00  0.00     0.210 HD
ENDBRANCH  23  82
BRANCH  24  84
HETATM   84  O   UNL     1     -17.444 -16.463  -5.220  1.00  0.00    -0.390 OA
HETATM   85  H   UNL     1     -18.341 -16.565  -4.898  1.00  0.00     0.210 HD
ENDBRANCH  24  84
BRANCH  26  86
HETATM   86  C   UNL     1     -16.466 -17.183  -0.392  1.00  0.00     0.198 C 
BRANCH  86  87
HETATM   87  O   UNL     1     -15.698 -16.572   0.655  1.00  0.00    -0.398 OA
HETATM   88  H   UNL     1     -15.605 -15.626   0.424  1.00  0.00     0.209 HD
ENDBRANCH  86  87
ENDBRANCH  26  86
TORSDOF 27
ENDMDL
MODEL 6
REMARK VINA RESULT:      -4.0      1.906      7.347
REMARK  27 active torsions:
REMARK  status: ('A' for Active; 'I' for Inactive)
REMARK    1  A    between atoms: C_2  and  C_3 
REMARK    2  A    between atoms: C_3  and  O_4 
REMARK    3  A    between atoms: C_3  and  O_5 
REMARK    4  A    between atoms: O_5  and  C_6 
REMARK    5  A    between atoms: C_7  and  O_70 
REMARK    6  A    between atoms: C_10  and  C_68 
REMARK    7  A    between atoms: C_14  and  O_67 
REMARK    8  A    between atoms: C_15  and  O_66 
REMARK    9  A    between atoms: C_17  and  C_19 
REMARK   10  A    between atoms: C_19  and  O_20 
REMARK   11  A    between atoms: C_23  and  O_65 
REMARK   12  A    between atoms: C_24  and  O_64 
REMARK   13  A    between atoms: C_26  and  C_28 
REMARK   14  A    between atoms: C_28  and  O_29 
REMARK   15  A    between atoms: C_32  and  O_63 
REMARK   16  A    between atoms: C_33  and  O_62 
REMARK   17  A    between atoms: C_35  and  C_37 
REMARK   18  A    between atoms: C_37  and  O_38 
REMARK   19  A    between atoms: C_41  and  O_61 
REMARK   20  A    between atoms: C_42  and  O_60 
REMARK   21  A    between atoms: C_44  and  C_46 
REMARK   22  A    between atoms: C_46  and  O_47 
REMARK   23  A    between atoms: C_50  and  O_59 
REMARK   24  A    between atoms: C_51  and  O_58 
REMARK   25  A    between atoms: C_54  and  C_56 
REMARK   26  A    between atoms: C_56  and  O_57 
REMARK   27  A    between atoms: C_68  and  O_69 
ROOT
HETATM    1  C   UNL     1     -18.341  -9.940  -5.131  1.00  0.00     0.189 C 
HETATM    2  C   UNL     1     -18.453  -9.563  -3.477  1.00  0.00     0.205 C 
HETATM    3  C   UNL     1     -18.052 -10.817  -2.541  1.00  0.00     0.292 C 
HETATM    4  O   UNL     1     -16.470 -11.047  -3.147  1.00  0.00    -0.348 OA
HETATM    5  C   UNL     1     -16.127 -10.377  -4.628  1.00  0.00     0.180 C 
HETATM    6  C   UNL     1     -17.122 -11.117  -5.439  1.00  0.00     0.187 C 
HETATM    7  O   UNL     1     -16.870 -12.096  -6.535  1.00  0.00    -0.348 OA
HETATM    8  C   UNL     1     -16.458 -13.689  -6.296  1.00  0.00     0.292 C 
HETATM    9  C   UNL     1     -17.583 -14.761  -6.052  1.00  0.00     0.204 C 
HETATM   10  C   UNL     1     -17.428 -15.269  -4.595  1.00  0.00     0.183 C 
HETATM   11  C   UNL     1     -16.636 -15.307  -3.295  1.00  0.00     0.187 C 
HETATM   12  C   UNL     1     -15.309 -14.586  -3.961  1.00  0.00     0.180 C 
HETATM   13  O   UNL     1     -15.275 -14.104  -5.479  1.00  0.00    -0.348 OA
HETATM   14  O   UNL     1     -17.144 -16.400  -2.201  1.00  0.00    -0.348 OA
HETATM   15  C   UNL     1     -17.998 -16.063  -0.714  1.00  0.00     0.292 C 
HETATM   16  C   UNL     1     -20.035 -16.245  -0.211  1.00  0.00     0.204 C 
HETATM   17  C   UNL     1     -20.946 -14.580   0.463  1.00  0.00     0.183 C 
HETATM   18  C   UNL     1     -19.921 -12.955   0.715  1.00  0.00     0.187 C 
HETATM   19  C   UNL     1     -18.014 -13.047   0.370  1.00  0.00     0.180 C 
HETATM   20  O   UNL     1     -17.194 -14.588  -0.080  1.00  0.00    -0.348 OA
HETATM   21  O   UNL     1     -20.591 -11.861   1.436  1.00  0.00    -0.348 OA
HETATM   22  C   UNL     1     -21.581 -10.871   0.812  1.00  0.00     0.292 C 
HETATM   23  C   UNL     1     -22.792 -11.280  -0.079  1.00  0.00     0.204 C 
HETATM   24  C   UNL     1     -22.467 -11.125  -1.552  1.00  0.00     0.183 C 
HETATM   25  C   UNL     1     -22.048  -9.853  -2.224  1.00  0.00     0.187 C 
HETATM   26  C   UNL     1     -20.902  -9.342  -1.126  1.00  0.00     0.180 C 
HETATM   27  O   UNL     1     -21.078  -9.611   0.307  1.00  0.00    -0.348 OA
HETATM   28  O   UNL     1     -21.527 -10.175  -3.621  1.00  0.00    -0.348 OA
HETATM   29  C   UNL     1     -21.965 -10.781  -4.936  1.00  0.00     0.292 C 
HETATM   30  C   UNL     1     -22.919 -11.952  -5.548  1.00  0.00     0.204 C 
HETATM   31  C   UNL     1     -22.724 -13.395  -5.001  1.00  0.00     0.183 C 
HETATM   32  C   UNL     1     -21.263 -13.706  -4.668  1.00  0.00     0.187 C 
HETATM   33  C   UNL     1     -20.458 -12.489  -4.505  1.00  0.00     0.180 C 
HETATM   34  O   UNL     1     -20.776 -11.486  -5.434  1.00  0.00    -0.348 OA
HETATM   35  O   UNL     1     -20.659 -14.991  -4.718  1.00  0.00    -0.348 OA
HETATM   36  C   UNL     1     -20.528 -15.866  -3.437  1.00  0.00     0.292 C 
HETATM   37  C   UNL     1     -21.876 -15.956  -2.966  1.00  0.00     0.204 C 
HETATM   38  C   UNL     1     -21.876 -14.647  -2.108  1.00  0.00     0.183 C 
HETATM   39  C   UNL     1     -20.220 -13.567  -1.847  1.00  0.00     0.187 C 
HETATM   40  O   UNL     1     -19.478 -11.893  -2.099  1.00  0.00    -0.348 OA
HETATM   41  C   UNL     1     -19.314 -14.471  -1.065  1.00  0.00     0.180 C 
HETATM   42  O   UNL     1     -19.588 -15.672  -2.218  1.00  0.00    -0.348 OA
ENDROOT
BRANCH   1  43
HETATM   43  O   UNL     1     -18.846  -9.079  -6.152  1.00  0.00    -0.351 OA
BRANCH  43  44
HETATM   44  C   UNL     1     -19.539  -7.890  -5.855  1.00  0.00     0.257 C 
BRANCH  44  45
HETATM   45  C   UNL     1     -19.307  -6.845  -6.961  1.00  0.00     0.056 C 
HETATM   46  C   UNL     1     -20.540  -5.955  -7.069  1.00  0.00     0.010 C 
ENDBRANCH  44  45
BRANCH  44  47
HETATM   47  O   UNL     1     -20.928  -8.016  -5.699  1.00  0.00    -0.371 OA
HETATM   48  H   UNL     1     -21.130  -8.827  -5.213  1.00  0.00     0.212 HD
ENDBRANCH  44  47
ENDBRANCH  43  44
ENDBRANCH   1  43
BRANCH   2  49
HETATM   49  O   UNL     1     -17.585  -8.474  -3.066  1.00  0.00    -0.388 OA
HETATM   50  H   UNL     1     -16.875  -8.332  -3.722  1.00  0.00     0.210 HD
ENDBRANCH   2  49
BRANCH   5  51
HETATM   51  C   UNL     1     -14.925 -10.229  -5.605  1.00  0.00     0.198 C 
BRANCH  51  52
HETATM   52  O   UNL     1     -14.099 -11.390  -5.664  1.00  0.00    -0.398 OA
HETATM   53  H   UNL     1     -13.989 -11.634  -6.606  1.00  0.00     0.209 HD
ENDBRANCH  51  52
ENDBRANCH   5  51
BRANCH   9  54
HETATM   54  O   UNL     1     -17.842 -15.901  -6.886  1.00  0.00    -0.388 OA
HETATM   55  H   UNL     1     -17.915 -15.546  -7.805  1.00  0.00     0.210 HD
ENDBRANCH   9  54
BRANCH  38  56
HETATM   56  O   UNL     1     -22.815 -15.088  -1.076  1.00  0.00    -0.390 OA
HETATM   57  H   UNL     1     -22.377 -14.934  -0.196  1.00  0.00     0.210 HD
ENDBRANCH  38  56
BRANCH  41  58
HETATM   58  C   UNL     1     -18.906 -14.894   1.004  1.00  0.00     0.198 C 
BRANCH  58  59
HETATM   59  O   UNL     1     -17.997 -15.994   1.530  1.00  0.00    -0.398 OA
HETATM   60  H   UNL     1     -17.051 -15.778   1.290  1.00  0.00     0.209 HD
ENDBRANCH  58  59
ENDBRANCH  41  58
BRANCH  10  61
HETATM   61  O   UNL     1     -18.666 -15.551  -4.242  1.00  0.00    -0.390 OA
HETATM   62  H   UNL     1     -18.748 -15.242  -3.314  1.00  0.00     0.210 HD
ENDBRANCH  10  61
BRANCH  12  63
HETATM   63  C   UNL     1     -13.983 -15.229  -3.634  1.00  0.00     0.198 C 
BRANCH  63  64
HETATM   64  O   UNL     1     -13.081 -15.029  -4.724  1.00  0.00    -0.398 OA
HETATM   65  H   UNL     1     -13.220 -14.101  -5.012  1.00  0.00     0.209 HD
ENDBRANCH  63  64
ENDBRANCH  12  63
BRANCH  37  66
HETATM   66  O   UNL     1     -22.161 -17.181  -2.266  1.00  0.00    -0.388 OA
HETATM   67  H   UNL     1     -21.560 -17.254  -1.482  1.00  0.00     0.210 HD
ENDBRANCH  37  66
BRANCH  16  68
HETATM   68  O   UNL     1     -20.337 -17.182   0.911  1.00  0.00    -0.388 OA
HETATM   69  H   UNL     1     -21.089 -16.751   1.389  1.00  0.00     0.210 HD
ENDBRANCH  16  68
BRANCH  31  70
HETATM   70  O   UNL     1     -23.318 -14.475  -5.693  1.00  0.00    -0.390 OA
HETATM   71  H   UNL     1     -22.609 -14.920  -6.199  1.00  0.00     0.210 HD
ENDBRANCH  31  70
BRANCH  33  72
HETATM   72  C   UNL     1     -19.025 -12.657  -4.382  1.00  0.00     0.198 C 
BRANCH  72  73
HETATM   73  O   UNL     1     -18.278 -13.104  -3.309  1.00  0.00    -0.398 OA
HETATM   74  H   UNL     1     -17.314 -13.101  -3.436  1.00  0.00     0.209 HD
ENDBRANCH  72  73
ENDBRANCH  33  72
BRANCH  17  75
HETATM   75  O   UNL     1     -21.983 -14.899   1.412  1.00  0.00    -0.390 OA
HETATM   76  H   UNL     1     -21.772 -14.325   2.193  1.00  0.00     0.210 HD
ENDBRANCH  17  75
BRANCH  19  77
HETATM   77  C   UNL     1     -17.211 -12.470   1.546  1.00  0.00     0.198 C 
BRANCH  77  78
HETATM   78  O   UNL     1     -16.093 -11.778   1.017  1.00  0.00    -0.398 OA
HETATM   79  H   UNL     1     -15.589 -11.438   1.776  1.00  0.00     0.209 HD
ENDBRANCH  77  78
ENDBRANCH  19  77
BRANCH  30  80
HETATM   80  O   UNL     1     -22.573 -12.103  -6.973  1.00  0.00    -0.388 OA
HETATM   81  H   UNL     1     -23.393 -11.928  -7.490  1.00  0.00     0.210 HD
ENDBRANCH  30  80
BRANCH  23  82
HETATM   82  O   UNL     1     -23.949 -10.438   0.097  1.00  0.00    -0.388 OA
HETATM   83  H   UNL     1     -24.403 -10.421  -0.773  1.00  0.00     0.210 HD
ENDBRANCH  23  82
BRANCH  24  84
HETATM   84  O   UNL     1     -23.444 -11.768  -2.326  1.00  0.00    -0.390 OA
HETATM   85  H   UNL     1     -23.958 -12.136  -1.607  1.00  0.00     0.210 HD
ENDBRANCH  24  84
BRANCH  26  86
HETATM   86  C   UNL     1     -20.621  -7.825  -1.198  1.00  0.00     0.198 C 
BRANCH  86  87
HETATM   87  O   UNL     1     -20.939  -7.307  -2.497  1.00  0.00    -0.398 OA
HETATM   88  H   UNL     1     -21.778  -7.729  -2.773  1.00  0.00     0.209 HD
ENDBRANCH  86  87
ENDBRANCH  26  86
TORSDOF 27
ENDMDL
MODEL 7
REMARK VINA RESULT:      -3.8      1.898      5.630
REMARK  27 active torsions:
REMARK  status: ('A' for Active; 'I' for Inactive)
REMARK    1  A    between atoms: C_2  and  C_3 
REMARK    2  A    between atoms: C_3  and  O_4 
REMARK    3  A    between atoms: C_3  and  O_5 
REMARK    4  A    between atoms: O_5  and  C_6 
REMARK    5  A    between atoms: C_7  and  O_70 
REMARK    6  A    between atoms: C_10  and  C_68 
REMARK    7  A    between atoms: C_14  and  O_67 
REMARK    8  A    between atoms: C_15  and  O_66 
REMARK    9  A    between atoms: C_17  and  C_19 
REMARK   10  A    between atoms: C_19  and  O_20 
REMARK   11  A    between atoms: C_23  and  O_65 
REMARK   12  A    between atoms: C_24  and  O_64 
REMARK   13  A    between atoms: C_26  and  C_28 
REMARK   14  A    between atoms: C_28  and  O_29 
REMARK   15  A    between atoms: C_32  and  O_63 
REMARK   16  A    between atoms: C_33  and  O_62 
REMARK   17  A    between atoms: C_35  and  C_37 
REMARK   18  A    between atoms: C_37  and  O_38 
REMARK   19  A    between atoms: C_41  and  O_61 
REMARK   20  A    between atoms: C_42  and  O_60 
REMARK   21  A    between atoms: C_44  and  C_46 
REMARK   22  A    between atoms: C_46  and  O_47 
REMARK   23  A    between atoms: C_50  and  O_59 
REMARK   24  A    between atoms: C_51  and  O_58 
REMARK   25  A    between atoms: C_54  and  C_56 
REMARK   26  A    between atoms: C_56  and  O_57 
REMARK   27  A    between atoms: C_68  and  O_69 
ROOT
HETATM    1  C   UNL     1     -21.076 -10.847  -1.133  1.00  0.00     0.189 C 
HETATM    2  C   UNL     1     -20.955 -10.352  -2.755  1.00  0.00     0.205 C 
HETATM    3  C   UNL     1     -20.900 -11.608  -3.769  1.00  0.00     0.292 C 
HETATM    4  O   UNL     1     -22.386 -12.322  -3.318  1.00  0.00    -0.348 OA
HETATM    5  C   UNL     1     -23.021 -11.872  -1.849  1.00  0.00     0.180 C 
HETATM    6  C   UNL     1     -21.917 -12.342  -0.981  1.00  0.00     0.187 C 
HETATM    7  O   UNL     1     -21.953 -13.419   0.051  1.00  0.00    -0.348 OA
HETATM    8  C   UNL     1     -21.862 -15.044  -0.283  1.00  0.00     0.292 C 
HETATM    9  C   UNL     1     -20.457 -15.729  -0.464  1.00  0.00     0.204 C 
HETATM   10  C   UNL     1     -20.346 -16.169  -1.947  1.00  0.00     0.183 C 
HETATM   11  C   UNL     1     -20.992 -16.353  -3.314  1.00  0.00     0.187 C 
HETATM   12  C   UNL     1     -22.518 -16.089  -2.744  1.00  0.00     0.180 C 
HETATM   13  O   UNL     1     -22.806 -15.731  -1.219  1.00  0.00    -0.348 OA
HETATM   14  O   UNL     1     -20.105 -17.183  -4.398  1.00  0.00    -0.348 OA
HETATM   15  C   UNL     1     -19.278 -16.523  -5.788  1.00  0.00     0.292 C 
HETATM   16  C   UNL     1     -17.244 -16.077  -6.112  1.00  0.00     0.204 C 
HETATM   17  C   UNL     1     -16.813 -14.182  -6.638  1.00  0.00     0.183 C 
HETATM   18  C   UNL     1     -18.246 -12.910  -6.920  1.00  0.00     0.187 C 
HETATM   19  C   UNL     1     -20.063 -13.569  -6.753  1.00  0.00     0.180 C 
HETATM   20  O   UNL     1     -20.428 -15.307  -6.437  1.00  0.00    -0.348 OA
HETATM   21  O   UNL     1     -17.874 -11.626  -7.537  1.00  0.00    -0.348 OA
HETATM   22  C   UNL     1     -17.267 -10.434  -6.790  1.00  0.00     0.292 C 
HETATM   23  C   UNL     1     -16.060 -10.530  -5.809  1.00  0.00     0.204 C 
HETATM   24  C   UNL     1     -16.527 -10.567  -4.366  1.00  0.00     0.183 C 
HETATM   25  C   UNL     1     -17.348  -9.514  -3.688  1.00  0.00     0.187 C 
HETATM   26  C   UNL     1     -18.508  -9.288  -4.865  1.00  0.00     0.180 C 
HETATM   27  O   UNL     1     -18.154  -9.406  -6.286  1.00  0.00    -0.348 OA
HETATM   28  O   UNL     1     -17.857 -10.059  -2.357  1.00  0.00    -0.348 OA
HETATM   29  C   UNL     1     -17.361 -10.593  -1.031  1.00  0.00     0.292 C 
HETATM   30  C   UNL     1     -16.155 -11.475  -0.380  1.00  0.00     0.204 C 
HETATM   31  C   UNL     1     -15.878 -12.876  -0.995  1.00  0.00     0.183 C 
HETATM   32  C   UNL     1     -17.154 -13.574  -1.470  1.00  0.00     0.187 C 
HETATM   33  C   UNL     1     -18.265 -12.633  -1.660  1.00  0.00     0.180 C 
HETATM   34  O   UNL     1     -18.326 -11.640  -0.670  1.00  0.00    -0.348 OA
HETATM   35  O   UNL     1     -17.357 -14.979  -1.523  1.00  0.00    -0.348 OA
HETATM   36  C   UNL     1     -17.129 -15.773  -2.842  1.00  0.00     0.292 C 
HETATM   37  C   UNL     1     -15.783 -15.441  -3.193  1.00  0.00     0.204 C 
HETATM   38  C   UNL     1     -16.101 -14.137  -3.997  1.00  0.00     0.183 C 
HETATM   39  C   UNL     1     -17.975 -13.567  -4.367  1.00  0.00     0.187 C 
HETATM   40  O   UNL     1     -19.192 -12.198  -4.120  1.00  0.00    -0.348 OA
HETATM   41  C   UNL     1     -18.516 -14.644  -5.261  1.00  0.00     0.180 C 
HETATM   42  O   UNL     1     -17.990 -15.783  -4.133  1.00  0.00    -0.348 OA
ENDROOT
BRANCH   1  43
HETATM   43  O   UNL     1     -20.924  -9.942  -0.040  1.00  0.00    -0.351 OA
BRANCH  43  44
HETATM   44  C   UNL     1     -21.522  -8.668  -0.031  1.00  0.00     0.257 C 
BRANCH  44  45
HETATM   45  C   UNL     1     -21.723  -8.180   1.414  1.00  0.00     0.056 C 
HETATM   46  C   UNL     1     -23.111  -7.562   1.541  1.00  0.00     0.010 C 
ENDBRANCH  44  45
BRANCH  44  47
HETATM   47  O   UNL     1     -20.819  -7.658  -0.708  1.00  0.00    -0.371 OA
HETATM   48  H   UNL     1     -20.769  -7.871  -1.650  1.00  0.00     0.212 HD
ENDBRANCH  44  47
ENDBRANCH  43  44
ENDBRANCH   1  43
BRANCH   2  49
HETATM   49  O   UNL     1     -22.070  -9.537  -3.202  1.00  0.00    -0.388 OA
HETATM   50  H   UNL     1     -21.761  -8.818  -3.786  1.00  0.00     0.210 HD
ENDBRANCH   2  49
BRANCH   5  51
HETATM   51  C   UNL     1     -24.284 -12.138  -0.980  1.00  0.00     0.198 C 
BRANCH  51  52
HETATM   52  O   UNL     1     -24.715 -13.497  -1.013  1.00  0.00    -0.398 OA
HETATM   53  H   UNL     1     -24.865 -13.787  -0.089  1.00  0.00     0.209 HD
ENDBRANCH  51  52
ENDBRANCH   5  51
BRANCH   9  54
HETATM   54  O   UNL     1     -19.939 -16.795   0.347  1.00  0.00    -0.388 OA
HETATM   55  H   UNL     1     -20.713 -17.145   0.851  1.00  0.00     0.210 HD
ENDBRANCH   9  54
BRANCH  38  56
HETATM   56  O   UNL     1     -14.998 -14.223  -4.956  1.00  0.00    -0.390 OA
HETATM   57  H   UNL     1     -15.339 -14.718  -5.751  1.00  0.00     0.210 HD
ENDBRANCH  38  56
BRANCH  41  58
HETATM   58  C   UNL     1     -18.624 -15.037  -7.373  1.00  0.00     0.198 C 
BRANCH  58  59
HETATM   59  O   UNL     1     -19.144 -16.313  -8.019  1.00  0.00    -0.398 OA
HETATM   60  H   UNL     1     -18.443 -17.021  -7.950  1.00  0.00     0.209 HD
ENDBRANCH  58  59
ENDBRANCH  41  58
BRANCH  10  61
HETATM   61  O   UNL     1     -19.057 -16.059  -2.197  1.00  0.00    -0.390 OA
HETATM   62  H   UNL     1     -18.661 -15.705  -1.372  1.00  0.00     0.210 HD
ENDBRANCH  10  61
BRANCH  12  63
HETATM   63  C   UNL     1     -23.570 -17.065  -3.213  1.00  0.00     0.198 C 
BRANCH  63  64
HETATM   64  O   UNL     1     -24.844 -16.665  -2.706  1.00  0.00    -0.398 OA
HETATM   65  H   UNL     1     -25.331 -16.302  -3.478  1.00  0.00     0.209 HD
ENDBRANCH  63  64
ENDBRANCH  12  63
BRANCH  37  66
HETATM   66  O   UNL     1     -15.099 -16.486  -3.909  1.00  0.00    -0.388 OA
HETATM   67  H   UNL     1     -15.264 -17.352  -3.455  1.00  0.00     0.210 HD
ENDBRANCH  37  66
BRANCH  16  68
HETATM   68  O   UNL     1     -16.598 -16.817  -7.236  1.00  0.00    -0.388 OA
HETATM   69  H   UNL     1     -16.944 -16.368  -8.048  1.00  0.00     0.210 HD
ENDBRANCH  16  68
BRANCH  31  70
HETATM   70  O   UNL     1     -15.047 -13.779  -0.293  1.00  0.00    -0.390 OA
HETATM   71  H   UNL     1     -14.586 -13.268   0.401  1.00  0.00     0.210 HD
ENDBRANCH  31  70
BRANCH  33  72
HETATM   72  C   UNL     1     -19.573 -13.199  -1.918  1.00  0.00     0.198 C 
BRANCH  72  73
HETATM   73  O   UNL     1     -20.075 -13.771  -3.071  1.00  0.00    -0.398 OA
HETATM   74  H   UNL     1     -20.963 -14.159  -2.997  1.00  0.00     0.209 HD
ENDBRANCH  72  73
ENDBRANCH  33  72
BRANCH  17  75
HETATM   75  O   UNL     1     -15.659 -14.129  -7.501  1.00  0.00    -0.390 OA
HETATM   76  H   UNL     1     -15.384 -15.077  -7.587  1.00  0.00     0.210 HD
ENDBRANCH  17  75
BRANCH  19  77
HETATM   77  C   UNL     1     -20.908 -13.177  -7.975  1.00  0.00     0.198 C 
BRANCH  77  78
HETATM   78  O   UNL     1     -22.153 -12.684  -7.508  1.00  0.00    -0.398 OA
HETATM   79  H   UNL     1     -21.955 -12.054  -6.794  1.00  0.00     0.209 HD
ENDBRANCH  77  78
ENDBRANCH  19  77
BRANCH  30  80
HETATM   80  O   UNL     1     -16.548 -11.807   1.001  1.00  0.00    -0.388 OA
HETATM   81  H   UNL     1     -17.524 -11.945   0.999  1.00  0.00     0.210 HD
ENDBRANCH  30  80
BRANCH  23  82
HETATM   82  O   UNL     1     -15.190  -9.381  -5.848  1.00  0.00    -0.388 OA
HETATM   83  H   UNL     1     -14.338  -9.702  -6.213  1.00  0.00     0.210 HD
ENDBRANCH  23  82
BRANCH  24  84
HETATM   84  O   UNL     1     -15.466 -10.947  -3.532  1.00  0.00    -0.390 OA
HETATM   85  H   UNL     1     -14.961 -11.440  -4.180  1.00  0.00     0.210 HD
ENDBRANCH  24  84
BRANCH  26  86
HETATM   86  C   UNL     1     -19.225  -7.925  -4.763  1.00  0.00     0.198 C 
BRANCH  86  87
HETATM   87  O   UNL     1     -19.909  -7.614  -5.985  1.00  0.00    -0.398 OA
HETATM   88  H   UNL     1     -20.146  -6.666  -5.946  1.00  0.00     0.209 HD
ENDBRANCH  86  87
ENDBRANCH  26  86
TORSDOF 27
ENDMDL
MODEL 8
REMARK VINA RESULT:      -3.4      2.293      7.122
REMARK  27 active torsions:
REMARK  status: ('A' for Active; 'I' for Inactive)
REMARK    1  A    between atoms: C_2  and  C_3 
REMARK    2  A    between atoms: C_3  and  O_4 
REMARK    3  A    between atoms: C_3  and  O_5 
REMARK    4  A    between atoms: O_5  and  C_6 
REMARK    5  A    between atoms: C_7  and  O_70 
REMARK    6  A    between atoms: C_10  and  C_68 
REMARK    7  A    between atoms: C_14  and  O_67 
REMARK    8  A    between atoms: C_15  and  O_66 
REMARK    9  A    between atoms: C_17  and  C_19 
REMARK   10  A    between atoms: C_19  and  O_20 
REMARK   11  A    between atoms: C_23  and  O_65 
REMARK   12  A    between atoms: C_24  and  O_64 
REMARK   13  A    between atoms: C_26  and  C_28 
REMARK   14  A    between atoms: C_28  and  O_29 
REMARK   15  A    between atoms: C_32  and  O_63 
REMARK   16  A    between atoms: C_33  and  O_62 
REMARK   17  A    between atoms: C_35  and  C_37 
REMARK   18  A    between atoms: C_37  and  O_38 
REMARK   19  A    between atoms: C_41  and  O_61 
REMARK   20  A    between atoms: C_42  and  O_60 
REMARK   21  A    between atoms: C_44  and  C_46 
REMARK   22  A    between atoms: C_46  and  O_47 
REMARK   23  A    between atoms: C_50  and  O_59 
REMARK   24  A    between atoms: C_51  and  O_58 
REMARK   25  A    between atoms: C_54  and  C_56 
REMARK   26  A    between atoms: C_56  and  O_57 
REMARK   27  A    between atoms: C_68  and  O_69 
ROOT
HETATM    1  C   UNL     1     -20.047  -8.790  -4.803  1.00  0.00     0.189 C 
HETATM    2  C   UNL     1     -20.358 -10.233  -5.646  1.00  0.00     0.205 C 
HETATM    3  C   UNL     1     -20.963 -11.380  -4.682  1.00  0.00     0.292 C 
HETATM    4  O   UNL     1     -22.340 -10.517  -4.150  1.00  0.00    -0.348 OA
HETATM    5  C   UNL     1     -22.310  -8.866  -4.335  1.00  0.00     0.180 C 
HETATM    6  C   UNL     1     -21.133  -8.572  -3.484  1.00  0.00     0.187 C 
HETATM    7  O   UNL     1     -21.089  -7.792  -2.214  1.00  0.00    -0.348 OA
HETATM    8  C   UNL     1     -21.525  -8.393  -0.727  1.00  0.00     0.292 C 
HETATM    9  C   UNL     1     -20.482  -9.203   0.128  1.00  0.00     0.204 C 
HETATM   10  C   UNL     1     -20.990 -10.666   0.209  1.00  0.00     0.183 C 
HETATM   11  C   UNL     1     -22.082 -11.694  -0.058  1.00  0.00     0.187 C 
HETATM   12  C   UNL     1     -23.210 -10.551  -0.438  1.00  0.00     0.180 C 
HETATM   13  O   UNL     1     -22.869  -8.995  -0.461  1.00  0.00    -0.348 OA
HETATM   14  O   UNL     1     -21.848 -13.152   0.626  1.00  0.00    -0.348 OA
HETATM   15  C   UNL     1     -21.399 -14.627  -0.196  1.00  0.00     0.292 C 
HETATM   16  C   UNL     1     -19.550 -15.626  -0.346  1.00  0.00     0.204 C 
HETATM   17  C   UNL     1     -18.861 -15.964  -2.207  1.00  0.00     0.183 C 
HETATM   18  C   UNL     1     -19.939 -15.470  -3.739  1.00  0.00     0.187 C 
HETATM   19  C   UNL     1     -21.697 -14.731  -3.385  1.00  0.00     0.180 C 
HETATM   20  O   UNL     1     -22.357 -14.583  -1.714  1.00  0.00    -0.348 OA
HETATM   21  O   UNL     1     -19.487 -15.967  -5.049  1.00  0.00    -0.348 OA
HETATM   22  C   UNL     1     -18.386 -15.326  -5.901  1.00  0.00     0.292 C 
HETATM   23  C   UNL     1     -16.984 -14.909  -5.362  1.00  0.00     0.204 C 
HETATM   24  C   UNL     1     -16.933 -13.424  -5.060  1.00  0.00     0.183 C 
HETATM   25  C   UNL     1     -17.187 -12.323  -6.044  1.00  0.00     0.187 C 
HETATM   26  C   UNL     1     -18.579 -12.916  -6.746  1.00  0.00     0.180 C 
HETATM   27  O   UNL     1     -18.764 -14.364  -6.915  1.00  0.00    -0.348 OA
HETATM   28  O   UNL     1     -17.338 -11.006  -5.291  1.00  0.00    -0.348 OA
HETATM   29  C   UNL     1     -16.576 -10.073  -4.374  1.00  0.00     0.292 C 
HETATM   30  C   UNL     1     -15.483 -10.082  -3.166  1.00  0.00     0.204 C 
HETATM   31  C   UNL     1     -15.788 -10.974  -1.929  1.00  0.00     0.183 C 
HETATM   32  C   UNL     1     -17.281 -11.032  -1.599  1.00  0.00     0.187 C 
HETATM   33  C   UNL     1     -18.119 -10.630  -2.736  1.00  0.00     0.180 C 
HETATM   34  O   UNL     1     -17.593  -9.545  -3.455  1.00  0.00    -0.348 OA
HETATM   35  O   UNL     1     -17.835 -11.228  -0.305  1.00  0.00    -0.348 OA
HETATM   36  C   UNL     1     -18.270 -12.644   0.174  1.00  0.00     0.292 C 
HETATM   37  C   UNL     1     -17.083 -13.423   0.006  1.00  0.00     0.204 C 
HETATM   38  C   UNL     1     -17.316 -13.825  -1.488  1.00  0.00     0.183 C 
HETATM   39  C   UNL     1     -18.999 -13.355  -2.448  1.00  0.00     0.187 C 
HETATM   40  O   UNL     1     -19.678 -12.446  -3.907  1.00  0.00    -0.348 OA
HETATM   41  C   UNL     1     -20.060 -14.136  -1.730  1.00  0.00     0.180 C 
HETATM   42  O   UNL     1     -19.489 -13.493  -0.278  1.00  0.00    -0.348 OA
ENDROOT
BRANCH   1  43
HETATM   43  O   UNL     1     -19.315  -7.707  -5.376  1.00  0.00    -0.351 OA
BRANCH  43  44
HETATM   44  C   UNL     1     -19.952  -6.617  -5.998  1.00  0.00     0.257 C 
BRANCH  44  45
HETATM   45  C   UNL     1     -18.945  -5.825  -6.851  1.00  0.00     0.056 C 
HETATM   46  C   UNL     1     -19.685  -4.713  -7.586  1.00  0.00     0.010 C 
ENDBRANCH  44  45
BRANCH  44  47
HETATM   47  O   UNL     1     -21.031  -6.938  -6.836  1.00  0.00    -0.371 OA
HETATM   48  H   UNL     1     -21.351  -6.138  -7.276  1.00  0.00     0.212 HD
ENDBRANCH  44  47
ENDBRANCH  43  44
ENDBRANCH   1  43
BRANCH   2  49
HETATM   49  O   UNL     1     -21.317 -10.084  -6.726  1.00  0.00    -0.388 OA
HETATM   50  H   UNL     1     -20.866  -9.841  -7.557  1.00  0.00     0.210 HD
ENDBRANCH   2  49
BRANCH   5  51
HETATM   51  C   UNL     1     -23.231  -7.636  -4.090  1.00  0.00     0.198 C 
BRANCH  51  52
HETATM   52  O   UNL     1     -22.550  -6.389  -4.202  1.00  0.00    -0.398 OA
HETATM   53  H   UNL     1     -22.472  -6.007  -3.304  1.00  0.00     0.209 HD
ENDBRANCH  51  52
ENDBRANCH   5  51
BRANCH   9  54
HETATM   54  O   UNL     1     -20.006  -8.834   1.431  1.00  0.00    -0.388 OA
HETATM   55  H   UNL     1     -19.605  -7.938   1.323  1.00  0.00     0.210 HD
ENDBRANCH   9  54
BRANCH  38  56
HETATM   56  O   UNL     1     -16.659 -15.132  -1.446  1.00  0.00    -0.390 OA
HETATM   57  H   UNL     1     -17.352 -15.816  -1.655  1.00  0.00     0.210 HD
ENDBRANCH  38  56
BRANCH  41  58
HETATM   58  C   UNL     1     -20.967 -16.080  -1.883  1.00  0.00     0.198 C 
BRANCH  58  59
HETATM   59  O   UNL     1     -21.967 -16.680  -0.907  1.00  0.00    -0.398 OA
HETATM   60  H   UNL     1     -22.700 -16.021  -0.746  1.00  0.00     0.209 HD
ENDBRANCH  58  59
ENDBRANCH  41  58
BRANCH  10  61
HETATM   61  O   UNL     1     -19.876 -11.368   0.268  1.00  0.00    -0.390 OA
HETATM   62  H   UNL     1     -19.162 -10.743   0.017  1.00  0.00     0.210 HD
ENDBRANCH  10  61
BRANCH  12  63
HETATM   63  C   UNL     1     -24.567 -10.734   0.198  1.00  0.00     0.198 C 
BRANCH  63  64
HETATM   64  O   UNL     1     -24.595 -11.978   0.899  1.00  0.00    -0.398 OA
HETATM   65  H   UNL     1     -25.480 -12.022   1.320  1.00  0.00     0.209 HD
ENDBRANCH  63  64
ENDBRANCH  12  63
BRANCH  37  66
HETATM   66  O   UNL     1     -16.965 -14.504   0.950  1.00  0.00    -0.388 OA
HETATM   67  H   UNL     1     -17.841 -14.959   1.033  1.00  0.00     0.210 HD
ENDBRANCH  37  66
BRANCH  16  68
HETATM   68  O   UNL     1     -19.526 -17.014   0.201  1.00  0.00    -0.388 OA
HETATM   69  H   UNL     1     -19.253 -16.896   1.146  1.00  0.00     0.210 HD
ENDBRANCH  16  68
BRANCH  31  70
HETATM   70  O   UNL     1     -15.024 -10.797  -0.752  1.00  0.00    -0.390 OA
HETATM   71  H   UNL     1     -15.650 -10.593  -0.029  1.00  0.00     0.210 HD
ENDBRANCH  31  70
BRANCH  33  72
HETATM   72  C   UNL     1     -19.534 -10.457  -2.485  1.00  0.00     0.198 C 
BRANCH  72  73
HETATM   73  O   UNL     1     -20.520 -11.407  -2.303  1.00  0.00    -0.398 OA
HETATM   74  H   UNL     1     -21.008 -11.668  -3.103  1.00  0.00     0.209 HD
ENDBRANCH  72  73
ENDBRANCH  33  72
BRANCH  17  75
HETATM   75  O   UNL     1     -18.090 -17.181  -2.266  1.00  0.00    -0.390 OA
HETATM   76  H   UNL     1     -18.200 -17.485  -3.204  1.00  0.00     0.210 HD
ENDBRANCH  17  75
BRANCH  19  77
HETATM   77  C   UNL     1     -22.777 -15.458  -4.202  1.00  0.00     0.198 C 
BRANCH  77  78
HETATM   78  O   UNL     1     -23.368 -14.517  -5.084  1.00  0.00    -0.398 OA
HETATM   79  H   UNL     1     -23.773 -15.027  -5.806  1.00  0.00     0.209 HD
ENDBRANCH  77  78
ENDBRANCH  19  77
BRANCH  30  80
HETATM   80  O   UNL     1     -15.459  -8.729  -2.583  1.00  0.00    -0.388 OA
HETATM   81  H   UNL     1     -14.702  -8.699  -1.953  1.00  0.00     0.210 HD
ENDBRANCH  30  80
BRANCH  23  82
HETATM   82  O   UNL     1     -15.920 -15.091  -6.318  1.00  0.00    -0.388 OA
HETATM   83  H   UNL     1     -15.242 -14.418  -6.096  1.00  0.00     0.210 HD
ENDBRANCH  23  82
BRANCH  24  84
HETATM   84  O   UNL     1     -15.784 -13.130  -4.311  1.00  0.00    -0.390 OA
HETATM   85  H   UNL     1     -15.976 -12.209  -4.133  1.00  0.00     0.210 HD
ENDBRANCH  24  84
BRANCH  26  86
HETATM   86  C   UNL     1     -18.854 -12.330  -8.148  1.00  0.00     0.198 C 
BRANCH  86  87
HETATM   87  O   UNL     1     -18.104 -13.031  -9.150  1.00  0.00    -0.398 OA
HETATM   88  H   UNL     1     -17.584 -13.718  -8.687  1.00  0.00     0.209 HD
ENDBRANCH  86  87
ENDBRANCH  26  86
TORSDOF 27
ENDMDL
MODEL 9
REMARK VINA RESULT:      -3.1      1.970      6.349
REMARK  27 active torsions:
REMARK  status: ('A' for Active; 'I' for Inactive)
REMARK    1  A    between atoms: C_2  and  C_3 
REMARK    2  A    between atoms: C_3  and  O_4 
REMARK    3  A    between atoms: C_3  and  O_5 
REMARK    4  A    between atoms: O_5  and  C_6 
REMARK    5  A    between atoms: C_7  and  O_70 
REMARK    6  A    between atoms: C_10  and  C_68 
REMARK    7  A    between atoms: C_14  and  O_67 
REMARK    8  A    between atoms: C_15  and  O_66 
REMARK    9  A    between atoms: C_17  and  C_19 
REMARK   10  A    between atoms: C_19  and  O_20 
REMARK   11  A    between atoms: C_23  and  O_65 
REMARK   12  A    between atoms: C_24  and  O_64 
REMARK   13  A    between atoms: C_26  and  C_28 
REMARK   14  A    between atoms: C_28  and  O_29 
REMARK   15  A    between atoms: C_32  and  O_63 
REMARK   16  A    between atoms: C_33  and  O_62 
REMARK   17  A    between atoms: C_35  and  C_37 
REMARK   18  A    between atoms: C_37  and  O_38 
REMARK   19  A    between atoms: C_41  and  O_61 
REMARK   20  A    between atoms: C_42  and  O_60 
REMARK   21  A    between atoms: C_44  and  C_46 
REMARK   22  A    between atoms: C_46  and  O_47 
REMARK   23  A    between atoms: C_50  and  O_59 
REMARK   24  A    between atoms: C_51  and  O_58 
REMARK   25  A    between atoms: C_54  and  C_56 
REMARK   26  A    between atoms: C_56  and  O_57 
REMARK   27  A    between atoms: C_68  and  O_69 
ROOT
HETATM    1  C   UNL     1     -22.264 -15.720  -3.678  1.00  0.00     0.189 C 
HETATM    2  C   UNL     1     -22.700 -14.085  -3.513  1.00  0.00     0.205 C 
HETATM    3  C   UNL     1     -21.726 -13.111  -4.357  1.00  0.00     0.292 C 
HETATM    4  O   UNL     1     -22.001 -13.802  -5.896  1.00  0.00    -0.348 OA
HETATM    5  C   UNL     1     -22.639 -15.337  -5.927  1.00  0.00     0.180 C 
HETATM    6  C   UNL     1     -21.550 -16.041  -5.212  1.00  0.00     0.187 C 
HETATM    7  O   UNL     1     -20.636 -17.097  -5.737  1.00  0.00    -0.348 OA
HETATM    8  C   UNL     1     -19.299 -16.800  -6.677  1.00  0.00     0.292 C 
HETATM    9  C   UNL     1     -17.930 -16.428  -5.997  1.00  0.00     0.204 C 
HETATM   10  C   UNL     1     -17.610 -14.958  -6.377  1.00  0.00     0.183 C 
HETATM   11  C   UNL     1     -17.937 -13.711  -7.188  1.00  0.00     0.187 C 
HETATM   12  C   UNL     1     -19.013 -14.498  -8.160  1.00  0.00     0.180 C 
HETATM   13  O   UNL     1     -19.368 -16.039  -7.964  1.00  0.00    -0.348 OA
HETATM   14  O   UNL     1     -16.818 -12.530  -7.129  1.00  0.00    -0.348 OA
HETATM   15  C   UNL     1     -16.953 -11.012  -6.274  1.00  0.00     0.292 C 
HETATM   16  C   UNL     1     -16.130 -10.371  -4.444  1.00  0.00     0.204 C 
HETATM   17  C   UNL     1     -17.433  -9.731  -3.049  1.00  0.00     0.183 C 
HETATM   18  C   UNL     1     -19.322  -9.633  -3.467  1.00  0.00     0.187 C 
HETATM   19  C   UNL     1     -19.856 -10.092  -5.274  1.00  0.00     0.180 C 
HETATM   20  O   UNL     1     -18.654 -10.510  -6.552  1.00  0.00    -0.348 OA
HETATM   21  O   UNL     1     -20.175  -8.930  -2.494  1.00  0.00    -0.348 OA
HETATM   22  C   UNL     1     -20.724  -9.542  -1.201  1.00  0.00     0.292 C 
HETATM   23  C   UNL     1     -19.866 -10.331  -0.166  1.00  0.00     0.204 C 
HETATM   24  C   UNL     1     -20.016 -11.828  -0.357  1.00  0.00     0.183 C 
HETATM   25  C   UNL     1     -21.303 -12.593  -0.288  1.00  0.00     0.187 C 
HETATM   26  C   UNL     1     -22.249 -11.599  -1.236  1.00  0.00     0.180 C 
HETATM   27  O   UNL     1     -22.040 -10.144  -1.222  1.00  0.00    -0.348 OA
HETATM   28  O   UNL     1     -21.075 -14.000  -0.830  1.00  0.00    -0.348 OA
HETATM   29  C   UNL     1     -20.264 -15.251  -0.571  1.00  0.00     0.292 C 
HETATM   30  C   UNL     1     -18.799 -15.737  -0.049  1.00  0.00     0.204 C 
HETATM   31  C   UNL     1     -17.550 -15.127  -0.748  1.00  0.00     0.183 C 
HETATM   32  C   UNL     1     -17.776 -14.871  -2.239  1.00  0.00     0.187 C 
HETATM   33  C   UNL     1     -19.202 -14.825  -2.587  1.00  0.00     0.180 C 
HETATM   34  O   UNL     1     -19.969 -15.784  -1.907  1.00  0.00    -0.348 OA
HETATM   35  O   UNL     1     -16.770 -14.891  -3.243  1.00  0.00    -0.348 OA
HETATM   36  C   UNL     1     -16.086 -13.575  -3.718  1.00  0.00     0.292 C 
HETATM   37  C   UNL     1     -15.581 -13.015  -2.502  1.00  0.00     0.204 C 
HETATM   38  C   UNL     1     -16.871 -12.231  -2.091  1.00  0.00     0.183 C 
HETATM   39  C   UNL     1     -18.462 -12.133  -3.288  1.00  0.00     0.187 C 
HETATM   40  O   UNL     1     -20.266 -12.522  -3.403  1.00  0.00    -0.348 OA
HETATM   41  C   UNL     1     -17.976 -11.363  -4.481  1.00  0.00     0.180 C 
HETATM   42  O   UNL     1     -16.674 -12.430  -4.585  1.00  0.00    -0.348 OA
ENDROOT
BRANCH   1  43
HETATM   43  O   UNL     1     -22.828 -16.751  -2.868  1.00  0.00    -0.351 OA
BRANCH  43  44
HETATM   44  C   UNL     1     -24.207 -17.037  -2.868  1.00  0.00     0.257 C 
BRANCH  44  45
HETATM   45  C   UNL     1     -24.896 -16.345  -1.679  1.00  0.00     0.056 C 
HETATM   46  C   UNL     1     -26.092 -17.183  -1.242  1.00  0.00     0.010 C 
ENDBRANCH  44  45
BRANCH  44  47
HETATM   47  O   UNL     1     -24.908 -16.657  -4.022  1.00  0.00    -0.371 OA
HETATM   48  H   UNL     1     -24.297 -16.592  -4.769  1.00  0.00     0.212 HD
ENDBRANCH  44  47
ENDBRANCH  43  44
ENDBRANCH   1  43
BRANCH   2  49
HETATM   49  O   UNL     1     -24.044 -13.789  -3.974  1.00  0.00    -0.388 OA
HETATM   50  H   UNL     1     -24.211 -14.206  -4.841  1.00  0.00     0.210 HD
ENDBRANCH   2  49
BRANCH   5  51
HETATM   51  C   UNL     1     -23.113 -16.394  -6.965  1.00  0.00     0.198 C 
BRANCH  51  52
HETATM   52  O   UNL     1     -24.525 -16.593  -6.963  1.00  0.00    -0.398 OA
HETATM   53  H   UNL     1     -24.732 -17.273  -6.289  1.00  0.00     0.209 HD
ENDBRANCH  51  52
ENDBRANCH   5  51
BRANCH   9  54
HETATM   54  O   UNL     1     -16.713 -17.181  -6.108  1.00  0.00    -0.388 OA
HETATM   55  H   UNL     1     -16.903 -18.057  -5.692  1.00  0.00     0.210 HD
ENDBRANCH   9  54
BRANCH  38  56
HETATM   56  O   UNL     1     -16.214 -11.119  -1.402  1.00  0.00    -0.390 OA
HETATM   57  H   UNL     1     -16.255 -10.331  -2.011  1.00  0.00     0.210 HD
ENDBRANCH  38  56
BRANCH  41  58
HETATM   58  C   UNL     1     -17.867  -9.304  -5.093  1.00  0.00     0.198 C 
BRANCH  58  59
HETATM   59  O   UNL     1     -17.320  -8.794  -6.418  1.00  0.00    -0.398 OA
HETATM   60  H   UNL     1     -18.075  -8.693  -7.065  1.00  0.00     0.209 HD
ENDBRANCH  58  59
ENDBRANCH  41  58
BRANCH  10  61
HETATM   61  O   UNL     1     -16.953 -14.513  -5.325  1.00  0.00    -0.390 OA
HETATM   62  H   UNL     1     -17.586 -13.931  -4.850  1.00  0.00     0.210 HD
ENDBRANCH  10  61
BRANCH  12  63
HETATM   63  C   UNL     1     -18.882 -14.222  -9.638  1.00  0.00     0.198 C 
BRANCH  63  64
HETATM   64  O   UNL     1     -17.978 -15.165 -10.216  1.00  0.00    -0.398 OA
HETATM   65  H   UNL     1     -18.290 -15.297 -11.137  1.00  0.00     0.209 HD
ENDBRANCH  63  64
ENDBRANCH  12  63
BRANCH  37  66
HETATM   66  O   UNL     1     -14.385 -12.234  -2.683  1.00  0.00    -0.388 OA
HETATM   67  H   UNL     1     -14.151 -11.795  -1.825  1.00  0.00     0.210 HD
ENDBRANCH  37  66
BRANCH  16  68
HETATM   68  O   UNL     1     -15.229  -9.184  -4.527  1.00  0.00    -0.388 OA
HETATM   69  H   UNL     1     -15.433  -8.669  -3.706  1.00  0.00     0.210 HD
ENDBRANCH  16  68
BRANCH  31  70
HETATM   70  O   UNL     1     -16.286 -15.721  -0.529  1.00  0.00    -0.390 OA
HETATM   71  H   UNL     1     -15.801 -15.148   0.097  1.00  0.00     0.210 HD
ENDBRANCH  31  70
BRANCH  33  72
HETATM   72  C   UNL     1     -19.538 -14.785  -3.995  1.00  0.00     0.198 C 
BRANCH  72  73
HETATM   73  O   UNL     1     -19.482 -13.730  -4.885  1.00  0.00    -0.398 OA
HETATM   74  H   UNL     1     -18.611 -13.558  -5.281  1.00  0.00     0.209 HD
ENDBRANCH  72  73
ENDBRANCH  33  72
BRANCH  17  75
HETATM   75  O   UNL     1     -16.852  -8.702  -2.223  1.00  0.00    -0.390 OA
HETATM   76  H   UNL     1     -15.888  -8.931  -2.203  1.00  0.00     0.210 HD
ENDBRANCH  17  75
BRANCH  19  77
HETATM   77  C   UNL     1     -20.753  -9.002  -5.880  1.00  0.00     0.198 C 
BRANCH  77  78
HETATM   78  O   UNL     1     -21.787  -8.719  -4.952  1.00  0.00    -0.398 OA
HETATM   79  H   UNL     1     -21.499  -9.073  -4.094  1.00  0.00     0.209 HD
ENDBRANCH  77  78
ENDBRANCH  19  77
BRANCH  30  80
HETATM   80  O   UNL     1     -18.671 -17.170  -0.367  1.00  0.00    -0.388 OA
HETATM   81  H   UNL     1     -17.761 -17.444  -0.107  1.00  0.00     0.210 HD
ENDBRANCH  30  80
BRANCH  23  82
HETATM   82  O   UNL     1     -20.279 -10.127   1.201  1.00  0.00    -0.388 OA
HETATM   83  H   UNL     1     -21.101 -10.650   1.314  1.00  0.00     0.210 HD
ENDBRANCH  23  82
BRANCH  24  84
HETATM   84  O   UNL     1     -19.027 -12.502   0.373  1.00  0.00    -0.390 OA
HETATM   85  H   UNL     1     -19.010 -13.309  -0.144  1.00  0.00     0.210 HD
ENDBRANCH  24  84
BRANCH  26  86
HETATM   86  C   UNL     1     -23.762 -11.769  -0.978  1.00  0.00     0.198 C 
BRANCH  86  87
HETATM   87  O   UNL     1     -24.110 -13.157  -0.881  1.00  0.00    -0.398 OA
HETATM   88  H   UNL     1     -23.337 -13.667  -1.196  1.00  0.00     0.209 HD
ENDBRANCH  86  87
ENDBRANCH  26  86
TORSDOF 27
ENDMDL
