MODEL 1
REMARK VINA RESULT:      -7.0      0.000      0.000
REMARK  22 active torsions:
REMARK  status: ('A' for Active; 'I' for Inactive)
REMARK    1  A    between atoms: C_5  and  C_33 
REMARK    2  A    between atoms: C_19  and  O_26 
REMARK    3  A    between atoms: C_20  and  O_25 
REMARK    4  A    between atoms: C_21  and  C_23 
REMARK    5  A    between atoms: C_23  and  O_24 
REMARK    6  A    between atoms: C_33  and  O_35 
REMARK    7  A    between atoms: O_35  and  C_36 
REMARK    8  A    between atoms: C_37  and  O_67 
REMARK    9  A    between atoms: C_38  and  O_66 
REMARK   10  A    between atoms: C_39  and  O_65 
REMARK   11  A    between atoms: C_40  and  C_42 
REMARK   12  A    between atoms: C_42  and  O_43 
REMARK   13  A    between atoms: O_43  and  C_44 
REMARK   14  A    between atoms: C_45  and  O_64 
REMARK   15  A    between atoms: C_46  and  O_63 
REMARK   16  A    between atoms: C_47  and  O_52 
REMARK   17  A    between atoms: C_48  and  C_50 
REMARK   18  A    between atoms: C_50  and  O_51 
REMARK   19  A    between atoms: O_52  and  C_53 
REMARK   20  A    between atoms: C_54  and  O_62 
REMARK   21  A    between atoms: C_55  and  O_61 
REMARK   22  A    between atoms: C_56  and  O_60 
ROOT
HETATM    1  C   UNL     1     -21.136 -11.520  -2.093  1.00  0.00     0.301 C 
HETATM    2  C   UNL     1     -21.975 -11.717  -0.820  1.00  0.00     0.205 C 
HETATM    3  C   UNL     1     -23.063 -10.626  -0.767  1.00  0.00     0.183 C 
HETATM    4  C   UNL     1     -22.492  -9.187  -0.793  1.00  0.00     0.180 C 
HETATM    5  C   UNL     1     -21.491  -9.036  -1.972  1.00  0.00     0.180 C 
HETATM    6  O   UNL     1     -20.563 -10.158  -2.071  1.00  0.00    -0.348 OA
ENDROOT
BRANCH   1   7
HETATM    7  O   UNL     1     -21.932 -11.817  -3.269  1.00  0.00    -0.286 OA
BRANCH   7   8
HETATM    8  C   UNL     1     -21.511 -11.601  -4.596  1.00  0.00     0.270 C 
HETATM    9  O   UNL     1     -21.468 -10.507  -5.133  1.00  0.00    -0.264 OA
BRANCH   8  10
HETATM   10  C   UNL     1     -21.041 -13.010  -5.195  1.00  0.00     0.056 C 
HETATM   11  C   UNL     1     -22.102 -13.232  -6.288  1.00  0.00     0.021 C 
HETATM   12  C   UNL     1     -23.397 -13.663  -5.614  1.00  0.00     0.006 C 
HETATM   13  C   UNL     1     -23.271 -15.113  -5.147  1.00  0.00    -0.014 C 
HETATM   14  C   UNL     1     -24.679 -15.630  -4.810  1.00  0.00     0.010 C 
HETATM   15  C   UNL     1     -22.144 -15.258  -4.047  1.00  0.00    -0.005 C 
HETATM   16  C   UNL     1     -20.796 -14.514  -4.507  1.00  0.00     0.037 C 
HETATM   17  C   UNL     1     -22.690 -14.912  -2.656  1.00  0.00     0.011 C 
HETATM   18  C   UNL     1     -19.341 -14.847  -3.859  1.00  0.00    -0.069 C 
HETATM   19  C   UNL     1     -18.327 -13.682  -3.893  1.00  0.00    -0.013 C 
HETATM   20  C   UNL     1     -18.819 -15.978  -3.248  1.00  0.00    -0.022 C 
HETATM   21  C   UNL     1     -18.806 -12.364  -4.460  1.00  0.00     0.016 C 
HETATM   22  C   UNL     1     -17.821 -13.606  -2.318  1.00  0.00    -0.028 C 
HETATM   23  C   UNL     1     -17.279 -14.125  -5.050  1.00  0.00     0.021 C 
HETATM   24  C   UNL     1     -19.661 -12.634  -5.722  1.00  0.00     0.022 C 
HETATM   25  C   UNL     1     -16.643 -14.619  -2.407  1.00  0.00     0.007 C 
HETATM   26  C   UNL     1     -17.389 -12.330  -1.548  1.00  0.00     0.011 C 
HETATM   27  C   UNL     1     -19.031 -14.036  -1.297  1.00  0.00     0.016 C 
HETATM   28  C   UNL     1     -17.375 -16.023  -2.415  1.00  0.00     0.033 C 
HETATM   29  C   UNL     1     -15.176 -13.991  -2.086  1.00  0.00    -0.033 C 
HETATM   30  C   UNL     1     -15.132 -13.481  -0.639  1.00  0.00     0.007 C 
HETATM   31  C   UNL     1     -13.991 -14.900  -2.566  1.00  0.00     0.044 C 
HETATM   32  C   UNL     1     -14.832 -12.673  -2.940  1.00  0.00     0.016 C 
HETATM   33  C   UNL     1     -16.430 -12.656  -0.336  1.00  0.00     0.007 C 
HETATM   34  C   UNL     1     -14.573 -14.506   0.432  1.00  0.00     0.010 C 
HETATM   35  C   UNL     1     -13.823 -15.702  -0.243  1.00  0.00     0.157 C 
HETATM   36  C   UNL     1     -13.620 -13.710   1.374  1.00  0.00     0.020 C 
HETATM   37  C   UNL     1     -13.036 -15.362  -1.493  1.00  0.00     0.148 C 
BRANCH  34  38
HETATM   38  C   UNL     1     -15.677 -15.139   1.334  1.00  0.00     0.176 C 
BRANCH  38  39
HETATM   39  O   UNL     1     -16.023 -16.437   0.901  1.00  0.00    -0.400 OA
HETATM   40  H   UNL     1     -15.604 -16.620   0.041  1.00  0.00     0.209 HD
ENDBRANCH  38  39
ENDBRANCH  34  38
BRANCH  35  41
HETATM   41  O   UNL     1     -12.953 -16.355   0.691  1.00  0.00    -0.392 OA
HETATM   42  H   UNL     1     -12.346 -16.902   0.151  1.00  0.00     0.210 HD
ENDBRANCH  35  41
BRANCH  37  43
HETATM   43  O   UNL     1     -12.001 -14.422  -1.210  1.00  0.00    -0.393 OA
HETATM   44  H   UNL     1     -12.215 -13.569  -1.620  1.00  0.00     0.210 HD
ENDBRANCH  37  43
ENDBRANCH   8  10
ENDBRANCH   7   8
ENDBRANCH   1   7
BRANCH   2  45
HETATM   45  O   UNL     1     -21.176 -11.660   0.370  1.00  0.00    -0.388 OA
HETATM   46  H   UNL     1     -21.760 -11.734   1.147  1.00  0.00     0.210 HD
ENDBRANCH   2  45
BRANCH   3  47
HETATM   47  O   UNL     1     -23.966 -10.850   0.322  1.00  0.00    -0.390 OA
HETATM   48  H   UNL     1     -23.977 -11.809   0.516  1.00  0.00     0.210 HD
ENDBRANCH   3  47
BRANCH   5  49
HETATM   49  C   UNL     1     -20.738  -7.630  -1.921  1.00  0.00     0.205 C 
BRANCH  49  50
HETATM   50  O   UNL     1     -20.770  -6.933  -3.173  1.00  0.00    -0.356 OA
BRANCH  50  51
HETATM   51  C   UNL     1     -21.500  -7.521  -4.273  1.00  0.00     0.291 C 
HETATM   52  C   UNL     1     -20.583  -7.433  -5.491  1.00  0.00     0.204 C 
HETATM   53  C   UNL     1     -20.307  -5.943  -5.725  1.00  0.00     0.183 C 
HETATM   54  C   UNL     1     -21.570  -5.208  -6.230  1.00  0.00     0.187 C 
HETATM   55  C   UNL     1     -22.772  -5.619  -5.277  1.00  0.00     0.180 C 
HETATM   56  O   UNL     1     -22.748  -6.920  -4.623  1.00  0.00    -0.348 OA
BRANCH  52  57
HETATM   57  O   UNL     1     -21.116  -8.061  -6.665  1.00  0.00    -0.388 OA
HETATM   58  H   UNL     1     -20.608  -8.873  -6.864  1.00  0.00     0.210 HD
ENDBRANCH  52  57
BRANCH  53  59
HETATM   59  O   UNL     1     -19.126  -5.797  -6.505  1.00  0.00    -0.390 OA
HETATM   60  H   UNL     1     -19.192  -6.440  -7.241  1.00  0.00     0.210 HD
ENDBRANCH  53  59
BRANCH  54  61
HETATM   61  O   UNL     1     -21.856  -5.374  -7.653  1.00  0.00    -0.348 OA
BRANCH  61  62
HETATM   62  C   UNL     1     -22.159  -4.145  -8.368  1.00  0.00     0.292 C 
HETATM   63  C   UNL     1     -23.569  -4.028  -9.027  1.00  0.00     0.204 C 
HETATM   64  C   UNL     1     -23.563  -4.672 -10.437  1.00  0.00     0.183 C 
HETATM   65  C   UNL     1     -22.414  -4.137 -11.300  1.00  0.00     0.178 C 
HETATM   66  C   UNL     1     -21.074  -4.253 -10.554  1.00  0.00     0.152 C 
HETATM   67  O   UNL     1     -21.095  -3.723  -9.233  1.00  0.00    -0.351 OA
HETATM   68  C   UNL     1     -19.980  -3.478 -11.303  1.00  0.00     0.042 C 
BRANCH  63  69
HETATM   69  O   UNL     1     -24.000  -2.644  -9.063  1.00  0.00    -0.388 OA
HETATM   70  H   UNL     1     -23.957  -2.313  -8.145  1.00  0.00     0.210 HD
ENDBRANCH  63  69
BRANCH  64  71
HETATM   71  O   UNL     1     -24.789  -4.475 -11.159  1.00  0.00    -0.390 OA
HETATM   72  H   UNL     1     -25.473  -4.140 -10.551  1.00  0.00     0.210 HD
ENDBRANCH  64  71
BRANCH  65  73
HETATM   73  O   UNL     1     -22.649  -2.777 -11.694  1.00  0.00    -0.390 OA
HETATM   74  H   UNL     1     -23.233  -2.802 -12.477  1.00  0.00     0.210 HD
ENDBRANCH  65  73
ENDBRANCH  61  62
ENDBRANCH  54  61
BRANCH  55  75
HETATM   75  C   UNL     1     -24.145  -5.556  -5.987  1.00  0.00     0.198 C 
BRANCH  75  76
HETATM   76  O   UNL     1     -25.181  -5.907  -5.062  1.00  0.00    -0.398 OA
HETATM   77  H   UNL     1     -25.278  -6.875  -5.169  1.00  0.00     0.209 HD
ENDBRANCH  75  76
ENDBRANCH  55  75
ENDBRANCH  50  51
ENDBRANCH  49  50
ENDBRANCH   5  49
BRANCH   4  78
HETATM   78  O   UNL     1     -21.939  -8.779   0.466  1.00  0.00    -0.390 OA
HETATM   79  H   UNL     1     -22.676  -8.724   1.104  1.00  0.00     0.210 HD
ENDBRANCH   4  78
TORSDOF 22
ENDMDL
MODEL 2
REMARK VINA RESULT:      -6.7      4.338      7.017
REMARK  22 active torsions:
REMARK  status: ('A' for Active; 'I' for Inactive)
REMARK    1  A    between atoms: C_5  and  C_33 
REMARK    2  A    between atoms: C_19  and  O_26 
REMARK    3  A    between atoms: C_20  and  O_25 
REMARK    4  A    between atoms: C_21  and  C_23 
REMARK    5  A    between atoms: C_23  and  O_24 
REMARK    6  A    between atoms: C_33  and  O_35 
REMARK    7  A    between atoms: O_35  and  C_36 
REMARK    8  A    between atoms: C_37  and  O_67 
REMARK    9  A    between atoms: C_38  and  O_66 
REMARK   10  A    between atoms: C_39  and  O_65 
REMARK   11  A    between atoms: C_40  and  C_42 
REMARK   12  A    between atoms: C_42  and  O_43 
REMARK   13  A    between atoms: O_43  and  C_44 
REMARK   14  A    between atoms: C_45  and  O_64 
REMARK   15  A    between atoms: C_46  and  O_63 
REMARK   16  A    between atoms: C_47  and  O_52 
REMARK   17  A    between atoms: C_48  and  C_50 
REMARK   18  A    between atoms: C_50  and  O_51 
REMARK   19  A    between atoms: O_52  and  C_53 
REMARK   20  A    between atoms: C_54  and  O_62 
REMARK   21  A    between atoms: C_55  and  O_61 
REMARK   22  A    between atoms: C_56  and  O_60 
ROOT
HETATM    1  C   UNL     1     -21.515 -14.731  -2.854  1.00  0.00     0.301 C 
HETATM    2  C   UNL     1     -22.899 -14.490  -3.480  1.00  0.00     0.205 C 
HETATM    3  C   UNL     1     -23.453 -15.833  -3.994  1.00  0.00     0.183 C 
HETATM    4  C   UNL     1     -22.531 -16.524  -5.028  1.00  0.00     0.180 C 
HETATM    5  C   UNL     1     -21.080 -16.599  -4.476  1.00  0.00     0.180 C 
HETATM    6  O   UNL     1     -20.640 -15.345  -3.874  1.00  0.00    -0.348 OA
ENDROOT
BRANCH   1   7
HETATM    7  O   UNL     1     -21.645 -15.503  -1.632  1.00  0.00    -0.286 OA
BRANCH   7   8
HETATM    8  C   UNL     1     -22.590 -15.246  -0.619  1.00  0.00     0.270 C 
HETATM    9  O   UNL     1     -23.704 -15.739  -0.579  1.00  0.00    -0.264 OA
BRANCH   8  10
HETATM   10  C   UNL     1     -21.899 -14.288   0.462  1.00  0.00     0.056 C 
HETATM   11  C   UNL     1     -23.135 -13.727   1.189  1.00  0.00     0.021 C 
HETATM   12  C   UNL     1     -23.778 -12.677   0.294  1.00  0.00     0.006 C 
HETATM   13  C   UNL     1     -22.931 -11.405   0.311  1.00  0.00    -0.014 C 
HETATM   14  C   UNL     1     -23.770 -10.265  -0.288  1.00  0.00     0.010 C 
HETATM   15  C   UNL     1     -21.497 -11.671  -0.300  1.00  0.00    -0.005 C 
HETATM   16  C   UNL     1     -20.844 -12.997   0.330  1.00  0.00     0.037 C 
HETATM   17  C   UNL     1     -21.526 -11.568  -1.830  1.00  0.00     0.011 C 
HETATM   18  C   UNL     1     -19.245 -13.300   0.283  1.00  0.00    -0.069 C 
HETATM   19  C   UNL     1     -18.861 -14.795   0.306  1.00  0.00    -0.013 C 
HETATM   20  C   UNL     1     -18.133 -12.474   0.203  1.00  0.00    -0.022 C 
HETATM   21  C   UNL     1     -19.991 -15.800   0.307  1.00  0.00     0.016 C 
HETATM   22  C   UNL     1     -17.838 -14.918  -0.991  1.00  0.00    -0.028 C 
HETATM   23  C   UNL     1     -18.282 -15.016   1.805  1.00  0.00     0.021 C 
HETATM   24  C   UNL     1     -21.105 -15.312   1.265  1.00  0.00     0.022 C 
HETATM   25  C   UNL     1     -16.506 -14.576  -0.264  1.00  0.00     0.007 C 
HETATM   26  C   UNL     1     -17.659 -16.154  -1.912  1.00  0.00     0.011 C 
HETATM   27  C   UNL     1     -18.272 -13.869  -2.176  1.00  0.00     0.016 C 
HETATM   28  C   UNL     1     -16.580 -13.004  -0.094  1.00  0.00     0.033 C 
HETATM   29  C   UNL     1     -15.396 -15.767  -0.276  1.00  0.00    -0.033 C 
HETATM   30  C   UNL     1     -14.975 -16.075  -1.719  1.00  0.00     0.007 C 
HETATM   31  C   UNL     1     -14.253 -15.565   0.780  1.00  0.00     0.044 C 
HETATM   32  C   UNL     1     -15.956 -17.183   0.241  1.00  0.00     0.016 C 
HETATM   33  C   UNL     1     -16.250 -16.171  -2.626  1.00  0.00     0.007 C 
HETATM   34  C   UNL     1     -13.688 -15.308  -2.237  1.00  0.00     0.010 C 
HETATM   35  C   UNL     1     -12.876 -14.674  -1.058  1.00  0.00     0.157 C 
HETATM   36  C   UNL     1     -12.823 -16.341  -3.019  1.00  0.00     0.020 C 
HETATM   37  C   UNL     1     -12.851 -15.476   0.228  1.00  0.00     0.148 C 
BRANCH  34  38
HETATM   38  C   UNL     1     -14.004 -14.141  -3.223  1.00  0.00     0.176 C 
BRANCH  38  39
HETATM   39  O   UNL     1     -12.878 -13.317  -3.433  1.00  0.00    -0.400 OA
HETATM   40  H   UNL     1     -12.112 -13.863  -3.687  1.00  0.00     0.209 HD
ENDBRANCH  38  39
ENDBRANCH  34  38
BRANCH  35  41
HETATM   41  O   UNL     1     -11.528 -14.394  -1.457  1.00  0.00    -0.392 OA
HETATM   42  H   UNL     1     -11.345 -13.481  -1.153  1.00  0.00     0.210 HD
ENDBRANCH  35  41
BRANCH  37  43
HETATM   43  O   UNL     1     -12.237 -16.747   0.030  1.00  0.00    -0.393 OA
HETATM   44  H   UNL     1     -11.398 -16.633  -0.445  1.00  0.00     0.210 HD
ENDBRANCH  37  43
ENDBRANCH   8  10
ENDBRANCH   7   8
ENDBRANCH   1   7
BRANCH   2  45
HETATM   45  O   UNL     1     -22.848 -13.544  -4.556  1.00  0.00    -0.388 OA
HETATM   46  H   UNL     1     -23.013 -12.651  -4.200  1.00  0.00     0.210 HD
ENDBRANCH   2  45
BRANCH   3  47
HETATM   47  O   UNL     1     -24.802 -15.692  -4.454  1.00  0.00    -0.390 OA
HETATM   48  H   UNL     1     -24.924 -14.772  -4.763  1.00  0.00     0.210 HD
ENDBRANCH   3  47
BRANCH   5  49
HETATM   49  C   UNL     1     -20.062 -17.130  -5.584  1.00  0.00     0.205 C 
BRANCH  49  50
HETATM   50  O   UNL     1     -19.018 -16.192  -5.878  1.00  0.00    -0.356 OA
BRANCH  50  51
HETATM   51  C   UNL     1     -19.152 -15.353  -7.046  1.00  0.00     0.291 C 
HETATM   52  C   UNL     1     -17.771 -14.753  -7.304  1.00  0.00     0.204 C 
HETATM   53  C   UNL     1     -17.407 -13.939  -6.057  1.00  0.00     0.183 C 
HETATM   54  C   UNL     1     -18.282 -12.669  -5.937  1.00  0.00     0.187 C 
HETATM   55  C   UNL     1     -19.793 -13.112  -6.143  1.00  0.00     0.180 C 
HETATM   56  O   UNL     1     -20.086 -14.275  -6.970  1.00  0.00    -0.348 OA
BRANCH  52  57
HETATM   57  O   UNL     1     -17.697 -13.956  -8.494  1.00  0.00    -0.388 OA
HETATM   58  H   UNL     1     -18.585 -13.609  -8.714  1.00  0.00     0.210 HD
ENDBRANCH  52  57
BRANCH  53  59
HETATM   59  O   UNL     1     -15.998 -13.752  -6.008  1.00  0.00    -0.390 OA
HETATM   60  H   UNL     1     -15.593 -14.529  -6.445  1.00  0.00     0.210 HD
ENDBRANCH  53  59
BRANCH  54  61
HETATM   61  O   UNL     1     -17.870 -11.551  -6.782  1.00  0.00    -0.348 OA
BRANCH  61  62
HETATM   62  C   UNL     1     -17.346 -10.399  -6.068  1.00  0.00     0.292 C 
HETATM   63  C   UNL     1     -16.028 -10.597  -5.256  1.00  0.00     0.204 C 
HETATM   64  C   UNL     1     -16.340 -11.145  -3.841  1.00  0.00     0.183 C 
HETATM   65  C   UNL     1     -17.402 -10.301  -3.127  1.00  0.00     0.178 C 
HETATM   66  C   UNL     1     -18.644 -10.124  -4.017  1.00  0.00     0.152 C 
HETATM   67  O   UNL     1     -18.355  -9.685  -5.340  1.00  0.00    -0.351 OA
HETATM   68  C   UNL     1     -19.583  -9.066  -3.417  1.00  0.00     0.042 C 
BRANCH  63  69
HETATM   69  O   UNL     1     -15.272  -9.360  -5.206  1.00  0.00    -0.388 OA
HETATM   70  H   UNL     1     -15.232  -9.019  -6.120  1.00  0.00     0.210 HD
ENDBRANCH  63  69
BRANCH  64  71
HETATM   71  O   UNL     1     -15.185 -11.217  -2.989  1.00  0.00    -0.390 OA
HETATM   72  H   UNL     1     -15.462 -11.111  -2.060  1.00  0.00     0.210 HD
ENDBRANCH  64  71
BRANCH  65  73
HETATM   73  O   UNL     1     -16.879  -9.021  -2.743  1.00  0.00    -0.390 OA
HETATM   74  H   UNL     1     -15.948  -8.991  -3.039  1.00  0.00     0.210 HD
ENDBRANCH  65  73
ENDBRANCH  61  62
ENDBRANCH  54  61
BRANCH  55  75
HETATM   75  C   UNL     1     -20.674 -11.980  -6.721  1.00  0.00     0.198 C 
BRANCH  75  76
HETATM   76  O   UNL     1     -21.229 -11.208  -5.650  1.00  0.00    -0.398 OA
HETATM   77  H   UNL     1     -21.098 -11.769  -4.859  1.00  0.00     0.209 HD
ENDBRANCH  75  76
ENDBRANCH  55  75
ENDBRANCH  50  51
ENDBRANCH  49  50
ENDBRANCH   5  49
BRANCH   4  78
HETATM   78  O   UNL     1     -22.603 -15.928  -6.331  1.00  0.00    -0.390 OA
HETATM   79  H   UNL     1     -23.367 -15.320  -6.332  1.00  0.00     0.210 HD
ENDBRANCH   4  78
TORSDOF 22
ENDMDL
MODEL 3
REMARK VINA RESULT:      -6.7      1.677      2.733
REMARK  22 active torsions:
REMARK  status: ('A' for Active; 'I' for Inactive)
REMARK    1  A    between atoms: C_5  and  C_33 
REMARK    2  A    between atoms: C_19  and  O_26 
REMARK    3  A    between atoms: C_20  and  O_25 
REMARK    4  A    between atoms: C_21  and  C_23 
REMARK    5  A    between atoms: C_23  and  O_24 
REMARK    6  A    between atoms: C_33  and  O_35 
REMARK    7  A    between atoms: O_35  and  C_36 
REMARK    8  A    between atoms: C_37  and  O_67 
REMARK    9  A    between atoms: C_38  and  O_66 
REMARK   10  A    between atoms: C_39  and  O_65 
REMARK   11  A    between atoms: C_40  and  C_42 
REMARK   12  A    between atoms: C_42  and  O_43 
REMARK   13  A    between atoms: O_43  and  C_44 
REMARK   14  A    between atoms: C_45  and  O_64 
REMARK   15  A    between atoms: C_46  and  O_63 
REMARK   16  A    between atoms: C_47  and  O_52 
REMARK   17  A    between atoms: C_48  and  C_50 
REMARK   18  A    between atoms: C_50  and  O_51 
REMARK   19  A    between atoms: O_52  and  C_53 
REMARK   20  A    between atoms: C_54  and  O_62 
REMARK   21  A    between atoms: C_55  and  O_61 
REMARK   22  A    between atoms: C_56  and  O_60 
ROOT
HETATM    1  C   UNL     1     -20.983 -12.221  -2.164  1.00  0.00     0.301 C 
HETATM    2  C   UNL     1     -21.373 -11.221  -1.063  1.00  0.00     0.205 C 
HETATM    3  C   UNL     1     -22.294 -10.145  -1.670  1.00  0.00     0.183 C 
HETATM    4  C   UNL     1     -21.651  -9.384  -2.856  1.00  0.00     0.180 C 
HETATM    5  C   UNL     1     -21.081 -10.396  -3.888  1.00  0.00     0.180 C 
HETATM    6  O   UNL     1     -20.329 -11.478  -3.260  1.00  0.00    -0.348 OA
ENDROOT
BRANCH   1   7
HETATM    7  O   UNL     1     -22.141 -12.995  -2.571  1.00  0.00    -0.286 OA
BRANCH   7   8
HETATM    8  C   UNL     1     -22.163 -13.890  -3.660  1.00  0.00     0.270 C 
HETATM    9  O   UNL     1     -22.197 -13.548  -4.829  1.00  0.00    -0.264 OA
BRANCH   8  10
HETATM   10  C   UNL     1     -22.052 -15.376  -3.072  1.00  0.00     0.056 C 
HETATM   11  C   UNL     1     -23.389 -15.977  -3.541  1.00  0.00     0.021 C 
HETATM   12  C   UNL     1     -24.495 -15.433  -2.646  1.00  0.00     0.006 C 
HETATM   13  C   UNL     1     -24.427 -16.115  -1.280  1.00  0.00    -0.014 C 
HETATM   14  C   UNL     1     -25.742 -15.829  -0.538  1.00  0.00     0.010 C 
HETATM   15  C   UNL     1     -23.070 -15.773  -0.544  1.00  0.00    -0.005 C 
HETATM   16  C   UNL     1     -21.817 -15.975  -1.529  1.00  0.00     0.037 C 
HETATM   17  C   UNL     1     -23.169 -14.430   0.190  1.00  0.00     0.011 C 
HETATM   18  C   UNL     1     -20.293 -16.163  -0.990  1.00  0.00    -0.069 C 
HETATM   19  C   UNL     1     -19.191 -15.696  -1.967  1.00  0.00    -0.013 C 
HETATM   20  C   UNL     1     -19.768 -16.644   0.201  1.00  0.00    -0.022 C 
HETATM   21  C   UNL     1     -19.639 -15.071  -3.269  1.00  0.00     0.016 C 
HETATM   22  C   UNL     1     -18.269 -14.703  -1.013  1.00  0.00    -0.028 C 
HETATM   23  C   UNL     1     -18.561 -17.085  -2.519  1.00  0.00     0.021 C 
HETATM   24  C   UNL     1     -20.832 -15.879  -3.836  1.00  0.00     0.022 C 
HETATM   25  C   UNL     1     -17.295 -15.774  -0.443  1.00  0.00     0.007 C 
HETATM   26  C   UNL     1     -17.490 -13.444  -1.474  1.00  0.00     0.011 C 
HETATM   27  C   UNL     1     -19.199 -13.944   0.106  1.00  0.00     0.016 C 
HETATM   28  C   UNL     1     -18.169 -16.510   0.653  1.00  0.00     0.033 C 
HETATM   29  C   UNL     1     -15.730 -15.549  -0.830  1.00  0.00    -0.033 C 
HETATM   30  C   UNL     1     -15.230 -14.225  -0.237  1.00  0.00     0.007 C 
HETATM   31  C   UNL     1     -14.842 -16.823  -0.600  1.00  0.00     0.044 C 
HETATM   32  C   UNL     1     -15.471 -15.355  -2.405  1.00  0.00     0.016 C 
HETATM   33  C   UNL     1     -16.285 -13.098  -0.514  1.00  0.00     0.007 C 
HETATM   34  C   UNL     1     -14.532 -14.329   1.181  1.00  0.00     0.010 C 
HETATM   35  C   UNL     1     -14.148 -15.804   1.534  1.00  0.00     0.157 C 
HETATM   36  C   UNL     1     -13.268 -13.419   1.138  1.00  0.00     0.020 C 
HETATM   37  C   UNL     1     -13.695 -16.662   0.368  1.00  0.00     0.148 C 
BRANCH  34  38
HETATM   38  C   UNL     1     -15.419 -13.818   2.360  1.00  0.00     0.176 C 
BRANCH  38  39
HETATM   39  O   UNL     1     -15.954 -14.886   3.110  1.00  0.00    -0.400 OA
HETATM   40  H   UNL     1     -15.334 -15.134   3.819  1.00  0.00     0.209 HD
ENDBRANCH  38  39
ENDBRANCH  34  38
BRANCH  35  41
HETATM   41  O   UNL     1     -13.144 -15.843   2.556  1.00  0.00    -0.392 OA
HETATM   42  H   UNL     1     -12.373 -16.294   2.154  1.00  0.00     0.210 HD
ENDBRANCH  35  41
BRANCH  37  43
HETATM   43  O   UNL     1     -12.515 -16.132  -0.232  1.00  0.00    -0.393 OA
HETATM   44  H   UNL     1     -12.528 -16.308  -1.186  1.00  0.00     0.210 HD
ENDBRANCH  37  43
ENDBRANCH   8  10
ENDBRANCH   7   8
ENDBRANCH   1   7
BRANCH   2  45
HETATM   45  O   UNL     1     -20.227 -10.597  -0.468  1.00  0.00    -0.388 OA
HETATM   46  H   UNL     1     -20.450 -10.332   0.444  1.00  0.00     0.210 HD
ENDBRANCH   2  45
BRANCH   3  47
HETATM   47  O   UNL     1     -22.806  -9.272  -0.657  1.00  0.00    -0.390 OA
HETATM   48  H   UNL     1     -23.752  -9.482  -0.524  1.00  0.00     0.210 HD
ENDBRANCH   3  47
BRANCH   5  49
HETATM   49  C   UNL     1     -20.244  -9.657  -5.028  1.00  0.00     0.205 C 
BRANCH  49  50
HETATM   50  O   UNL     1     -20.876  -8.459  -5.498  1.00  0.00    -0.356 OA
BRANCH  50  51
HETATM   51  C   UNL     1     -20.175  -7.205  -5.351  1.00  0.00     0.291 C 
HETATM   52  C   UNL     1     -21.226  -6.171  -4.951  1.00  0.00     0.204 C 
HETATM   53  C   UNL     1     -22.248  -6.120  -6.092  1.00  0.00     0.183 C 
HETATM   54  C   UNL     1     -21.644  -5.477  -7.362  1.00  0.00     0.187 C 
HETATM   55  C   UNL     1     -20.241  -6.173  -7.627  1.00  0.00     0.180 C 
HETATM   56  O   UNL     1     -19.488  -6.704  -6.499  1.00  0.00    -0.348 OA
BRANCH  52  57
HETATM   57  O   UNL     1     -20.685  -4.872  -4.670  1.00  0.00    -0.388 OA
HETATM   58  H   UNL     1     -20.885  -4.265  -5.410  1.00  0.00     0.210 HD
ENDBRANCH  52  57
BRANCH  53  59
HETATM   59  O   UNL     1     -23.467  -5.566  -5.612  1.00  0.00    -0.390 OA
HETATM   60  H   UNL     1     -23.346  -5.402  -4.654  1.00  0.00     0.210 HD
ENDBRANCH  53  59
BRANCH  54  61
HETATM   61  O   UNL     1     -21.590  -4.018  -7.352  1.00  0.00    -0.348 OA
BRANCH  61  62
HETATM   62  C   UNL     1     -22.360  -3.365  -8.398  1.00  0.00     0.292 C 
HETATM   63  C   UNL     1     -23.870  -3.743  -8.520  1.00  0.00     0.204 C 
HETATM   64  C   UNL     1     -24.042  -5.012  -9.392  1.00  0.00     0.183 C 
HETATM   65  C   UNL     1     -23.311  -4.882 -10.734  1.00  0.00     0.178 C 
HETATM   66  C   UNL     1     -21.846  -4.465 -10.517  1.00  0.00     0.152 C 
HETATM   67  O   UNL     1     -21.681  -3.340  -9.661  1.00  0.00    -0.351 OA
HETATM   68  C   UNL     1     -21.200  -4.077 -11.855  1.00  0.00     0.042 C 
BRANCH  63  69
HETATM   69  O   UNL     1     -24.634  -2.623  -9.033  1.00  0.00    -0.388 OA
HETATM   70  H   UNL     1     -24.948  -2.119  -8.258  1.00  0.00     0.210 HD
ENDBRANCH  63  69
BRANCH  64  71
HETATM   71  O   UNL     1     -25.414  -5.336  -9.664  1.00  0.00    -0.390 OA
HETATM   72  H   UNL     1     -25.988  -4.876  -9.025  1.00  0.00     0.210 HD
ENDBRANCH  64  71
BRANCH  65  73
HETATM   73  O   UNL     1     -23.972  -3.946 -11.597  1.00  0.00    -0.390 OA
HETATM   74  H   UNL     1     -24.533  -3.380 -11.031  1.00  0.00     0.210 HD
ENDBRANCH  65  73
ENDBRANCH  61  62
ENDBRANCH  54  61
BRANCH  55  75
HETATM   75  C   UNL     1     -19.248  -5.252  -8.371  1.00  0.00     0.198 C 
BRANCH  75  76
HETATM   76  O   UNL     1     -18.643  -4.345  -7.442  1.00  0.00    -0.398 OA
HETATM   77  H   UNL     1     -19.107  -3.498  -7.599  1.00  0.00     0.209 HD
ENDBRANCH  75  76
ENDBRANCH  55  75
ENDBRANCH  50  51
ENDBRANCH  49  50
ENDBRANCH   5  49
BRANCH   4  78
HETATM   78  O   UNL     1     -20.686  -8.408  -2.439  1.00  0.00    -0.390 OA
HETATM   79  H   UNL     1     -20.729  -7.666  -3.073  1.00  0.00     0.210 HD
ENDBRANCH   4  78
TORSDOF 22
ENDMDL
MODEL 4
REMARK VINA RESULT:      -6.6      4.283     12.471
REMARK  22 active torsions:
REMARK  status: ('A' for Active; 'I' for Inactive)
REMARK    1  A    between atoms: C_5  and  C_33 
REMARK    2  A    between atoms: C_19  and  O_26 
REMARK    3  A    between atoms: C_20  and  O_25 
REMARK    4  A    between atoms: C_21  and  C_23 
REMARK    5  A    between atoms: C_23  and  O_24 
REMARK    6  A    between atoms: C_33  and  O_35 
REMARK    7  A    between atoms: O_35  and  C_36 
REMARK    8  A    between atoms: C_37  and  O_67 
REMARK    9  A    between atoms: C_38  and  O_66 
REMARK   10  A    between atoms: C_39  and  O_65 
REMARK   11  A    between atoms: C_40  and  C_42 
REMARK   12  A    between atoms: C_42  and  O_43 
REMARK   13  A    between atoms: O_43  and  C_44 
REMARK   14  A    between atoms: C_45  and  O_64 
REMARK   15  A    between atoms: C_46  and  O_63 
REMARK   16  A    between atoms: C_47  and  O_52 
REMARK   17  A    between atoms: C_48  and  C_50 
REMARK   18  A    between atoms: C_50  and  O_51 
REMARK   19  A    between atoms: O_52  and  C_53 
REMARK   20  A    between atoms: C_54  and  O_62 
REMARK   21  A    between atoms: C_55  and  O_61 
REMARK   22  A    between atoms: C_56  and  O_60 
ROOT
HETATM    1  C   UNL     1     -16.263 -14.291  -4.400  1.00  0.00     0.301 C 
HETATM    2  C   UNL     1     -15.309 -13.204  -4.922  1.00  0.00     0.205 C 
HETATM    3  C   UNL     1     -14.048 -13.880  -5.494  1.00  0.00     0.183 C 
HETATM    4  C   UNL     1     -13.306 -14.769  -4.465  1.00  0.00     0.180 C 
HETATM    5  C   UNL     1     -14.308 -15.747  -3.792  1.00  0.00     0.180 C 
HETATM    6  O   UNL     1     -15.549 -15.093  -3.386  1.00  0.00    -0.348 OA
ENDROOT
BRANCH   1   7
HETATM    7  O   UNL     1     -16.798 -15.062  -5.507  1.00  0.00    -0.286 OA
BRANCH   7   8
HETATM    8  C   UNL     1     -17.679 -16.153  -5.371  1.00  0.00     0.270 C 
HETATM    9  O   UNL     1     -17.410 -17.183  -4.778  1.00  0.00    -0.264 OA
BRANCH   8  10
HETATM   10  C   UNL     1     -19.071 -15.744  -6.049  1.00  0.00     0.056 C 
HETATM   11  C   UNL     1     -19.110 -16.712  -7.245  1.00  0.00     0.021 C 
HETATM   12  C   UNL     1     -18.149 -16.194  -8.308  1.00  0.00     0.006 C 
HETATM   13  C   UNL     1     -18.763 -14.978  -9.002  1.00  0.00    -0.014 C 
HETATM   14  C   UNL     1     -17.961 -14.706 -10.284  1.00  0.00     0.010 C 
HETATM   15  C   UNL     1     -18.962 -13.786  -7.983  1.00  0.00    -0.005 C 
HETATM   16  C   UNL     1     -19.671 -14.297  -6.634  1.00  0.00     0.037 C 
HETATM   17  C   UNL     1     -17.669 -12.977  -7.827  1.00  0.00     0.011 C 
HETATM   18  C   UNL     1     -20.428 -13.292  -5.601  1.00  0.00    -0.069 C 
HETATM   19  C   UNL     1     -20.461 -13.768  -4.132  1.00  0.00    -0.013 C 
HETATM   20  C   UNL     1     -21.043 -12.060  -5.768  1.00  0.00    -0.022 C 
HETATM   21  C   UNL     1     -19.748 -15.061  -3.807  1.00  0.00     0.016 C 
HETATM   22  C   UNL     1     -19.885 -12.445  -3.318  1.00  0.00    -0.028 C 
HETATM   23  C   UNL     1     -22.001 -14.231  -3.918  1.00  0.00     0.021 C 
HETATM   24  C   UNL     1     -20.036 -16.095  -4.922  1.00  0.00     0.022 C 
HETATM   25  C   UNL     1     -21.236 -11.706  -3.098  1.00  0.00     0.007 C 
HETATM   26  C   UNL     1     -19.048 -12.458  -2.012  1.00  0.00     0.011 C 
HETATM   27  C   UNL     1     -18.789 -11.633  -4.230  1.00  0.00     0.016 C 
HETATM   28  C   UNL     1     -21.536 -11.072  -4.518  1.00  0.00     0.033 C 
HETATM   29  C   UNL     1     -21.657 -11.502  -1.539  1.00  0.00    -0.033 C 
HETATM   30  C   UNL     1     -20.620 -10.621  -0.829  1.00  0.00     0.007 C 
HETATM   31  C   UNL     1     -23.170 -11.132  -1.346  1.00  0.00     0.044 C 
HETATM   32  C   UNL     1     -21.626 -12.856  -0.674  1.00  0.00     0.016 C 
HETATM   33  C   UNL     1     -19.178 -11.108  -1.203  1.00  0.00     0.007 C 
HETATM   34  C   UNL     1     -20.950  -9.071  -0.787  1.00  0.00     0.010 C 
HETATM   35  C   UNL     1     -22.447  -8.786  -1.144  1.00  0.00     0.157 C 
HETATM   36  C   UNL     1     -20.613  -8.570   0.649  1.00  0.00     0.020 C 
HETATM   37  C   UNL     1     -23.446  -9.817  -0.659  1.00  0.00     0.148 C 
BRANCH  34  38
HETATM   38  C   UNL     1     -20.098  -8.218  -1.778  1.00  0.00     0.176 C 
BRANCH  38  39
HETATM   39  O   UNL     1     -20.739  -8.074  -3.027  1.00  0.00    -0.400 OA
HETATM   40  H   UNL     1     -20.953  -7.136  -3.181  1.00  0.00     0.209 HD
ENDBRANCH  38  39
ENDBRANCH  34  38
BRANCH  35  41
HETATM   41  O   UNL     1     -22.849  -7.493  -0.674  1.00  0.00    -0.392 OA
HETATM   42  H   UNL     1     -22.893  -7.567   0.302  1.00  0.00     0.210 HD
ENDBRANCH  35  41
BRANCH  37  43
HETATM   43  O   UNL     1     -23.442  -9.908   0.765  1.00  0.00    -0.393 OA
HETATM   44  H   UNL     1     -24.156  -9.359   1.128  1.00  0.00     0.210 HD
ENDBRANCH  37  43
ENDBRANCH   8  10
ENDBRANCH   7   8
ENDBRANCH   1   7
BRANCH   2  45
HETATM   45  O   UNL     1     -14.936 -12.274  -3.896  1.00  0.00    -0.388 OA
HETATM   46  H   UNL     1     -15.155 -12.658  -3.027  1.00  0.00     0.210 HD
ENDBRANCH   2  45
BRANCH   3  47
HETATM   47  O   UNL     1     -13.191 -12.924  -6.127  1.00  0.00    -0.390 OA
HETATM   48  H   UNL     1     -13.434 -12.876  -7.074  1.00  0.00     0.210 HD
ENDBRANCH   3  47
BRANCH   5  49
HETATM   49  C   UNL     1     -13.624 -16.547  -2.592  1.00  0.00     0.205 C 
BRANCH  49  50
HETATM   50  O   UNL     1     -14.218 -16.260  -1.319  1.00  0.00    -0.356 OA
BRANCH  50  51
HETATM   51  C   UNL     1     -13.855 -15.034  -0.647  1.00  0.00     0.291 C 
HETATM   52  C   UNL     1     -12.435 -15.238  -0.121  1.00  0.00     0.204 C 
HETATM   53  C   UNL     1     -12.495 -16.422   0.851  1.00  0.00     0.183 C 
HETATM   54  C   UNL     1     -13.258 -16.053   2.144  1.00  0.00     0.187 C 
HETATM   55  C   UNL     1     -14.617 -15.354   1.711  1.00  0.00     0.180 C 
HETATM   56  O   UNL     1     -14.671 -14.625   0.451  1.00  0.00    -0.348 OA
BRANCH  52  57
HETATM   57  O   UNL     1     -11.873 -14.074   0.500  1.00  0.00    -0.388 OA
HETATM   58  H   UNL     1     -11.764 -14.232   1.459  1.00  0.00     0.210 HD
ENDBRANCH  52  57
BRANCH  53  59
HETATM   59  O   UNL     1     -11.192 -16.969   1.012  1.00  0.00    -0.390 OA
HETATM   60  H   UNL     1     -11.291 -17.784   1.546  1.00  0.00     0.210 HD
ENDBRANCH  53  59
BRANCH  54  61
HETATM   61  O   UNL     1     -12.486 -15.293   3.124  1.00  0.00    -0.348 OA
BRANCH  61  62
HETATM   62  C   UNL     1     -11.303 -15.967   3.633  1.00  0.00     0.292 C 
HETATM   63  C   UNL     1     -11.100 -15.988   5.181  1.00  0.00     0.204 C 
HETATM   64  C   UNL     1     -10.385 -14.696   5.651  1.00  0.00     0.183 C 
HETATM   65  C   UNL     1      -9.105 -14.432   4.849  1.00  0.00     0.178 C 
HETATM   66  C   UNL     1      -9.393 -14.473   3.338  1.00  0.00     0.152 C 
HETATM   67  O   UNL     1     -10.110 -15.627   2.913  1.00  0.00    -0.351 OA
HETATM   68  C   UNL     1      -8.077 -14.478   2.546  1.00  0.00     0.042 C 
BRANCH  63  69
HETATM   69  O   UNL     1     -10.385 -17.183   5.583  1.00  0.00    -0.388 OA
HETATM   70  H   UNL     1     -10.980 -17.679   6.178  1.00  0.00     0.210 HD
ENDBRANCH  63  69
BRANCH  64  71
HETATM   71  O   UNL     1     -10.038 -14.711   7.045  1.00  0.00    -0.390 OA
HETATM   72  H   UNL     1      -9.393 -15.423   7.210  1.00  0.00     0.210 HD
ENDBRANCH  64  71
BRANCH  65  73
HETATM   73  O   UNL     1      -8.076 -15.373   5.185  1.00  0.00    -0.390 OA
HETATM   74  H   UNL     1      -7.222 -14.964   4.942  1.00  0.00     0.210 HD
ENDBRANCH  65  73
ENDBRANCH  61  62
ENDBRANCH  54  61
BRANCH  55  75
HETATM   75  C   UNL     1     -15.141 -14.357   2.771  1.00  0.00     0.198 C 
BRANCH  75  76
HETATM   76  O   UNL     1     -15.138 -14.980   4.061  1.00  0.00    -0.398 OA
HETATM   77  H   UNL     1     -15.064 -14.232   4.687  1.00  0.00     0.209 HD
ENDBRANCH  75  76
ENDBRANCH  55  75
ENDBRANCH  50  51
ENDBRANCH  49  50
ENDBRANCH   5  49
BRANCH   4  78
HETATM   78  O   UNL     1     -12.542 -14.011  -3.517  1.00  0.00    -0.390 OA
HETATM   79  H   UNL     1     -12.140 -14.645  -2.893  1.00  0.00     0.210 HD
ENDBRANCH   4  78
TORSDOF 22
ENDMDL
MODEL 5
REMARK VINA RESULT:      -6.5      4.291      8.699
REMARK  22 active torsions:
REMARK  status: ('A' for Active; 'I' for Inactive)
REMARK    1  A    between atoms: C_5  and  C_33 
REMARK    2  A    between atoms: C_19  and  O_26 
REMARK    3  A    between atoms: C_20  and  O_25 
REMARK    4  A    between atoms: C_21  and  C_23 
REMARK    5  A    between atoms: C_23  and  O_24 
REMARK    6  A    between atoms: C_33  and  O_35 
REMARK    7  A    between atoms: O_35  and  C_36 
REMARK    8  A    between atoms: C_37  and  O_67 
REMARK    9  A    between atoms: C_38  and  O_66 
REMARK   10  A    between atoms: C_39  and  O_65 
REMARK   11  A    between atoms: C_40  and  C_42 
REMARK   12  A    between atoms: C_42  and  O_43 
REMARK   13  A    between atoms: O_43  and  C_44 
REMARK   14  A    between atoms: C_45  and  O_64 
REMARK   15  A    between atoms: C_46  and  O_63 
REMARK   16  A    between atoms: C_47  and  O_52 
REMARK   17  A    between atoms: C_48  and  C_50 
REMARK   18  A    between atoms: C_50  and  O_51 
REMARK   19  A    between atoms: O_52  and  C_53 
REMARK   20  A    between atoms: C_54  and  O_62 
REMARK   21  A    between atoms: C_55  and  O_61 
REMARK   22  A    between atoms: C_56  and  O_60 
ROOT
HETATM    1  C   UNL     1     -21.582 -11.856  -1.173  1.00  0.00     0.301 C 
HETATM    2  C   UNL     1     -21.992 -10.885  -0.054  1.00  0.00     0.205 C 
HETATM    3  C   UNL     1     -22.697  -9.668  -0.683  1.00  0.00     0.183 C 
HETATM    4  C   UNL     1     -21.825  -8.922  -1.723  1.00  0.00     0.180 C 
HETATM    5  C   UNL     1     -21.249  -9.932  -2.753  1.00  0.00     0.180 C 
HETATM    6  O   UNL     1     -20.712 -11.135  -2.124  1.00  0.00    -0.348 OA
ENDROOT
BRANCH   1   7
HETATM    7  O   UNL     1     -22.760 -12.455  -1.773  1.00  0.00    -0.286 OA
BRANCH   7   8
HETATM    8  C   UNL     1     -23.798 -13.078  -1.052  1.00  0.00     0.270 C 
HETATM    9  O   UNL     1     -24.795 -12.503  -0.652  1.00  0.00    -0.264 OA
BRANCH   8  10
HETATM   10  C   UNL     1     -23.453 -14.638  -0.948  1.00  0.00     0.056 C 
HETATM   11  C   UNL     1     -24.274 -15.037   0.292  1.00  0.00     0.021 C 
HETATM   12  C   UNL     1     -23.543 -14.533   1.529  1.00  0.00     0.006 C 
HETATM   13  C   UNL     1     -22.323 -15.414   1.795  1.00  0.00    -0.014 C 
HETATM   14  C   UNL     1     -21.825 -15.122   3.219  1.00  0.00     0.010 C 
HETATM   15  C   UNL     1     -21.282 -15.311   0.609  1.00  0.00    -0.005 C 
HETATM   16  C   UNL     1     -22.014 -15.479  -0.812  1.00  0.00     0.037 C 
HETATM   17  C   UNL     1     -20.372 -14.088   0.783  1.00  0.00     0.011 C 
HETATM   18  C   UNL     1     -21.217 -15.883  -2.172  1.00  0.00    -0.069 C 
HETATM   19  C   UNL     1     -21.860 -15.380  -3.482  1.00  0.00    -0.013 C 
HETATM   20  C   UNL     1     -20.040 -16.583  -2.400  1.00  0.00    -0.022 C 
HETATM   21  C   UNL     1     -23.105 -14.531  -3.360  1.00  0.00     0.016 C 
HETATM   22  C   UNL     1     -20.591 -14.629  -4.236  1.00  0.00    -0.028 C 
HETATM   23  C   UNL     1     -22.495 -16.724  -4.133  1.00  0.00     0.021 C 
HETATM   24  C   UNL     1     -24.026 -15.132  -2.271  1.00  0.00     0.022 C 
HETATM   25  C   UNL     1     -20.020 -15.858  -5.001  1.00  0.00     0.007 C 
HETATM   26  C   UNL     1     -20.672 -13.392  -5.168  1.00  0.00     0.011 C 
HETATM   27  C   UNL     1     -19.573 -13.962  -3.135  1.00  0.00     0.016 C 
HETATM   28  C   UNL     1     -19.258 -16.664  -3.871  1.00  0.00     0.033 C 
HETATM   29  C   UNL     1     -20.041 -15.722  -6.623  1.00  0.00    -0.033 C 
HETATM   30  C   UNL     1     -19.150 -14.552  -7.061  1.00  0.00     0.007 C 
HETATM   31  C   UNL     1     -19.849 -17.092  -7.364  1.00  0.00     0.044 C 
HETATM   32  C   UNL     1     -21.477 -15.322  -7.223  1.00  0.00     0.016 C 
HETATM   33  C   UNL     1     -19.445 -13.305  -6.158  1.00  0.00     0.007 C 
HETATM   34  C   UNL     1     -17.656 -14.929  -7.433  1.00  0.00     0.010 C 
HETATM   35  C   UNL     1     -17.481 -16.470  -7.645  1.00  0.00     0.157 C 
HETATM   36  C   UNL     1     -17.294 -14.143  -8.728  1.00  0.00     0.020 C 
HETATM   37  C   UNL     1     -18.656 -17.183  -8.285  1.00  0.00     0.148 C 
BRANCH  34  38
HETATM   38  C   UNL     1     -16.614 -14.520  -6.347  1.00  0.00     0.176 C 
BRANCH  38  39
HETATM   39  O   UNL     1     -15.377 -15.172  -6.538  1.00  0.00    -0.400 OA
HETATM   40  H   UNL     1     -14.794 -14.619  -7.089  1.00  0.00     0.209 HD
ENDBRANCH  38  39
ENDBRANCH  34  38
BRANCH  35  41
HETATM   41  O   UNL     1     -16.298 -16.752  -8.403  1.00  0.00    -0.392 OA
HETATM   42  H   UNL     1     -15.779 -15.922  -8.406  1.00  0.00     0.210 HD
ENDBRANCH  35  41
BRANCH  37  43
HETATM   43  O   UNL     1     -18.910 -16.681  -9.596  1.00  0.00    -0.393 OA
HETATM   44  H   UNL     1     -19.825 -16.884  -9.851  1.00  0.00     0.210 HD
ENDBRANCH  37  43
ENDBRANCH   8  10
ENDBRANCH   7   8
ENDBRANCH   1   7
BRANCH   2  45
HETATM   45  O   UNL     1     -20.867 -10.445   0.720  1.00  0.00    -0.388 OA
HETATM   46  H   UNL     1     -20.055 -10.835   0.346  1.00  0.00     0.210 HD
ENDBRANCH   2  45
BRANCH   3  47
HETATM   47  O   UNL     1     -23.231  -8.802   0.324  1.00  0.00    -0.390 OA
HETATM   48  H   UNL     1     -24.137  -9.103   0.536  1.00  0.00     0.210 HD
ENDBRANCH   3  47
BRANCH   5  49
HETATM   49  C   UNL     1     -20.193  -9.234  -3.726  1.00  0.00     0.205 C 
BRANCH  49  50
HETATM   50  O   UNL     1     -18.967  -9.969  -3.840  1.00  0.00    -0.356 OA
BRANCH  50  51
HETATM   51  C   UNL     1     -17.883  -9.648  -2.942  1.00  0.00     0.291 C 
HETATM   52  C   UNL     1     -16.601  -9.741  -3.767  1.00  0.00     0.204 C 
HETATM   53  C   UNL     1     -16.510 -11.184  -4.275  1.00  0.00     0.183 C 
HETATM   54  C   UNL     1     -16.211 -12.170  -3.122  1.00  0.00     0.187 C 
HETATM   55  C   UNL     1     -17.221 -11.841  -1.941  1.00  0.00     0.180 C 
HETATM   56  O   UNL     1     -17.720 -10.481  -1.792  1.00  0.00    -0.348 OA
BRANCH  52  57
HETATM   57  O   UNL     1     -15.419  -9.359  -3.049  1.00  0.00    -0.388 OA
HETATM   58  H   UNL     1     -15.591  -9.401  -2.087  1.00  0.00     0.210 HD
ENDBRANCH  52  57
BRANCH  53  59
HETATM   59  O   UNL     1     -15.644 -11.237  -5.402  1.00  0.00    -0.390 OA
HETATM   60  H   UNL     1     -15.437 -12.182  -5.556  1.00  0.00     0.210 HD
ENDBRANCH  53  59
BRANCH  54  61
HETATM   61  O   UNL     1     -14.812 -12.233  -2.707  1.00  0.00    -0.348 OA
BRANCH  61  62
HETATM   62  C   UNL     1     -14.181 -13.534  -2.859  1.00  0.00     0.292 C 
HETATM   63  C   UNL     1     -15.119 -14.769  -3.037  1.00  0.00     0.204 C 
HETATM   64  C   UNL     1     -15.566 -15.313  -1.657  1.00  0.00     0.183 C 
HETATM   65  C   UNL     1     -14.371 -15.554  -0.727  1.00  0.00     0.178 C 
HETATM   66  C   UNL     1     -13.482 -14.301  -0.648  1.00  0.00     0.152 C 
HETATM   67  O   UNL     1     -13.126 -13.758  -1.915  1.00  0.00    -0.351 OA
HETATM   68  C   UNL     1     -12.159 -14.631   0.059  1.00  0.00     0.042 C 
BRANCH  63  69
HETATM   69  O   UNL     1     -14.470 -15.787  -3.839  1.00  0.00    -0.388 OA
HETATM   70  H   UNL     1     -14.737 -16.650  -3.467  1.00  0.00     0.210 HD
ENDBRANCH  63  69
BRANCH  64  71
HETATM   71  O   UNL     1     -16.316 -16.535  -1.741  1.00  0.00    -0.390 OA
HETATM   72  H   UNL     1     -16.090 -17.106  -0.983  1.00  0.00     0.210 HD
ENDBRANCH  64  71
BRANCH  65  73
HETATM   73  O   UNL     1     -13.598 -16.685  -1.156  1.00  0.00    -0.390 OA
HETATM   74  H   UNL     1     -12.660 -16.410  -1.153  1.00  0.00     0.210 HD
ENDBRANCH  65  73
ENDBRANCH  61  62
ENDBRANCH  54  61
BRANCH  55  75
HETATM   75  C   UNL     1     -16.655 -12.212  -0.550  1.00  0.00     0.198 C 
BRANCH  75  76
HETATM   76  O   UNL     1     -15.591 -11.316  -0.208  1.00  0.00    -0.398 OA
HETATM   77  H   UNL     1     -15.882 -10.453  -0.568  1.00  0.00     0.209 HD
ENDBRANCH  75  76
ENDBRANCH  55  75
ENDBRANCH  50  51
ENDBRANCH  49  50
ENDBRANCH   5  49
BRANCH   4  78
HETATM   78  O   UNL     1     -20.816  -8.099  -1.121  1.00  0.00    -0.390 OA
HETATM   79  H   UNL     1     -21.266  -7.333  -0.718  1.00  0.00     0.210 HD
ENDBRANCH   4  78
TORSDOF 22
ENDMDL
MODEL 6
REMARK VINA RESULT:      -6.3      3.651      6.422
REMARK  22 active torsions:
REMARK  status: ('A' for Active; 'I' for Inactive)
REMARK    1  A    between atoms: C_5  and  C_33 
REMARK    2  A    between atoms: C_19  and  O_26 
REMARK    3  A    between atoms: C_20  and  O_25 
REMARK    4  A    between atoms: C_21  and  C_23 
REMARK    5  A    between atoms: C_23  and  O_24 
REMARK    6  A    between atoms: C_33  and  O_35 
REMARK    7  A    between atoms: O_35  and  C_36 
REMARK    8  A    between atoms: C_37  and  O_67 
REMARK    9  A    between atoms: C_38  and  O_66 
REMARK   10  A    between atoms: C_39  and  O_65 
REMARK   11  A    between atoms: C_40  and  C_42 
REMARK   12  A    between atoms: C_42  and  O_43 
REMARK   13  A    between atoms: O_43  and  C_44 
REMARK   14  A    between atoms: C_45  and  O_64 
REMARK   15  A    between atoms: C_46  and  O_63 
REMARK   16  A    between atoms: C_47  and  O_52 
REMARK   17  A    between atoms: C_48  and  C_50 
REMARK   18  A    between atoms: C_50  and  O_51 
REMARK   19  A    between atoms: O_52  and  C_53 
REMARK   20  A    between atoms: C_54  and  O_62 
REMARK   21  A    between atoms: C_55  and  O_61 
REMARK   22  A    between atoms: C_56  and  O_60 
ROOT
HETATM    1  C   UNL     1     -21.522  -9.274  -1.359  1.00  0.00     0.301 C 
HETATM    2  C   UNL     1     -22.206  -8.404  -2.426  1.00  0.00     0.205 C 
HETATM    3  C   UNL     1     -21.628  -8.764  -3.809  1.00  0.00     0.183 C 
HETATM    4  C   UNL     1     -20.092  -8.581  -3.899  1.00  0.00     0.180 C 
HETATM    5  C   UNL     1     -19.403  -9.303  -2.708  1.00  0.00     0.180 C 
HETATM    6  O   UNL     1     -20.064  -9.045  -1.433  1.00  0.00    -0.348 OA
ENDROOT
BRANCH   1   7
HETATM    7  O   UNL     1     -21.919 -10.661  -1.512  1.00  0.00    -0.286 OA
BRANCH   7   8
HETATM    8  C   UNL     1     -21.613 -11.688  -0.596  1.00  0.00     0.270 C 
HETATM    9  O   UNL     1     -21.550 -11.534   0.611  1.00  0.00    -0.264 OA
BRANCH   8  10
HETATM   10  C   UNL     1     -21.459 -13.050  -1.424  1.00  0.00     0.056 C 
HETATM   11  C   UNL     1     -22.836 -13.136  -2.106  1.00  0.00     0.021 C 
HETATM   12  C   UNL     1     -23.854 -13.586  -1.067  1.00  0.00     0.006 C 
HETATM   13  C   UNL     1     -23.669 -15.075  -0.782  1.00  0.00    -0.014 C 
HETATM   14  C   UNL     1     -24.912 -15.575  -0.028  1.00  0.00     0.010 C 
HETATM   15  C   UNL     1     -22.250 -15.357  -0.143  1.00  0.00    -0.005 C 
HETATM   16  C   UNL     1     -21.091 -14.619  -0.976  1.00  0.00     0.037 C 
HETATM   17  C   UNL     1     -22.276 -15.124   1.372  1.00  0.00     0.011 C 
HETATM   18  C   UNL     1     -19.526 -15.056  -0.887  1.00  0.00    -0.069 C 
HETATM   19  C   UNL     1     -18.513 -13.927  -1.174  1.00  0.00    -0.013 C 
HETATM   20  C   UNL     1     -18.900 -16.256  -0.576  1.00  0.00    -0.022 C 
HETATM   21  C   UNL     1     -19.071 -12.548  -1.444  1.00  0.00     0.016 C 
HETATM   22  C   UNL     1     -17.504 -14.013   0.137  1.00  0.00    -0.028 C 
HETATM   23  C   UNL     1     -17.942 -14.295  -2.648  1.00  0.00     0.021 C 
HETATM   24  C   UNL     1     -20.315 -12.673  -2.358  1.00  0.00     0.022 C 
HETATM   25  C   UNL     1     -16.490 -15.051  -0.423  1.00  0.00     0.007 C 
HETATM   26  C   UNL     1     -16.762 -12.828   0.809  1.00  0.00     0.011 C 
HETATM   27  C   UNL     1     -18.326 -14.495   1.473  1.00  0.00     0.016 C 
HETATM   28  C   UNL     1     -17.267 -16.424  -0.288  1.00  0.00     0.033 C 
HETATM   29  C   UNL     1     -14.964 -14.503  -0.571  1.00  0.00    -0.033 C 
HETATM   30  C   UNL     1     -14.406 -14.130   0.809  1.00  0.00     0.007 C 
HETATM   31  C   UNL     1     -14.066 -15.402  -1.493  1.00  0.00     0.044 C 
HETATM   32  C   UNL     1     -14.845 -13.124  -1.389  1.00  0.00     0.016 C 
HETATM   33  C   UNL     1     -15.474 -13.295   1.596  1.00  0.00     0.007 C 
HETATM   34  C   UNL     1     -13.585 -15.266   1.547  1.00  0.00     0.010 C 
HETATM   35  C   UNL     1     -13.179 -16.419   0.569  1.00  0.00     0.157 C 
HETATM   36  C   UNL     1     -12.325 -14.592   2.167  1.00  0.00     0.020 C 
HETATM   37  C   UNL     1     -12.837 -15.991  -0.845  1.00  0.00     0.148 C 
BRANCH  34  38
HETATM   38  C   UNL     1     -14.360 -15.945   2.719  1.00  0.00     0.176 C 
BRANCH  38  39
HETATM   39  O   UNL     1     -14.915 -17.183   2.330  1.00  0.00    -0.400 OA
HETATM   40  H   UNL     1     -14.381 -17.912   2.694  1.00  0.00     0.209 HD
ENDBRANCH  38  39
ENDBRANCH  34  38
BRANCH  35  41
HETATM   41  O   UNL     1     -12.089 -17.183   1.100  1.00  0.00    -0.392 OA
HETATM   42  H   UNL     1     -11.291 -16.874   0.623  1.00  0.00     0.210 HD
ENDBRANCH  35  41
BRANCH  37  43
HETATM   43  O   UNL     1     -11.712 -15.116  -0.859  1.00  0.00    -0.393 OA
HETATM   44  H   UNL     1     -11.848 -14.420  -1.523  1.00  0.00     0.210 HD
ENDBRANCH  37  43
ENDBRANCH   8  10
ENDBRANCH   7   8
ENDBRANCH   1   7
BRANCH   2  45
HETATM   45  O   UNL     1     -22.029  -7.003  -2.178  1.00  0.00    -0.388 OA
HETATM   46  H   UNL     1     -22.697  -6.710  -1.530  1.00  0.00     0.210 HD
ENDBRANCH   2  45
BRANCH   3  47
HETATM   47  O   UNL     1     -22.334  -8.089  -4.856  1.00  0.00    -0.390 OA
HETATM   48  H   UNL     1     -23.249  -7.926  -4.549  1.00  0.00     0.210 HD
ENDBRANCH   3  47
BRANCH   5  49
HETATM   49  C   UNL     1     -17.841  -8.980  -2.657  1.00  0.00     0.205 C 
BRANCH  49  50
HETATM   50  O   UNL     1     -17.024 -10.130  -2.915  1.00  0.00    -0.356 OA
BRANCH  50  51
HETATM   51  C   UNL     1     -16.041 -10.057  -3.971  1.00  0.00     0.291 C 
HETATM   52  C   UNL     1     -16.818  -9.815  -5.263  1.00  0.00     0.204 C 
HETATM   53  C   UNL     1     -17.757 -11.014  -5.442  1.00  0.00     0.183 C 
HETATM   54  C   UNL     1     -16.970 -12.300  -5.786  1.00  0.00     0.187 C 
HETATM   55  C   UNL     1     -15.773 -12.417  -4.749  1.00  0.00     0.180 C 
HETATM   56  O   UNL     1     -15.212 -11.204  -4.170  1.00  0.00    -0.348 OA
BRANCH  52  57
HETATM   57  O   UNL     1     -15.985  -9.622  -6.414  1.00  0.00    -0.388 OA
HETATM   58  H   UNL     1     -16.537  -9.379  -7.184  1.00  0.00     0.210 HD
ENDBRANCH  52  57
BRANCH  53  59
HETATM   59  O   UNL     1     -18.818 -10.659  -6.320  1.00  0.00    -0.390 OA
HETATM   60  H   UNL     1     -18.560 -10.965  -7.213  1.00  0.00     0.210 HD
ENDBRANCH  53  59
BRANCH  54  61
HETATM   61  O   UNL     1     -16.559 -12.419  -7.183  1.00  0.00    -0.348 OA
BRANCH  61  62
HETATM   62  C   UNL     1     -17.169 -13.519  -7.913  1.00  0.00     0.292 C 
HETATM   63  C   UNL     1     -18.684 -13.391  -8.267  1.00  0.00     0.204 C 
HETATM   64  C   UNL     1     -19.559 -13.885  -7.088  1.00  0.00     0.183 C 
HETATM   65  C   UNL     1     -19.135 -15.280  -6.612  1.00  0.00     0.178 C 
HETATM   66  C   UNL     1     -17.623 -15.322  -6.329  1.00  0.00     0.152 C 
HETATM   67  O   UNL     1     -16.819 -14.805  -7.384  1.00  0.00    -0.351 OA
HETATM   68  C   UNL     1     -17.162 -16.771  -6.117  1.00  0.00     0.042 C 
BRANCH  63  69
HETATM   69  O   UNL     1     -18.979 -14.099  -9.497  1.00  0.00    -0.388 OA
HETATM   70  H   UNL     1     -19.805 -14.595  -9.344  1.00  0.00     0.210 HD
ENDBRANCH  63  69
BRANCH  64  71
HETATM   71  O   UNL     1     -20.961 -13.930  -7.397  1.00  0.00    -0.390 OA
HETATM   72  H   UNL     1     -21.222 -14.851  -7.582  1.00  0.00     0.210 HD
ENDBRANCH  64  71
BRANCH  65  73
HETATM   73  O   UNL     1     -19.490 -16.287  -7.570  1.00  0.00    -0.390 OA
HETATM   74  H   UNL     1     -20.323 -16.697  -7.261  1.00  0.00     0.210 HD
ENDBRANCH  65  73
ENDBRANCH  61  62
ENDBRANCH  54  61
BRANCH  55  75
HETATM   75  C   UNL     1     -14.558 -13.184  -5.322  1.00  0.00     0.198 C 
BRANCH  75  76
HETATM   76  O   UNL     1     -13.860 -12.350  -6.254  1.00  0.00    -0.398 OA
HETATM   77  H   UNL     1     -13.220 -12.955  -6.682  1.00  0.00     0.209 HD
ENDBRANCH  75  76
ENDBRANCH  55  75
ENDBRANCH  50  51
ENDBRANCH  49  50
ENDBRANCH   5  49
BRANCH   4  78
HETATM   78  O   UNL     1     -19.698  -7.208  -4.025  1.00  0.00    -0.390 OA
HETATM   79  H   UNL     1     -19.299  -6.940  -3.175  1.00  0.00     0.210 HD
ENDBRANCH   4  78
TORSDOF 22
ENDMDL
MODEL 7
REMARK VINA RESULT:      -6.0      2.869      5.036
REMARK  22 active torsions:
REMARK  status: ('A' for Active; 'I' for Inactive)
REMARK    1  A    between atoms: C_5  and  C_33 
REMARK    2  A    between atoms: C_19  and  O_26 
REMARK    3  A    between atoms: C_20  and  O_25 
REMARK    4  A    between atoms: C_21  and  C_23 
REMARK    5  A    between atoms: C_23  and  O_24 
REMARK    6  A    between atoms: C_33  and  O_35 
REMARK    7  A    between atoms: O_35  and  C_36 
REMARK    8  A    between atoms: C_37  and  O_67 
REMARK    9  A    between atoms: C_38  and  O_66 
REMARK   10  A    between atoms: C_39  and  O_65 
REMARK   11  A    between atoms: C_40  and  C_42 
REMARK   12  A    between atoms: C_42  and  O_43 
REMARK   13  A    between atoms: O_43  and  C_44 
REMARK   14  A    between atoms: C_45  and  O_64 
REMARK   15  A    between atoms: C_46  and  O_63 
REMARK   16  A    between atoms: C_47  and  O_52 
REMARK   17  A    between atoms: C_48  and  C_50 
REMARK   18  A    between atoms: C_50  and  O_51 
REMARK   19  A    between atoms: O_52  and  C_53 
REMARK   20  A    between atoms: C_54  and  O_62 
REMARK   21  A    between atoms: C_55  and  O_61 
REMARK   22  A    between atoms: C_56  and  O_60 
ROOT
HETATM    1  C   UNL     1     -21.385 -11.521  -1.747  1.00  0.00     0.301 C 
HETATM    2  C   UNL     1     -21.627 -10.396  -0.728  1.00  0.00     0.205 C 
HETATM    3  C   UNL     1     -22.343  -9.228  -1.434  1.00  0.00     0.183 C 
HETATM    4  C   UNL     1     -21.559  -8.669  -2.646  1.00  0.00     0.180 C 
HETATM    5  C   UNL     1     -21.143  -9.831  -3.590  1.00  0.00     0.180 C 
HETATM    6  O   UNL     1     -20.594 -10.974  -2.869  1.00  0.00    -0.348 OA
ENDROOT
BRANCH   1   7
HETATM    7  O   UNL     1     -22.646 -12.122  -2.140  1.00  0.00    -0.286 OA
BRANCH   7   8
HETATM    8  C   UNL     1     -23.598 -12.643  -1.242  1.00  0.00     0.270 C 
HETATM    9  O   UNL     1     -24.501 -11.992  -0.746  1.00  0.00    -0.264 OA
BRANCH   8  10
HETATM   10  C   UNL     1     -23.314 -14.211  -1.084  1.00  0.00     0.056 C 
HETATM   11  C   UNL     1     -24.154 -14.537   0.164  1.00  0.00     0.021 C 
HETATM   12  C   UNL     1     -23.408 -14.020   1.387  1.00  0.00     0.006 C 
HETATM   13  C   UNL     1     -22.223 -14.938   1.687  1.00  0.00    -0.014 C 
HETATM   14  C   UNL     1     -21.719 -14.618   3.104  1.00  0.00     0.010 C 
HETATM   15  C   UNL     1     -21.176 -14.915   0.503  1.00  0.00    -0.005 C 
HETATM   16  C   UNL     1     -21.910 -15.102  -0.914  1.00  0.00     0.037 C 
HETATM   17  C   UNL     1     -20.220 -13.723   0.640  1.00  0.00     0.011 C 
HETATM   18  C   UNL     1     -21.124 -15.582  -2.257  1.00  0.00    -0.069 C 
HETATM   19  C   UNL     1     -21.744 -15.098  -3.586  1.00  0.00    -0.013 C 
HETATM   20  C   UNL     1     -19.975 -16.334  -2.457  1.00  0.00    -0.022 C 
HETATM   21  C   UNL     1     -22.956 -14.198  -3.498  1.00  0.00     0.016 C 
HETATM   22  C   UNL     1     -20.444 -14.423  -4.358  1.00  0.00    -0.028 C 
HETATM   23  C   UNL     1     -22.429 -16.437  -4.195  1.00  0.00     0.021 C 
HETATM   24  C   UNL     1     -23.902 -14.727  -2.393  1.00  0.00     0.022 C 
HETATM   25  C   UNL     1     -19.919 -15.697  -5.080  1.00  0.00     0.007 C 
HETATM   26  C   UNL     1     -20.475 -13.215  -5.332  1.00  0.00     0.011 C 
HETATM   27  C   UNL     1     -19.405 -13.759  -3.276  1.00  0.00     0.016 C 
HETATM   28  C   UNL     1     -19.193 -16.494  -3.920  1.00  0.00     0.033 C 
HETATM   29  C   UNL     1     -19.930 -15.615  -6.705  1.00  0.00    -0.033 C 
HETATM   30  C   UNL     1     -18.993 -14.496  -7.178  1.00  0.00     0.007 C 
HETATM   31  C   UNL     1     -19.788 -17.015  -7.400  1.00  0.00     0.044 C 
HETATM   32  C   UNL     1     -21.348 -15.179  -7.325  1.00  0.00     0.016 C 
HETATM   33  C   UNL     1     -19.242 -13.208  -6.319  1.00  0.00     0.007 C 
HETATM   34  C   UNL     1     -17.514 -14.942  -7.531  1.00  0.00     0.010 C 
HETATM   35  C   UNL     1     -17.398 -16.495  -7.691  1.00  0.00     0.157 C 
HETATM   36  C   UNL     1     -17.118 -14.214  -8.850  1.00  0.00     0.020 C 
HETATM   37  C   UNL     1     -18.598 -17.182  -8.313  1.00  0.00     0.148 C 
BRANCH  34  38
HETATM   38  C   UNL     1     -16.460 -14.537  -6.454  1.00  0.00     0.176 C 
BRANCH  38  39
HETATM   39  O   UNL     1     -15.669 -15.638  -6.058  1.00  0.00    -0.400 OA
HETATM   40  H   UNL     1     -16.059 -16.056  -5.270  1.00  0.00     0.209 HD
ENDBRANCH  38  39
ENDBRANCH  34  38
BRANCH  35  41
HETATM   41  O   UNL     1     -16.224 -16.848  -8.435  1.00  0.00    -0.392 OA
HETATM   42  H   UNL     1     -16.489 -16.824  -9.377  1.00  0.00     0.210 HD
ENDBRANCH  35  41
BRANCH  37  43
HETATM   43  O   UNL     1     -18.828 -16.715  -9.640  1.00  0.00    -0.393 OA
HETATM   44  H   UNL     1     -18.239 -15.967  -9.829  1.00  0.00     0.210 HD
ENDBRANCH  37  43
ENDBRANCH   8  10
ENDBRANCH   7   8
ENDBRANCH   1   7
BRANCH   2  45
HETATM   45  O   UNL     1     -20.406  -9.927  -0.138  1.00  0.00    -0.388 OA
HETATM   46  H   UNL     1     -20.607  -9.521   0.724  1.00  0.00     0.210 HD
ENDBRANCH   2  45
BRANCH   3  47
HETATM   47  O   UNL     1     -22.725  -8.214  -0.498  1.00  0.00    -0.390 OA
HETATM   48  H   UNL     1     -22.810  -8.630   0.383  1.00  0.00     0.210 HD
ENDBRANCH   3  47
BRANCH   5  49
HETATM   49  C   UNL     1     -20.172  -9.321  -4.749  1.00  0.00     0.205 C 
BRANCH  49  50
HETATM   50  O   UNL     1     -20.723  -8.232  -5.502  1.00  0.00    -0.356 OA
BRANCH  50  51
HETATM   51  C   UNL     1     -20.041  -6.959  -5.475  1.00  0.00     0.291 C 
HETATM   52  C   UNL     1     -21.082  -5.924  -5.053  1.00  0.00     0.204 C 
HETATM   53  C   UNL     1     -22.187  -5.955  -6.116  1.00  0.00     0.183 C 
HETATM   54  C   UNL     1     -21.693  -5.372  -7.461  1.00  0.00     0.187 C 
HETATM   55  C   UNL     1     -20.298  -6.056  -7.792  1.00  0.00     0.180 C 
HETATM   56  O   UNL     1     -19.452  -6.510  -6.697  1.00  0.00    -0.348 OA
BRANCH  52  57
HETATM   57  O   UNL     1     -20.551  -4.602  -4.884  1.00  0.00    -0.388 OA
HETATM   58  H   UNL     1     -20.227  -4.264  -5.743  1.00  0.00     0.210 HD
ENDBRANCH  52  57
BRANCH  53  59
HETATM   59  O   UNL     1     -23.379  -5.397  -5.577  1.00  0.00    -0.390 OA
HETATM   60  H   UNL     1     -23.575  -5.891  -4.754  1.00  0.00     0.210 HD
ENDBRANCH  53  59
BRANCH  54  61
HETATM   61  O   UNL     1     -21.671  -3.913  -7.533  1.00  0.00    -0.348 OA
BRANCH  61  62
HETATM   62  C   UNL     1     -22.553  -3.332  -8.531  1.00  0.00     0.292 C 
HETATM   63  C   UNL     1     -24.034  -3.825  -8.555  1.00  0.00     0.204 C 
HETATM   64  C   UNL     1     -24.163  -5.113  -9.406  1.00  0.00     0.183 C 
HETATM   65  C   UNL     1     -23.530  -4.942 -10.793  1.00  0.00     0.178 C 
HETATM   66  C   UNL     1     -22.091  -4.413 -10.672  1.00  0.00     0.152 C 
HETATM   67  O   UNL     1     -21.958  -3.269  -9.835  1.00  0.00    -0.351 OA
HETATM   68  C   UNL     1     -21.562  -3.991 -12.051  1.00  0.00     0.042 C 
BRANCH  63  69
HETATM   69  O   UNL     1     -24.912  -2.772  -9.025  1.00  0.00    -0.388 OA
HETATM   70  H   UNL     1     -24.507  -2.410  -9.836  1.00  0.00     0.210 HD
ENDBRANCH  63  69
BRANCH  64  71
HETATM   71  O   UNL     1     -25.521  -5.543  -9.589  1.00  0.00    -0.390 OA
HETATM   72  H   UNL     1     -25.665  -6.375  -9.102  1.00  0.00     0.210 HD
ENDBRANCH  64  71
BRANCH  65  73
HETATM   73  O   UNL     1     -24.314  -4.068 -11.618  1.00  0.00    -0.390 OA
HETATM   74  H   UNL     1     -23.718  -3.711 -12.305  1.00  0.00     0.210 HD
ENDBRANCH  65  73
ENDBRANCH  61  62
ENDBRANCH  54  61
BRANCH  55  75
HETATM   75  C   UNL     1     -19.383  -5.159  -8.657  1.00  0.00     0.198 C 
BRANCH  75  76
HETATM   76  O   UNL     1     -18.843  -4.103  -7.853  1.00  0.00    -0.398 OA
HETATM   77  H   UNL     1     -19.619  -3.545  -7.640  1.00  0.00     0.209 HD
ENDBRANCH  75  76
ENDBRANCH  55  75
ENDBRANCH  50  51
ENDBRANCH  49  50
ENDBRANCH   5  49
BRANCH   4  78
HETATM   78  O   UNL     1     -20.455  -7.837  -2.264  1.00  0.00    -0.390 OA
HETATM   79  H   UNL     1     -20.788  -6.921  -2.200  1.00  0.00     0.210 HD
ENDBRANCH   4  78
TORSDOF 22
ENDMDL
MODEL 8
REMARK VINA RESULT:      -5.9      2.377      7.416
REMARK  22 active torsions:
REMARK  status: ('A' for Active; 'I' for Inactive)
REMARK    1  A    between atoms: C_5  and  C_33 
REMARK    2  A    between atoms: C_19  and  O_26 
REMARK    3  A    between atoms: C_20  and  O_25 
REMARK    4  A    between atoms: C_21  and  C_23 
REMARK    5  A    between atoms: C_23  and  O_24 
REMARK    6  A    between atoms: C_33  and  O_35 
REMARK    7  A    between atoms: O_35  and  C_36 
REMARK    8  A    between atoms: C_37  and  O_67 
REMARK    9  A    between atoms: C_38  and  O_66 
REMARK   10  A    between atoms: C_39  and  O_65 
REMARK   11  A    between atoms: C_40  and  C_42 
REMARK   12  A    between atoms: C_42  and  O_43 
REMARK   13  A    between atoms: O_43  and  C_44 
REMARK   14  A    between atoms: C_45  and  O_64 
REMARK   15  A    between atoms: C_46  and  O_63 
REMARK   16  A    between atoms: C_47  and  O_52 
REMARK   17  A    between atoms: C_48  and  C_50 
REMARK   18  A    between atoms: C_50  and  O_51 
REMARK   19  A    between atoms: O_52  and  C_53 
REMARK   20  A    between atoms: C_54  and  O_62 
REMARK   21  A    between atoms: C_55  and  O_61 
REMARK   22  A    between atoms: C_56  and  O_60 
ROOT
HETATM    1  C   UNL     1     -21.950  -8.548  -5.494  1.00  0.00     0.301 C 
HETATM    2  C   UNL     1     -21.479  -7.398  -6.399  1.00  0.00     0.205 C 
HETATM    3  C   UNL     1     -20.092  -6.924  -5.923  1.00  0.00     0.183 C 
HETATM    4  C   UNL     1     -20.075  -6.460  -4.445  1.00  0.00     0.180 C 
HETATM    5  C   UNL     1     -20.726  -7.544  -3.543  1.00  0.00     0.180 C 
HETATM    6  O   UNL     1     -21.971  -8.066  -4.098  1.00  0.00    -0.348 OA
ENDROOT
BRANCH   1   7
HETATM    7  O   UNL     1     -21.128  -9.724  -5.709  1.00  0.00    -0.286 OA
BRANCH   7   8
HETATM    8  C   UNL     1     -21.118 -10.859  -4.874  1.00  0.00     0.270 C 
HETATM    9  O   UNL     1     -21.520 -10.867  -3.724  1.00  0.00    -0.264 OA
BRANCH   8  10
HETATM   10  C   UNL     1     -20.578 -12.095  -5.736  1.00  0.00     0.056 C 
HETATM   11  C   UNL     1     -21.574 -12.093  -6.910  1.00  0.00     0.021 C 
HETATM   12  C   UNL     1     -22.889 -12.683  -6.418  1.00  0.00     0.006 C 
HETATM   13  C   UNL     1     -22.745 -14.197  -6.270  1.00  0.00    -0.014 C 
HETATM   14  C   UNL     1     -24.152 -14.799  -6.133  1.00  0.00     0.010 C 
HETATM   15  C   UNL     1     -21.672 -14.558  -5.166  1.00  0.00    -0.005 C 
HETATM   16  C   UNL     1     -20.324 -13.709  -5.378  1.00  0.00     0.037 C 
HETATM   17  C   UNL     1     -22.298 -14.533  -3.766  1.00  0.00     0.011 C 
HETATM   18  C   UNL     1     -18.895 -14.149  -4.736  1.00  0.00    -0.069 C 
HETATM   19  C   UNL     1     -17.916 -12.987  -4.460  1.00  0.00    -0.013 C 
HETATM   20  C   UNL     1     -18.372 -15.377  -4.356  1.00  0.00    -0.022 C 
HETATM   21  C   UNL     1     -18.403 -11.586  -4.755  1.00  0.00     0.016 C 
HETATM   22  C   UNL     1     -17.493 -13.247  -2.880  1.00  0.00    -0.028 C 
HETATM   23  C   UNL     1     -16.797 -13.150  -5.624  1.00  0.00     0.021 C 
HETATM   24  C   UNL     1     -19.184 -11.590  -6.091  1.00  0.00     0.022 C 
HETATM   25  C   UNL     1     -16.283 -14.196  -3.120  1.00  0.00     0.007 C 
HETATM   26  C   UNL     1     -17.139 -12.162  -1.829  1.00  0.00     0.011 C 
HETATM   27  C   UNL     1     -18.741 -13.910  -2.045  1.00  0.00     0.016 C 
HETATM   28  C   UNL     1     -16.972 -15.577  -3.473  1.00  0.00     0.033 C 
HETATM   29  C   UNL     1     -14.854 -13.627  -2.588  1.00  0.00    -0.033 C 
HETATM   30  C   UNL     1     -14.898 -13.443  -1.065  1.00  0.00     0.007 C 
HETATM   31  C   UNL     1     -13.619 -14.389  -3.187  1.00  0.00     0.044 C 
HETATM   32  C   UNL     1     -14.504 -12.149  -3.116  1.00  0.00     0.016 C 
HETATM   33  C   UNL     1     -16.234 -12.727  -0.665  1.00  0.00     0.007 C 
HETATM   34  C   UNL     1     -14.365 -14.667  -0.211  1.00  0.00     0.010 C 
HETATM   35  C   UNL     1     -13.547 -15.675  -1.086  1.00  0.00     0.157 C 
HETATM   36  C   UNL     1     -13.485 -14.079   0.932  1.00  0.00     0.020 C 
HETATM   37  C   UNL     1     -12.707 -15.057  -2.186  1.00  0.00     0.148 C 
BRANCH  34  38
HETATM   38  C   UNL     1     -15.495 -15.501   0.468  1.00  0.00     0.176 C 
BRANCH  38  39
HETATM   39  O   UNL     1     -15.776 -16.683  -0.250  1.00  0.00    -0.400 OA
HETATM   40  H   UNL     1     -14.955 -17.035  -0.639  1.00  0.00     0.209 HD
ENDBRANCH  38  39
ENDBRANCH  34  38
BRANCH  35  41
HETATM   41  O   UNL     1     -12.707 -16.499  -0.268  1.00  0.00    -0.392 OA
HETATM   42  H   UNL     1     -11.818 -16.462  -0.678  1.00  0.00     0.210 HD
ENDBRANCH  35  41
BRANCH  37  43
HETATM   43  O   UNL     1     -11.716 -14.183  -1.649  1.00  0.00    -0.393 OA
HETATM   44  H   UNL     1     -12.136 -13.362  -1.346  1.00  0.00     0.210 HD
ENDBRANCH  37  43
ENDBRANCH   8  10
ENDBRANCH   7   8
ENDBRANCH   1   7
BRANCH   2  45
HETATM   45  O   UNL     1     -22.396  -6.294  -6.392  1.00  0.00    -0.388 OA
HETATM   46  H   UNL     1     -22.457  -5.929  -7.294  1.00  0.00     0.210 HD
ENDBRANCH   2  45
BRANCH   3  47
HETATM   47  O   UNL     1     -19.542  -5.953  -6.820  1.00  0.00    -0.390 OA
HETATM   48  H   UNL     1     -18.959  -6.419  -7.452  1.00  0.00     0.210 HD
ENDBRANCH   3  47
BRANCH   5  49
HETATM   49  C   UNL     1     -20.901  -7.026  -2.043  1.00  0.00     0.205 C 
BRANCH  49  50
HETATM   50  O   UNL     1     -20.433  -7.967  -1.068  1.00  0.00    -0.356 OA
BRANCH  50  51
HETATM   51  C   UNL     1     -21.226  -8.183   0.120  1.00  0.00     0.291 C 
HETATM   52  C   UNL     1     -20.450  -9.181   0.977  1.00  0.00     0.204 C 
HETATM   53  C   UNL     1     -20.314 -10.461   0.144  1.00  0.00     0.183 C 
HETATM   54  C   UNL     1     -21.675 -11.178  -0.016  1.00  0.00     0.187 C 
HETATM   55  C   UNL     1     -22.737 -10.086  -0.466  1.00  0.00     0.180 C 
HETATM   56  O   UNL     1     -22.545  -8.700  -0.063  1.00  0.00    -0.348 OA
BRANCH  52  57
HETATM   57  O   UNL     1     -21.053  -9.443   2.252  1.00  0.00    -0.388 OA
HETATM   58  H   UNL     1     -20.398  -9.858   2.848  1.00  0.00     0.210 HD
ENDBRANCH  52  57
BRANCH  53  59
HETATM   59  O   UNL     1     -19.236 -11.241   0.647  1.00  0.00    -0.390 OA
HETATM   60  H   UNL     1     -19.314 -11.237   1.623  1.00  0.00     0.210 HD
ENDBRANCH  53  59
BRANCH  54  61
HETATM   61  O   UNL     1     -22.094 -11.975   1.133  1.00  0.00    -0.348 OA
BRANCH  61  62
HETATM   62  C   UNL     1     -21.784 -13.393   1.046  1.00  0.00     0.292 C 
HETATM   63  C   UNL     1     -22.382 -14.185  -0.160  1.00  0.00     0.204 C 
HETATM   64  C   UNL     1     -23.816 -14.671   0.169  1.00  0.00     0.183 C 
HETATM   65  C   UNL     1     -23.870 -15.418   1.507  1.00  0.00     0.178 C 
HETATM   66  C   UNL     1     -23.221 -14.582   2.623  1.00  0.00     0.152 C 
HETATM   67  O   UNL     1     -21.931 -14.077   2.298  1.00  0.00    -0.351 OA
HETATM   68  C   UNL     1     -23.035 -15.435   3.887  1.00  0.00     0.042 C 
BRANCH  63  69
HETATM   69  O   UNL     1     -21.508 -15.280  -0.530  1.00  0.00    -0.388 OA
HETATM   70  H   UNL     1     -20.841 -15.359   0.178  1.00  0.00     0.210 HD
ENDBRANCH  63  69
BRANCH  64  71
HETATM   71  O   UNL     1     -24.374 -15.527  -0.840  1.00  0.00    -0.390 OA
HETATM   72  H   UNL     1     -23.737 -15.621  -1.572  1.00  0.00     0.210 HD
ENDBRANCH  64  71
BRANCH  65  73
HETATM   73  O   UNL     1     -23.233 -16.701   1.412  1.00  0.00    -0.390 OA
HETATM   74  H   UNL     1     -23.856 -17.298   0.954  1.00  0.00     0.210 HD
ENDBRANCH  65  73
ENDBRANCH  61  62
ENDBRANCH  54  61
BRANCH  55  75
HETATM   75  C   UNL     1     -24.177 -10.435  -0.023  1.00  0.00     0.198 C 
BRANCH  75  76
HETATM   76  O   UNL     1     -24.653 -11.558  -0.774  1.00  0.00    -0.398 OA
HETATM   77  H   UNL     1     -24.276 -11.424  -1.667  1.00  0.00     0.209 HD
ENDBRANCH  75  76
ENDBRANCH  55  75
ENDBRANCH  50  51
ENDBRANCH  49  50
ENDBRANCH   5  49
BRANCH   4  78
HETATM   78  O   UNL     1     -20.649  -5.159  -4.259  1.00  0.00    -0.390 OA
HETATM   79  H   UNL     1     -21.613  -5.276  -4.160  1.00  0.00     0.210 HD
ENDBRANCH   4  78
TORSDOF 22
ENDMDL
MODEL 9
REMARK VINA RESULT:      -5.7      1.739      3.079
REMARK  22 active torsions:
REMARK  status: ('A' for Active; 'I' for Inactive)
REMARK    1  A    between atoms: C_5  and  C_33 
REMARK    2  A    between atoms: C_19  and  O_26 
REMARK    3  A    between atoms: C_20  and  O_25 
REMARK    4  A    between atoms: C_21  and  C_23 
REMARK    5  A    between atoms: C_23  and  O_24 
REMARK    6  A    between atoms: C_33  and  O_35 
REMARK    7  A    between atoms: O_35  and  C_36 
REMARK    8  A    between atoms: C_37  and  O_67 
REMARK    9  A    between atoms: C_38  and  O_66 
REMARK   10  A    between atoms: C_39  and  O_65 
REMARK   11  A    between atoms: C_40  and  C_42 
REMARK   12  A    between atoms: C_42  and  O_43 
REMARK   13  A    between atoms: O_43  and  C_44 
REMARK   14  A    between atoms: C_45  and  O_64 
REMARK   15  A    between atoms: C_46  and  O_63 
REMARK   16  A    between atoms: C_47  and  O_52 
REMARK   17  A    between atoms: C_48  and  C_50 
REMARK   18  A    between atoms: C_50  and  O_51 
REMARK   19  A    between atoms: O_52  and  C_53 
REMARK   20  A    between atoms: C_54  and  O_62 
REMARK   21  A    between atoms: C_55  and  O_61 
REMARK   22  A    between atoms: C_56  and  O_60 
ROOT
HETATM    1  C   UNL     1     -20.634  -9.326  -1.072  1.00  0.00     0.301 C 
HETATM    2  C   UNL     1     -21.630  -8.857   0.002  1.00  0.00     0.205 C 
HETATM    3  C   UNL     1     -22.796  -8.122  -0.688  1.00  0.00     0.183 C 
HETATM    4  C   UNL     1     -22.341  -6.909  -1.538  1.00  0.00     0.180 C 
HETATM    5  C   UNL     1     -21.196  -7.336  -2.498  1.00  0.00     0.180 C 
HETATM    6  O   UNL     1     -20.179  -8.147  -1.836  1.00  0.00    -0.348 OA
ENDROOT
BRANCH   1   7
HETATM    7  O   UNL     1     -21.227 -10.374  -1.882  1.00  0.00    -0.286 OA
BRANCH   7   8
HETATM    8  C   UNL     1     -21.114 -11.753  -1.616  1.00  0.00     0.270 C 
HETATM    9  O   UNL     1     -21.658 -12.318  -0.684  1.00  0.00    -0.264 OA
BRANCH   8  10
HETATM   10  C   UNL     1     -20.235 -12.405  -2.785  1.00  0.00     0.056 C 
HETATM   11  C   UNL     1     -21.108 -12.098  -4.015  1.00  0.00     0.021 C 
HETATM   12  C   UNL     1     -22.285 -13.063  -4.015  1.00  0.00     0.006 C 
HETATM   13  C   UNL     1     -21.807 -14.451  -4.440  1.00  0.00    -0.014 C 
HETATM   14  C   UNL     1     -23.044 -15.298  -4.782  1.00  0.00     0.010 C 
HETATM   15  C   UNL     1     -20.772 -15.036  -3.399  1.00  0.00    -0.005 C 
HETATM   16  C   UNL     1     -19.644 -13.949  -3.039  1.00  0.00     0.037 C 
HETATM   17  C   UNL     1     -21.495 -15.703  -2.223  1.00  0.00     0.011 C 
HETATM   18  C   UNL     1     -18.208 -14.351  -2.389  1.00  0.00    -0.069 C 
HETATM   19  C   UNL     1     -17.549 -13.251  -1.528  1.00  0.00    -0.013 C 
HETATM   20  C   UNL     1     -17.447 -15.511  -2.430  1.00  0.00    -0.022 C 
HETATM   21  C   UNL     1     -18.322 -11.965  -1.336  1.00  0.00     0.016 C 
HETATM   22  C   UNL     1     -17.204 -14.059  -0.123  1.00  0.00    -0.028 C 
HETATM   23  C   UNL     1     -16.334 -12.716  -2.461  1.00  0.00     0.021 C 
HETATM   24  C   UNL     1     -18.972 -11.558  -2.680  1.00  0.00     0.022 C 
HETATM   25  C   UNL     1     -15.793 -14.590  -0.505  1.00  0.00     0.007 C 
HETATM   26  C   UNL     1     -17.196 -13.459   1.307  1.00  0.00     0.011 C 
HETATM   27  C   UNL     1     -18.328 -15.218   0.171  1.00  0.00     0.016 C 
HETATM   28  C   UNL     1     -16.114 -15.802  -1.472  1.00  0.00     0.033 C 
HETATM   29  C   UNL     1     -14.581 -14.045   0.434  1.00  0.00    -0.033 C 
HETATM   30  C   UNL     1     -14.787 -14.517   1.880  1.00  0.00     0.007 C 
HETATM   31  C   UNL     1     -13.160 -14.258  -0.197  1.00  0.00     0.044 C 
HETATM   32  C   UNL     1     -14.542 -12.445   0.583  1.00  0.00     0.016 C 
HETATM   33  C   UNL     1     -16.280 -14.281   2.298  1.00  0.00     0.007 C 
HETATM   34  C   UNL     1     -14.056 -15.866   2.273  1.00  0.00     0.010 C 
HETATM   35  C   UNL     1     -12.960 -16.259   1.227  1.00  0.00     0.157 C 
HETATM   36  C   UNL     1     -13.430 -15.655   3.684  1.00  0.00     0.020 C 
HETATM   37  C   UNL     1     -12.201 -15.103   0.606  1.00  0.00     0.148 C 
BRANCH  34  38
HETATM   38  C   UNL     1     -15.013 -17.094   2.380  1.00  0.00     0.176 C 
BRANCH  38  39
HETATM   39  O   UNL     1     -15.697 -17.117   3.614  1.00  0.00    -0.400 OA
HETATM   40  H   UNL     1     -16.609 -16.800   3.491  1.00  0.00     0.209 HD
ENDBRANCH  38  39
ENDBRANCH  34  38
BRANCH  35  41
HETATM   41  O   UNL     1     -12.020 -17.183   1.791  1.00  0.00    -0.392 OA
HETATM   42  H   UNL     1     -11.474 -16.659   2.414  1.00  0.00     0.210 HD
ENDBRANCH  35  41
BRANCH  37  43
HETATM   43  O   UNL     1     -11.485 -14.367   1.595  1.00  0.00    -0.393 OA
HETATM   44  H   UNL     1     -10.673 -14.844   1.832  1.00  0.00     0.210 HD
ENDBRANCH  37  43
ENDBRANCH   8  10
ENDBRANCH   7   8
ENDBRANCH   1   7
BRANCH   2  45
HETATM   45  O   UNL     1     -21.017  -7.992   0.967  1.00  0.00    -0.388 OA
HETATM   46  H   UNL     1     -21.405  -7.101   0.885  1.00  0.00     0.210 HD
ENDBRANCH   2  45
BRANCH   3  47
HETATM   47  O   UNL     1     -23.826  -7.792   0.251  1.00  0.00    -0.390 OA
HETATM   48  H   UNL     1     -24.675  -7.746  -0.233  1.00  0.00     0.210 HD
ENDBRANCH   3  47
BRANCH   5  49
HETATM   49  C   UNL     1     -20.570  -6.077  -3.254  1.00  0.00     0.205 C 
BRANCH  49  50
HETATM   50  O   UNL     1     -21.107  -5.893  -4.571  1.00  0.00    -0.356 OA
BRANCH  50  51
HETATM   51  C   UNL     1     -20.545  -4.857  -5.407  1.00  0.00     0.291 C 
HETATM   52  C   UNL     1     -21.728  -4.067  -5.964  1.00  0.00     0.204 C 
HETATM   53  C   UNL     1     -22.573  -5.057  -6.774  1.00  0.00     0.183 C 
HETATM   54  C   UNL     1     -21.848  -5.489  -8.070  1.00  0.00     0.187 C 
HETATM   55  C   UNL     1     -20.367  -5.901  -7.671  1.00  0.00     0.180 C 
HETATM   56  O   UNL     1     -19.743  -5.277  -6.512  1.00  0.00    -0.348 OA
BRANCH  52  57
HETATM   57  O   UNL     1     -21.347  -2.931  -6.751  1.00  0.00    -0.388 OA
HETATM   58  H   UNL     1     -21.104  -2.188  -6.162  1.00  0.00     0.210 HD
ENDBRANCH  52  57
BRANCH  53  59
HETATM   59  O   UNL     1     -23.892  -4.545  -6.920  1.00  0.00    -0.390 OA
HETATM   60  H   UNL     1     -23.983  -3.811  -6.277  1.00  0.00     0.210 HD
ENDBRANCH  53  59
BRANCH  54  61
HETATM   61  O   UNL     1     -21.922  -4.531  -9.170  1.00  0.00    -0.348 OA
BRANCH  61  62
HETATM   62  C   UNL     1     -22.884  -4.859 -10.209  1.00  0.00     0.292 C 
HETATM   63  C   UNL     1     -22.534  -4.434 -11.670  1.00  0.00     0.204 C 
HETATM   64  C   UNL     1     -22.975  -2.972 -11.930  1.00  0.00     0.183 C 
HETATM   65  C   UNL     1     -24.439  -2.742 -11.537  1.00  0.00     0.178 C 
HETATM   66  C   UNL     1     -24.700  -3.228 -10.101  1.00  0.00     0.152 C 
HETATM   67  O   UNL     1     -24.235  -4.548  -9.840  1.00  0.00    -0.351 OA
HETATM   68  C   UNL     1     -26.208  -3.246  -9.811  1.00  0.00     0.042 C 
BRANCH  63  69
HETATM   69  O   UNL     1     -23.123  -5.357 -12.621  1.00  0.00    -0.388 OA
HETATM   70  H   UNL     1     -23.985  -5.629 -12.252  1.00  0.00     0.210 HD
ENDBRANCH  63  69
BRANCH  64  71
HETATM   71  O   UNL     1     -22.813  -2.561 -13.297  1.00  0.00    -0.390 OA
HETATM   72  H   UNL     1     -22.078  -3.059 -13.699  1.00  0.00     0.210 HD
ENDBRANCH  64  71
BRANCH  65  73
HETATM   73  O   UNL     1     -25.332  -3.393 -12.453  1.00  0.00    -0.390 OA
HETATM   74  H   UNL     1     -24.822  -3.585 -13.264  1.00  0.00     0.210 HD
ENDBRANCH  65  73
ENDBRANCH  61  62
ENDBRANCH  54  61
BRANCH  55  75
HETATM   75  C   UNL     1     -19.359  -5.697  -8.825  1.00  0.00     0.198 C 
BRANCH  75  76
HETATM   76  O   UNL     1     -19.299  -4.309  -9.173  1.00  0.00    -0.398 OA
HETATM   77  H   UNL     1     -19.039  -4.311 -10.117  1.00  0.00     0.209 HD
ENDBRANCH  75  76
ENDBRANCH  55  75
ENDBRANCH  50  51
ENDBRANCH  49  50
ENDBRANCH   5  49
BRANCH   4  78
HETATM   78  O   UNL     1     -22.009  -5.761  -0.745  1.00  0.00    -0.390 OA
HETATM   79  H   UNL     1     -22.612  -5.040  -1.009  1.00  0.00     0.210 HD
ENDBRANCH   4  78
TORSDOF 22
ENDMDL
