MODEL 1
REMARK VINA RESULT:      -6.0      0.000      0.000
REMARK  7 active torsions:
REMARK  status: ('A' for Active; 'I' for Inactive)
REMARK    1  A    between atoms: CB_1  and  CG_2 
REMARK    2  A    between atoms: CB_1  and  CA_6 
REMARK    3  A    between atoms: CG_2  and  CD_3 
REMARK    4  A    between atoms: CD_3  and  OE2_5 
REMARK    5  A    between atoms: CA_6  and  C_7 
REMARK    6  A    between atoms: CA_6  and  N_10 
REMARK    7  A    between atoms: C_7  and  OXT_9 
ROOT
ATOM      1  CA  GLU A   1     -23.246  -3.413 -13.273  1.00  0.00     0.315 C 
ENDROOT
BRANCH   1   2
ATOM      2  CB  GLU A   1     -24.112  -2.949 -12.089  1.00  0.00     0.057 C 
BRANCH   2   3
ATOM      3  CG  GLU A   1     -23.557  -3.358 -10.719  1.00  0.00     0.112 C 
BRANCH   3   4
ATOM      4  CD  GLU A   1     -24.629  -3.413  -9.658  1.00  0.00     0.139 C 
ATOM      5  OE1 GLU A   1     -25.807  -3.154  -9.845  1.00  0.00    -0.650 OA
BRANCH   4   6
ATOM      6  OE2 GLU A   1     -24.155  -3.768  -8.443  1.00  0.00    -0.776 OA
ATOM      7  HE2 GLU A   1     -23.671  -4.616  -8.427  1.00  0.00     0.167 HD
ENDBRANCH   4   6
ENDBRANCH   3   4
ENDBRANCH   2   3
ENDBRANCH   1   2
BRANCH   1   8
ATOM      8  C   GLU A   1     -23.294  -2.408 -14.438  1.00  0.00     0.173 C 
ATOM      9  O   GLU A   1     -22.590  -2.461 -15.434  1.00  0.00    -0.648 OA
BRANCH   8  10
ATOM     10  OXT GLU A   1     -24.247  -1.460 -14.277  1.00  0.00    -0.775 OA
ATOM     11  HXT GLU A   1     -25.077  -1.799 -13.887  1.00  0.00     0.167 HD
ENDBRANCH   8  10
ENDBRANCH   1   8
BRANCH   1  12
ATOM     12  N   GLU A   1     -21.848  -3.582 -12.839  1.00  0.00     0.093 N 
ATOM     13  H1  GLU A   1     -21.506  -2.694 -12.463  1.00  0.00     0.314 HD
ATOM     14  H2  GLU A   1     -21.245  -3.793 -13.633  1.00  0.00     0.314 HD
ENDBRANCH   1  12
TORSDOF 7
ENDMDL
MODEL 2
REMARK VINA RESULT:      -5.7      0.881      4.837
REMARK  7 active torsions:
REMARK  status: ('A' for Active; 'I' for Inactive)
REMARK    1  A    between atoms: CB_1  and  CG_2 
REMARK    2  A    between atoms: CB_1  and  CA_6 
REMARK    3  A    between atoms: CG_2  and  CD_3 
REMARK    4  A    between atoms: CD_3  and  OE2_5 
REMARK    5  A    between atoms: CA_6  and  C_7 
REMARK    6  A    between atoms: CA_6  and  N_10 
REMARK    7  A    between atoms: C_7  and  OXT_9 
ROOT
ATOM      1  CA  GLU A   1     -23.409  -3.375 -10.582  1.00  0.00     0.315 C 
ENDROOT
BRANCH   1   2
ATOM      2  CB  GLU A   1     -23.867  -2.976 -11.996  1.00  0.00     0.057 C 
BRANCH   2   3
ATOM      3  CG  GLU A   1     -22.742  -2.996 -13.039  1.00  0.00     0.112 C 
BRANCH   3   4
ATOM      4  CD  GLU A   1     -23.178  -2.424 -14.366  1.00  0.00     0.139 C 
ATOM      5  OE1 GLU A   1     -22.660  -2.683 -15.439  1.00  0.00    -0.650 OA
BRANCH   4   6
ATOM      6  OE2 GLU A   1     -24.214  -1.563 -14.256  1.00  0.00    -0.776 OA
ATOM      7  HE2 GLU A   1     -25.076  -1.924 -14.539  1.00  0.00     0.167 HD
ENDBRANCH   4   6
ENDBRANCH   3   4
ENDBRANCH   2   3
ENDBRANCH   1   2
BRANCH   1   8
ATOM      8  C   GLU A   1     -24.588  -3.408  -9.593  1.00  0.00     0.173 C 
ATOM      9  O   GLU A   1     -25.744  -3.138  -9.877  1.00  0.00    -0.648 OA
BRANCH   8  10
ATOM     10  OXT GLU A   1     -24.226  -3.823  -8.356  1.00  0.00    -0.775 OA
ATOM     11  HXT GLU A   1     -23.386  -3.433  -8.040  1.00  0.00     0.167 HD
ENDBRANCH   8  10
ENDBRANCH   1   8
BRANCH   1  12
ATOM     12  N   GLU A   1     -22.769  -4.702 -10.614  1.00  0.00     0.093 N 
ATOM     13  H1  GLU A   1     -23.142  -5.270  -9.850  1.00  0.00     0.314 HD
ATOM     14  H2  GLU A   1     -21.768  -4.627 -10.438  1.00  0.00     0.314 HD
ENDBRANCH   1  12
TORSDOF 7
ENDMDL
MODEL 3
REMARK VINA RESULT:      -5.6      1.747      2.723
REMARK  7 active torsions:
REMARK  status: ('A' for Active; 'I' for Inactive)
REMARK    1  A    between atoms: CB_1  and  CG_2 
REMARK    2  A    between atoms: CB_1  and  CA_6 
REMARK    3  A    between atoms: CG_2  and  CD_3 
REMARK    4  A    between atoms: CD_3  and  OE2_5 
REMARK    5  A    between atoms: CA_6  and  C_7 
REMARK    6  A    between atoms: CA_6  and  N_10 
REMARK    7  A    between atoms: C_7  and  OXT_9 
ROOT
ATOM      1  CA  GLU A   1     -22.920  -3.807 -12.005  1.00  0.00     0.315 C 
ENDROOT
BRANCH   1   2
ATOM      2  CB  GLU A   1     -22.127  -3.464 -10.732  1.00  0.00     0.057 C 
BRANCH   2   3
ATOM      3  CG  GLU A   1     -22.176  -4.559  -9.659  1.00  0.00     0.112 C 
BRANCH   3   4
ATOM      4  CD  GLU A   1     -22.740  -4.057  -8.351  1.00  0.00     0.139 C 
ATOM      5  OE1 GLU A   1     -22.102  -3.944  -7.317  1.00  0.00    -0.650 OA
BRANCH   4   6
ATOM      6  OE2 GLU A   1     -24.053  -3.749  -8.424  1.00  0.00    -0.776 OA
ATOM      7  HE2 GLU A   1     -24.295  -3.171  -9.173  1.00  0.00     0.167 HD
ENDBRANCH   4   6
ENDBRANCH   3   4
ENDBRANCH   2   3
ENDBRANCH   1   2
BRANCH   1   8
ATOM      8  C   GLU A   1     -24.294  -3.113 -12.021  1.00  0.00     0.173 C 
ATOM      9  O   GLU A   1     -25.105  -3.150 -11.108  1.00  0.00    -0.648 OA
BRANCH   8  10
ATOM     10  OXT GLU A   1     -24.510  -2.398 -13.150  1.00  0.00    -0.775 OA
ATOM     11  HXT GLU A   1     -25.193  -2.783 -13.735  1.00  0.00     0.167 HD
ENDBRANCH   8  10
ENDBRANCH   1   8
BRANCH   1  12
ATOM     12  N   GLU A   1     -22.160  -3.398 -13.199  1.00  0.00     0.093 N 
ATOM     13  H1  GLU A   1     -22.556  -3.860 -14.021  1.00  0.00     0.314 HD
ATOM     14  H2  GLU A   1     -21.195  -3.719 -13.142  1.00  0.00     0.314 HD
ENDBRANCH   1  12
TORSDOF 7
ENDMDL
MODEL 4
REMARK VINA RESULT:      -5.5      1.984      4.938
REMARK  7 active torsions:
REMARK  status: ('A' for Active; 'I' for Inactive)
REMARK    1  A    between atoms: CB_1  and  CG_2 
REMARK    2  A    between atoms: CB_1  and  CA_6 
REMARK    3  A    between atoms: CG_2  and  CD_3 
REMARK    4  A    between atoms: CD_3  and  OE2_5 
REMARK    5  A    between atoms: CA_6  and  C_7 
REMARK    6  A    between atoms: CA_6  and  N_10 
REMARK    7  A    between atoms: C_7  and  OXT_9 
ROOT
ATOM      1  CA  GLU A   1     -24.156  -3.968 -10.178  1.00  0.00     0.315 C 
ENDROOT
BRANCH   1   2
ATOM      2  CB  GLU A   1     -23.595  -3.010 -11.243  1.00  0.00     0.057 C 
BRANCH   2   3
ATOM      3  CG  GLU A   1     -24.316  -3.097 -12.595  1.00  0.00     0.112 C 
BRANCH   3   4
ATOM      4  CD  GLU A   1     -23.362  -2.998 -13.761  1.00  0.00     0.139 C 
ATOM      5  OE1 GLU A   1     -23.674  -2.636 -14.885  1.00  0.00    -0.650 OA
BRANCH   4   6
ATOM      6  OE2 GLU A   1     -22.102  -3.369 -13.448  1.00  0.00    -0.776 OA
ATOM      7  HE2 GLU A   1     -21.847  -3.202 -12.520  1.00  0.00     0.167 HD
ENDBRANCH   4   6
ENDBRANCH   3   4
ENDBRANCH   2   3
ENDBRANCH   1   2
BRANCH   1   8
ATOM      8  C   GLU A   1     -23.258  -4.015  -8.929  1.00  0.00     0.173 C 
ATOM      9  O   GLU A   1     -22.040  -3.920  -8.942  1.00  0.00    -0.648 OA
BRANCH   8  10
ATOM     10  OXT GLU A   1     -23.962  -4.126  -7.778  1.00  0.00    -0.775 OA
ATOM     11  HXT GLU A   1     -23.491  -3.777  -6.995  1.00  0.00     0.167 HD
ENDBRANCH   8  10
ENDBRANCH   1   8
BRANCH   1  12
ATOM     12  N   GLU A   1     -25.511  -3.544  -9.782  1.00  0.00     0.093 N 
ATOM     13  H1  GLU A   1     -25.501  -2.540  -9.586  1.00  0.00     0.314 HD
ATOM     14  H2  GLU A   1     -25.790  -3.991  -8.910  1.00  0.00     0.314 HD
ENDBRANCH   1  12
TORSDOF 7
ENDMDL
MODEL 5
REMARK VINA RESULT:      -5.4      2.853      4.403
REMARK  7 active torsions:
REMARK  status: ('A' for Active; 'I' for Inactive)
REMARK    1  A    between atoms: CB_1  and  CG_2 
REMARK    2  A    between atoms: CB_1  and  CA_6 
REMARK    3  A    between atoms: CG_2  and  CD_3 
REMARK    4  A    between atoms: CD_3  and  OE2_5 
REMARK    5  A    between atoms: CA_6  and  C_7 
REMARK    6  A    between atoms: CA_6  and  N_10 
REMARK    7  A    between atoms: C_7  and  OXT_9 
ROOT
ATOM      1  CA  GLU A   1     -23.552  -3.650  -9.499  1.00  0.00     0.315 C 
ENDROOT
BRANCH   1   2
ATOM      2  CB  GLU A   1     -22.763  -4.838 -10.076  1.00  0.00     0.057 C 
BRANCH   2   3
ATOM      3  CG  GLU A   1     -21.286  -4.525 -10.350  1.00  0.00     0.112 C 
BRANCH   3   4
ATOM      4  CD  GLU A   1     -21.110  -3.501 -11.445  1.00  0.00     0.139 C 
ATOM      5  OE1 GLU A   1     -20.447  -2.482 -11.343  1.00  0.00    -0.650 OA
BRANCH   4   6
ATOM      6  OE2 GLU A   1     -21.781  -3.813 -12.575  1.00  0.00    -0.776 OA
ATOM      7  HE2 GLU A   1     -22.735  -3.606 -12.553  1.00  0.00     0.167 HD
ENDBRANCH   4   6
ENDBRANCH   3   4
ENDBRANCH   2   3
ENDBRANCH   1   2
BRANCH   1   8
ATOM      8  C   GLU A   1     -24.771  -3.302 -10.373  1.00  0.00     0.173 C 
ATOM      9  O   GLU A   1     -24.736  -3.127 -11.581  1.00  0.00    -0.648 OA
BRANCH   8  10
ATOM     10  OXT GLU A   1     -25.927  -3.254  -9.670  1.00  0.00    -0.775 OA
ATOM     11  HXT GLU A   1     -26.539  -2.552  -9.967  1.00  0.00     0.167 HD
ENDBRANCH   8  10
ENDBRANCH   1   8
BRANCH   1  12
ATOM     12  N   GLU A   1     -24.012  -3.965  -8.135  1.00  0.00     0.093 N 
ATOM     13  H1  GLU A   1     -24.423  -4.902  -8.130  1.00  0.00     0.314 HD
ATOM     14  H2  GLU A   1     -24.761  -3.335  -7.850  1.00  0.00     0.314 HD
ENDBRANCH   1  12
TORSDOF 7
ENDMDL
MODEL 6
REMARK VINA RESULT:      -5.1      1.883      2.297
REMARK  7 active torsions:
REMARK  status: ('A' for Active; 'I' for Inactive)
REMARK    1  A    between atoms: CB_1  and  CG_2 
REMARK    2  A    between atoms: CB_1  and  CA_6 
REMARK    3  A    between atoms: CG_2  and  CD_3 
REMARK    4  A    between atoms: CD_3  and  OE2_5 
REMARK    5  A    between atoms: CA_6  and  C_7 
REMARK    6  A    between atoms: CA_6  and  N_10 
REMARK    7  A    between atoms: C_7  and  OXT_9 
ROOT
ATOM      1  CA  GLU A   1     -23.667  -2.894 -12.967  1.00  0.00     0.315 C 
ENDROOT
BRANCH   1   2
ATOM      2  CB  GLU A   1     -22.471  -2.622 -12.039  1.00  0.00     0.057 C 
BRANCH   2   3
ATOM      3  CG  GLU A   1     -21.630  -3.868 -11.733  1.00  0.00     0.112 C 
BRANCH   3   4
ATOM      4  CD  GLU A   1     -21.810  -4.348 -10.312  1.00  0.00     0.139 C 
ATOM      5  OE1 GLU A   1     -20.964  -4.264  -9.437  1.00  0.00    -0.650 OA
BRANCH   4   6
ATOM      6  OE2 GLU A   1     -23.020  -4.909 -10.093  1.00  0.00    -0.776 OA
ATOM      7  HE2 GLU A   1     -23.094  -5.841 -10.373  1.00  0.00     0.167 HD
ENDBRANCH   4   6
ENDBRANCH   3   4
ENDBRANCH   2   3
ENDBRANCH   1   2
BRANCH   1   8
ATOM      8  C   GLU A   1     -23.472  -2.243 -14.348  1.00  0.00     0.173 C 
ATOM      9  O   GLU A   1     -22.700  -2.642 -15.205  1.00  0.00    -0.648 OA
BRANCH   8  10
ATOM     10  OXT GLU A   1     -24.293  -1.185 -14.552  1.00  0.00    -0.775 OA
ATOM     11  HXT GLU A   1     -25.201  -1.322 -14.214  1.00  0.00     0.167 HD
ENDBRANCH   8  10
ENDBRANCH   1   8
BRANCH   1  12
ATOM     12  N   GLU A   1     -23.850  -4.346 -13.141  1.00  0.00     0.093 N 
ATOM     13  H1  GLU A   1     -24.147  -4.532 -14.103  1.00  0.00     0.314 HD
ATOM     14  H2  GLU A   1     -24.605  -4.690 -12.550  1.00  0.00     0.314 HD
ENDBRANCH   1  12
TORSDOF 7
ENDMDL
MODEL 7
REMARK VINA RESULT:      -5.1      2.565      3.294
REMARK  7 active torsions:
REMARK  status: ('A' for Active; 'I' for Inactive)
REMARK    1  A    between atoms: CB_1  and  CG_2 
REMARK    2  A    between atoms: CB_1  and  CA_6 
REMARK    3  A    between atoms: CG_2  and  CD_3 
REMARK    4  A    between atoms: CD_3  and  OE2_5 
REMARK    5  A    between atoms: CA_6  and  C_7 
REMARK    6  A    between atoms: CA_6  and  N_10 
REMARK    7  A    between atoms: C_7  and  OXT_9 
ROOT
ATOM      1  CA  GLU A   1     -24.053  -3.498 -10.496  1.00  0.00     0.315 C 
ENDROOT
BRANCH   1   2
ATOM      2  CB  GLU A   1     -23.174  -4.703 -10.121  1.00  0.00     0.057 C 
BRANCH   2   3
ATOM      3  CG  GLU A   1     -21.981  -4.344  -9.224  1.00  0.00     0.112 C 
BRANCH   3   4
ATOM      4  CD  GLU A   1     -22.402  -4.017  -7.812  1.00  0.00     0.139 C 
ATOM      5  OE1 GLU A   1     -23.392  -4.468  -7.259  1.00  0.00    -0.650 OA
BRANCH   4   6
ATOM      6  OE2 GLU A   1     -21.572  -3.145  -7.200  1.00  0.00    -0.776 OA
ATOM      7  HE2 GLU A   1     -21.363  -2.346  -7.723  1.00  0.00     0.167 HD
ENDBRANCH   4   6
ENDBRANCH   3   4
ENDBRANCH   2   3
ENDBRANCH   1   2
BRANCH   1   8
ATOM      8  C   GLU A   1     -24.310  -3.435 -12.012  1.00  0.00     0.173 C 
ATOM      9  O   GLU A   1     -25.260  -2.873 -12.536  1.00  0.00    -0.648 OA
BRANCH   8  10
ATOM     10  OXT GLU A   1     -23.336  -4.034 -12.737  1.00  0.00    -0.775 OA
ATOM     11  HXT GLU A   1     -22.888  -3.433 -13.366  1.00  0.00     0.167 HD
ENDBRANCH   8  10
ENDBRANCH   1   8
BRANCH   1  12
ATOM     12  N   GLU A   1     -25.344  -3.576  -9.791  1.00  0.00     0.093 N 
ATOM     13  H1  GLU A   1     -25.980  -2.875 -10.180  1.00  0.00     0.314 HD
ATOM     14  H2  GLU A   1     -25.236  -3.333  -8.807  1.00  0.00     0.314 HD
ENDBRANCH   1  12
TORSDOF 7
ENDMDL
MODEL 8
REMARK VINA RESULT:      -5.1      3.078      3.740
REMARK  7 active torsions:
REMARK  status: ('A' for Active; 'I' for Inactive)
REMARK    1  A    between atoms: CB_1  and  CG_2 
REMARK    2  A    between atoms: CB_1  and  CA_6 
REMARK    3  A    between atoms: CG_2  and  CD_3 
REMARK    4  A    between atoms: CD_3  and  OE2_5 
REMARK    5  A    between atoms: CA_6  and  C_7 
REMARK    6  A    between atoms: CA_6  and  N_10 
REMARK    7  A    between atoms: C_7  and  OXT_9 
ROOT
ATOM      1  CA  GLU A   1     -24.113  -3.339 -10.456  1.00  0.00     0.315 C 
ENDROOT
BRANCH   1   2
ATOM      2  CB  GLU A   1     -23.175  -4.543 -10.263  1.00  0.00     0.057 C 
BRANCH   2   3
ATOM      3  CG  GLU A   1     -21.844  -4.187  -9.587  1.00  0.00     0.112 C 
BRANCH   3   4
ATOM      4  CD  GLU A   1     -20.731  -3.974 -10.585  1.00  0.00     0.139 C 
ATOM      5  OE1 GLU A   1     -20.641  -3.013 -11.331  1.00  0.00    -0.650 OA
BRANCH   4   6
ATOM      6  OE2 GLU A   1     -19.826  -4.977 -10.591  1.00  0.00    -0.776 OA
ATOM      7  HE2 GLU A   1     -18.899  -4.690 -10.484  1.00  0.00     0.167 HD
ENDBRANCH   4   6
ENDBRANCH   3   4
ENDBRANCH   2   3
ENDBRANCH   1   2
BRANCH   1   8
ATOM      8  C   GLU A   1     -24.256  -2.966 -11.943  1.00  0.00     0.173 C 
ATOM      9  O   GLU A   1     -25.205  -3.266 -12.649  1.00  0.00    -0.648 OA
BRANCH   8  10
ATOM     10  OXT GLU A   1     -23.227  -2.211 -12.398  1.00  0.00    -0.775 OA
ATOM     11  HXT GLU A   1     -22.545  -2.724 -12.876  1.00  0.00     0.167 HD
ENDBRANCH   8  10
ENDBRANCH   1   8
BRANCH   1  12
ATOM     12  N   GLU A   1     -25.446  -3.644  -9.906  1.00  0.00     0.093 N 
ATOM     13  H1  GLU A   1     -25.502  -4.646  -9.709  1.00  0.00     0.314 HD
ATOM     14  H2  GLU A   1     -26.173  -3.458 -10.595  1.00  0.00     0.314 HD
ENDBRANCH   1  12
TORSDOF 7
ENDMDL
MODEL 9
REMARK VINA RESULT:      -5.0      3.179      4.555
REMARK  7 active torsions:
REMARK  status: ('A' for Active; 'I' for Inactive)
REMARK    1  A    between atoms: CB_1  and  CG_2 
REMARK    2  A    between atoms: CB_1  and  CA_6 
REMARK    3  A    between atoms: CG_2  and  CD_3 
REMARK    4  A    between atoms: CD_3  and  OE2_5 
REMARK    5  A    between atoms: CA_6  and  C_7 
REMARK    6  A    between atoms: CA_6  and  N_10 
REMARK    7  A    between atoms: C_7  and  OXT_9 
ROOT
ATOM      1  CA  GLU A   1     -23.452  -3.599  -9.328  1.00  0.00     0.315 C 
ENDROOT
BRANCH   1   2
ATOM      2  CB  GLU A   1     -22.418  -4.606  -9.860  1.00  0.00     0.057 C 
BRANCH   2   3
ATOM      3  CG  GLU A   1     -20.971  -4.271  -9.473  1.00  0.00     0.112 C 
BRANCH   3   4
ATOM      4  CD  GLU A   1     -20.598  -4.819  -8.117  1.00  0.00     0.139 C 
ATOM      5  OE1 GLU A   1     -20.122  -5.925  -7.921  1.00  0.00    -0.650 OA
BRANCH   4   6
ATOM      6  OE2 GLU A   1     -20.858  -3.958  -7.108  1.00  0.00    -0.776 OA
ATOM      7  HE2 GLU A   1     -20.068  -3.636  -6.633  1.00  0.00     0.167 HD
ENDBRANCH   4   6
ENDBRANCH   3   4
ENDBRANCH   2   3
ENDBRANCH   1   2
BRANCH   1   8
ATOM      8  C   GLU A   1     -24.636  -3.437 -10.298  1.00  0.00     0.173 C 
ATOM      9  O   GLU A   1     -24.558  -3.519 -11.514  1.00  0.00    -0.648 OA
BRANCH   8  10
ATOM     10  OXT GLU A   1     -25.815  -3.238  -9.662  1.00  0.00    -0.775 OA
ATOM     11  HXT GLU A   1     -26.408  -2.611 -10.121  1.00  0.00     0.167 HD
ENDBRANCH   8  10
ENDBRANCH   1   8
BRANCH   1  12
ATOM     12  N   GLU A   1     -23.960  -4.043  -8.017  1.00  0.00     0.093 N 
ATOM     13  H1  GLU A   1     -23.667  -3.372  -7.302  1.00  0.00     0.314 HD
ATOM     14  H2  GLU A   1     -23.541  -4.932  -7.748  1.00  0.00     0.314 HD
ENDBRANCH   1  12
TORSDOF 7
ENDMDL
