MODEL 1
REMARK VINA RESULT:      -6.9      0.000      0.000
REMARK  8 active torsions:
REMARK  status: ('A' for Active; 'I' for Inactive)
REMARK    1  A    between atoms: C_3  and  O_8 
REMARK    2  A    between atoms: C_6  and  O_7 
REMARK    3  A    between atoms: O_8  and  C_9 
REMARK    4  A    between atoms: C_10  and  O_19 
REMARK    5  A    between atoms: C_11  and  O_18 
REMARK    6  A    between atoms: C_12  and  O_17 
REMARK    7  A    between atoms: C_13  and  C_15 
REMARK    8  A    between atoms: C_15  and  O_16 
ROOT
HETATM    1  C   UNL     1     -21.679  -4.134 -10.136  1.00  0.00     0.298 C 
HETATM    2  C   UNL     1     -23.009  -4.238  -9.364  1.00  0.00     0.205 C 
HETATM    3  C   UNL     1     -24.003  -4.916 -10.330  1.00  0.00     0.183 C 
HETATM    4  C   UNL     1     -24.120  -4.172 -11.691  1.00  0.00     0.180 C 
HETATM    5  C   UNL     1     -22.719  -3.876 -12.250  1.00  0.00     0.179 C 
HETATM    6  O   UNL     1     -21.918  -3.237 -11.238  1.00  0.00    -0.348 OA
ENDROOT
BRANCH   1   7
HETATM    7  O   UNL     1     -20.585  -3.670  -9.345  1.00  0.00    -0.318 OA
BRANCH   7   8
HETATM    8  C   UNL     1     -20.447  -4.322  -8.135  1.00  0.00     0.072 A 
HETATM    9  C   UNL     1     -19.944  -5.622  -8.198  1.00  0.00     0.039 A 
HETATM   10  C   UNL     1     -19.853  -6.396  -7.033  1.00  0.00     0.039 A 
HETATM   11  C   UNL     1     -20.255  -5.868  -5.812  1.00  0.00     0.065 A 
HETATM   12  C   UNL     1     -20.710  -4.562  -5.723  1.00  0.00     0.039 A 
HETATM   13  C   UNL     1     -20.791  -3.791  -6.882  1.00  0.00     0.039 A 
BRANCH  11  14
HETATM   14  O   UNL     1     -20.200  -6.664  -4.709  1.00  0.00    -0.361 OA
HETATM   15  H   UNL     1     -20.039  -7.581  -4.996  1.00  0.00     0.217 HD
ENDBRANCH  11  14
ENDBRANCH   7   8
ENDBRANCH   1   7
BRANCH   2  16
HETATM   16  O   UNL     1     -23.526  -2.945  -8.992  1.00  0.00    -0.388 OA
HETATM   17  H   UNL     1     -23.841  -2.517  -9.812  1.00  0.00     0.210 HD
ENDBRANCH   2  16
BRANCH   3  18
HETATM   18  O   UNL     1     -25.282  -5.058  -9.724  1.00  0.00    -0.390 OA
HETATM   19  H   UNL     1     -25.932  -4.846 -10.423  1.00  0.00     0.210 HD
ENDBRANCH   3  18
BRANCH   5  20
HETATM   20  C   UNL     1     -22.720  -2.951 -13.469  1.00  0.00     0.198 C 
BRANCH  20  21
HETATM   21  O   UNL     1     -23.628  -3.467 -14.446  1.00  0.00    -0.398 OA
HETATM   22  H   UNL     1     -23.460  -2.959 -15.264  1.00  0.00     0.209 HD
ENDBRANCH  20  21
ENDBRANCH   5  20
BRANCH   4  23
HETATM   23  O   UNL     1     -24.884  -2.967 -11.537  1.00  0.00    -0.390 OA
HETATM   24  H   UNL     1     -25.555  -3.112 -10.846  1.00  0.00     0.210 HD
ENDBRANCH   4  23
TORSDOF 8
ENDMDL
MODEL 2
REMARK VINA RESULT:      -6.5      2.206      7.009
REMARK  8 active torsions:
REMARK  status: ('A' for Active; 'I' for Inactive)
REMARK    1  A    between atoms: C_3  and  O_8 
REMARK    2  A    between atoms: C_6  and  O_7 
REMARK    3  A    between atoms: O_8  and  C_9 
REMARK    4  A    between atoms: C_10  and  O_19 
REMARK    5  A    between atoms: C_11  and  O_18 
REMARK    6  A    between atoms: C_12  and  O_17 
REMARK    7  A    between atoms: C_13  and  C_15 
REMARK    8  A    between atoms: C_15  and  O_16 
ROOT
HETATM    1  C   UNL     1     -21.323  -5.544  -6.031  1.00  0.00     0.298 C 
HETATM    2  C   UNL     1     -20.805  -6.908  -6.527  1.00  0.00     0.205 C 
HETATM    3  C   UNL     1     -21.571  -7.971  -5.711  1.00  0.00     0.183 C 
HETATM    4  C   UNL     1     -21.431  -7.762  -4.175  1.00  0.00     0.180 C 
HETATM    5  C   UNL     1     -21.709  -6.294  -3.817  1.00  0.00     0.179 C 
HETATM    6  O   UNL     1     -20.916  -5.432  -4.654  1.00  0.00    -0.348 OA
ENDROOT
BRANCH   1   7
HETATM    7  O   UNL     1     -20.840  -4.432  -6.785  1.00  0.00    -0.318 OA
BRANCH   7   8
HETATM    8  C   UNL     1     -21.197  -4.458  -8.120  1.00  0.00     0.072 A 
HETATM    9  C   UNL     1     -20.142  -4.497  -9.031  1.00  0.00     0.039 A 
HETATM   10  C   UNL     1     -20.400  -4.435 -10.407  1.00  0.00     0.039 A 
HETATM   11  C   UNL     1     -21.709  -4.345 -10.867  1.00  0.00     0.065 A 
HETATM   12  C   UNL     1     -22.772  -4.356  -9.978  1.00  0.00     0.039 A 
HETATM   13  C   UNL     1     -22.512  -4.426  -8.610  1.00  0.00     0.039 A 
BRANCH  11  14
HETATM   14  O   UNL     1     -21.921  -4.236 -12.207  1.00  0.00    -0.361 OA
HETATM   15  H   UNL     1     -21.087  -4.433 -12.671  1.00  0.00     0.217 HD
ENDBRANCH  11  14
ENDBRANCH   7   8
ENDBRANCH   1   7
BRANCH   2  16
HETATM   16  O   UNL     1     -19.391  -7.071  -6.297  1.00  0.00    -0.388 OA
HETATM   17  H   UNL     1     -19.257  -7.063  -5.330  1.00  0.00     0.210 HD
ENDBRANCH   2  16
BRANCH   3  18
HETATM   18  O   UNL     1     -21.165  -9.283  -6.079  1.00  0.00    -0.390 OA
HETATM   19  H   UNL     1     -21.304  -9.343  -7.045  1.00  0.00     0.210 HD
ENDBRANCH   3  18
BRANCH   5  20
HETATM   20  C   UNL     1     -21.378  -5.936  -2.366  1.00  0.00     0.198 C 
BRANCH  20  21
HETATM   21  O   UNL     1     -22.596  -5.812  -1.626  1.00  0.00    -0.398 OA
HETATM   22  H   UNL     1     -22.541  -6.472  -0.907  1.00  0.00     0.209 HD
ENDBRANCH  20  21
ENDBRANCH   5  20
BRANCH   4  23
HETATM   23  O   UNL     1     -20.128  -8.168  -3.734  1.00  0.00    -0.390 OA
HETATM   24  H   UNL     1     -19.479  -7.507  -4.034  1.00  0.00     0.210 HD
ENDBRANCH   4  23
TORSDOF 8
ENDMDL
MODEL 3
REMARK VINA RESULT:      -6.4      1.295      2.704
REMARK  8 active torsions:
REMARK  status: ('A' for Active; 'I' for Inactive)
REMARK    1  A    between atoms: C_3  and  O_8 
REMARK    2  A    between atoms: C_6  and  O_7 
REMARK    3  A    between atoms: O_8  and  C_9 
REMARK    4  A    between atoms: C_10  and  O_19 
REMARK    5  A    between atoms: C_11  and  O_18 
REMARK    6  A    between atoms: C_12  and  O_17 
REMARK    7  A    between atoms: C_13  and  C_15 
REMARK    8  A    between atoms: C_15  and  O_16 
ROOT
HETATM    1  C   UNL     1     -21.275  -3.369 -10.346  1.00  0.00     0.298 C 
HETATM    2  C   UNL     1     -21.124  -3.596 -11.863  1.00  0.00     0.205 C 
HETATM    3  C   UNL     1     -22.363  -2.943 -12.511  1.00  0.00     0.183 C 
HETATM    4  C   UNL     1     -23.700  -3.479 -11.923  1.00  0.00     0.180 C 
HETATM    5  C   UNL     1     -23.642  -3.461 -10.387  1.00  0.00     0.179 C 
HETATM    6  O   UNL     1     -22.439  -4.113  -9.939  1.00  0.00    -0.348 OA
ENDROOT
BRANCH   1   7
HETATM    7  O   UNL     1     -20.137  -3.770  -9.584  1.00  0.00    -0.318 OA
BRANCH   7   8
HETATM    8  C   UNL     1     -20.442  -4.253  -8.326  1.00  0.00     0.072 A 
HETATM    9  C   UNL     1     -19.891  -5.492  -7.999  1.00  0.00     0.039 A 
HETATM   10  C   UNL     1     -20.216  -6.105  -6.781  1.00  0.00     0.039 A 
HETATM   11  C   UNL     1     -21.079  -5.475  -5.893  1.00  0.00     0.065 A 
HETATM   12  C   UNL     1     -21.596  -4.222  -6.178  1.00  0.00     0.039 A 
HETATM   13  C   UNL     1     -21.264  -3.610  -7.387  1.00  0.00     0.039 A 
BRANCH  11  14
HETATM   14  O   UNL     1     -21.412  -6.121  -4.741  1.00  0.00    -0.361 OA
HETATM   15  H   UNL     1     -21.800  -5.476  -4.124  1.00  0.00     0.217 HD
ENDBRANCH  11  14
ENDBRANCH   7   8
ENDBRANCH   1   7
BRANCH   2  16
HETATM   16  O   UNL     1     -21.100  -4.996 -12.206  1.00  0.00    -0.388 OA
HETATM   17  H   UNL     1     -21.185  -5.496 -11.371  1.00  0.00     0.210 HD
ENDBRANCH   2  16
BRANCH   3  18
HETATM   18  O   UNL     1     -22.338  -3.099 -13.924  1.00  0.00    -0.390 OA
HETATM   19  H   UNL     1     -21.799  -2.357 -14.264  1.00  0.00     0.210 HD
ENDBRANCH   3  18
BRANCH   5  20
HETATM   20  C   UNL     1     -24.816  -4.176  -9.714  1.00  0.00     0.198 C 
BRANCH  20  21
HETATM   21  O   UNL     1     -25.938  -3.290  -9.667  1.00  0.00    -0.398 OA
HETATM   22  H   UNL     1     -26.594  -3.719  -9.083  1.00  0.00     0.209 HD
ENDBRANCH  20  21
ENDBRANCH   5  20
BRANCH   4  23
HETATM   23  O   UNL     1     -23.969  -4.798 -12.418  1.00  0.00    -0.390 OA
HETATM   24  H   UNL     1     -24.933  -4.902 -12.515  1.00  0.00     0.210 HD
ENDBRANCH   4  23
TORSDOF 8
ENDMDL
MODEL 4
REMARK VINA RESULT:      -6.4      1.701      6.451
REMARK  8 active torsions:
REMARK  status: ('A' for Active; 'I' for Inactive)
REMARK    1  A    between atoms: C_3  and  O_8 
REMARK    2  A    between atoms: C_6  and  O_7 
REMARK    3  A    between atoms: O_8  and  C_9 
REMARK    4  A    between atoms: C_10  and  O_19 
REMARK    5  A    between atoms: C_11  and  O_18 
REMARK    6  A    between atoms: C_12  and  O_17 
REMARK    7  A    between atoms: C_13  and  C_15 
REMARK    8  A    between atoms: C_15  and  O_16 
ROOT
HETATM    1  C   UNL     1     -22.148  -4.901  -8.140  1.00  0.00     0.298 C 
HETATM    2  C   UNL     1     -20.960  -3.934  -7.972  1.00  0.00     0.205 C 
HETATM    3  C   UNL     1     -19.763  -4.808  -7.543  1.00  0.00     0.183 C 
HETATM    4  C   UNL     1     -20.068  -5.661  -6.277  1.00  0.00     0.180 C 
HETATM    5  C   UNL     1     -21.417  -6.379  -6.439  1.00  0.00     0.179 C 
HETATM    6  O   UNL     1     -22.428  -5.431  -6.830  1.00  0.00    -0.348 OA
ENDROOT
BRANCH   1   7
HETATM    7  O   UNL     1     -23.317  -4.292  -8.690  1.00  0.00    -0.318 OA
BRANCH   7   8
HETATM    8  C   UNL     1     -23.219  -3.999 -10.037  1.00  0.00     0.072 A 
HETATM    9  C   UNL     1     -22.052  -4.428 -10.670  1.00  0.00     0.039 A 
HETATM   10  C   UNL     1     -21.821  -4.099 -12.013  1.00  0.00     0.039 A 
HETATM   11  C   UNL     1     -22.758  -3.354 -12.718  1.00  0.00     0.065 A 
HETATM   12  C   UNL     1     -23.945  -2.963 -12.121  1.00  0.00     0.039 A 
HETATM   13  C   UNL     1     -24.177  -3.299 -10.787  1.00  0.00     0.039 A 
BRANCH  11  14
HETATM   14  O   UNL     1     -22.478  -3.010 -14.006  1.00  0.00    -0.361 OA
HETATM   15  H   UNL     1     -23.286  -3.121 -14.540  1.00  0.00     0.217 HD
ENDBRANCH  11  14
ENDBRANCH   7   8
ENDBRANCH   1   7
BRANCH   2  16
HETATM   16  O   UNL     1     -21.203  -2.942  -6.955  1.00  0.00    -0.388 OA
HETATM   17  H   UNL     1     -21.361  -2.095  -7.415  1.00  0.00     0.210 HD
ENDBRANCH   2  16
BRANCH   3  18
HETATM   18  O   UNL     1     -18.600  -4.015  -7.346  1.00  0.00    -0.390 OA
HETATM   19  H   UNL     1     -18.923  -3.121  -7.118  1.00  0.00     0.210 HD
ENDBRANCH   3  18
BRANCH   5  20
HETATM   20  C   UNL     1     -21.914  -7.062  -5.162  1.00  0.00     0.198 C 
BRANCH  20  21
HETATM   21  O   UNL     1     -22.380  -6.063  -4.250  1.00  0.00    -0.398 OA
HETATM   22  H   UNL     1     -21.669  -5.950  -3.590  1.00  0.00     0.209 HD
ENDBRANCH  20  21
ENDBRANCH   5  20
BRANCH   4  23
HETATM   23  O   UNL     1     -20.057  -4.833  -5.104  1.00  0.00    -0.390 OA
HETATM   24  H   UNL     1     -20.748  -5.150  -4.495  1.00  0.00     0.210 HD
ENDBRANCH   4  23
TORSDOF 8
ENDMDL
MODEL 5
REMARK VINA RESULT:      -6.1      1.866      2.878
REMARK  8 active torsions:
REMARK  status: ('A' for Active; 'I' for Inactive)
REMARK    1  A    between atoms: C_3  and  O_8 
REMARK    2  A    between atoms: C_6  and  O_7 
REMARK    3  A    between atoms: O_8  and  C_9 
REMARK    4  A    between atoms: C_10  and  O_19 
REMARK    5  A    between atoms: C_11  and  O_18 
REMARK    6  A    between atoms: C_12  and  O_17 
REMARK    7  A    between atoms: C_13  and  C_15 
REMARK    8  A    between atoms: C_15  and  O_16 
ROOT
HETATM    1  C   UNL     1     -21.176  -5.234  -8.013  1.00  0.00     0.298 C 
HETATM    2  C   UNL     1     -22.402  -4.386  -7.624  1.00  0.00     0.205 C 
HETATM    3  C   UNL     1     -23.377  -4.485  -8.816  1.00  0.00     0.183 C 
HETATM    4  C   UNL     1     -22.721  -4.066 -10.164  1.00  0.00     0.180 C 
HETATM    5  C   UNL     1     -21.365  -4.770 -10.329  1.00  0.00     0.179 C 
HETATM    6  O   UNL     1     -20.570  -4.577  -9.143  1.00  0.00    -0.348 OA
ENDROOT
BRANCH   1   7
HETATM    7  O   UNL     1     -20.224  -5.392  -6.961  1.00  0.00    -0.318 OA
BRANCH   7   8
HETATM    8  C   UNL     1     -20.692  -6.114  -5.881  1.00  0.00     0.072 A 
HETATM    9  C   UNL     1     -20.755  -5.425  -4.669  1.00  0.00     0.039 A 
HETATM   10  C   UNL     1     -21.132  -6.097  -3.498  1.00  0.00     0.039 A 
HETATM   11  C   UNL     1     -21.453  -7.448  -3.543  1.00  0.00     0.065 A 
HETATM   12  C   UNL     1     -21.444  -8.137  -4.746  1.00  0.00     0.039 A 
HETATM   13  C   UNL     1     -21.078  -7.464  -5.911  1.00  0.00     0.039 A 
BRANCH  11  14
HETATM   14  O   UNL     1     -21.766  -8.081  -2.379  1.00  0.00    -0.361 OA
HETATM   15  H   UNL     1     -20.941  -8.271  -1.897  1.00  0.00     0.217 HD
ENDBRANCH  11  14
ENDBRANCH   7   8
ENDBRANCH   1   7
BRANCH   2  16
HETATM   16  O   UNL     1     -22.063  -3.001  -7.411  1.00  0.00    -0.388 OA
HETATM   17  H   UNL     1     -21.382  -2.769  -8.071  1.00  0.00     0.210 HD
ENDBRANCH   2  16
BRANCH   3  18
HETATM   18  O   UNL     1     -24.554  -3.725  -8.574  1.00  0.00    -0.390 OA
HETATM   19  H   UNL     1     -25.166  -3.942  -9.306  1.00  0.00     0.210 HD
ENDBRANCH   3  18
BRANCH   5  20
HETATM   20  C   UNL     1     -20.538  -4.254 -11.510  1.00  0.00     0.198 C 
BRANCH  20  21
HETATM   21  O   UNL     1     -21.422  -3.864 -12.564  1.00  0.00    -0.398 OA
HETATM   22  H   UNL     1     -21.623  -4.682 -13.061  1.00  0.00     0.209 HD
ENDBRANCH  20  21
ENDBRANCH   5  20
BRANCH   4  23
HETATM   23  O   UNL     1     -22.578  -2.639 -10.226  1.00  0.00    -0.390 OA
HETATM   24  H   UNL     1     -22.946  -2.255  -9.410  1.00  0.00     0.210 HD
ENDBRANCH   4  23
TORSDOF 8
ENDMDL
MODEL 6
REMARK VINA RESULT:      -6.1      2.964      5.373
REMARK  8 active torsions:
REMARK  status: ('A' for Active; 'I' for Inactive)
REMARK    1  A    between atoms: C_3  and  O_8 
REMARK    2  A    between atoms: C_6  and  O_7 
REMARK    3  A    between atoms: O_8  and  C_9 
REMARK    4  A    between atoms: C_10  and  O_19 
REMARK    5  A    between atoms: C_11  and  O_18 
REMARK    6  A    between atoms: C_12  and  O_17 
REMARK    7  A    between atoms: C_13  and  C_15 
REMARK    8  A    between atoms: C_15  and  O_16 
ROOT
HETATM    1  C   UNL     1     -21.579  -5.695  -5.819  1.00  0.00     0.298 C 
HETATM    2  C   UNL     1     -20.072  -5.835  -6.112  1.00  0.00     0.205 C 
HETATM    3  C   UNL     1     -19.595  -4.433  -6.544  1.00  0.00     0.183 C 
HETATM    4  C   UNL     1     -20.419  -3.859  -7.733  1.00  0.00     0.180 C 
HETATM    5  C   UNL     1     -21.923  -4.015  -7.453  1.00  0.00     0.179 C 
HETATM    6  O   UNL     1     -22.208  -5.375  -7.074  1.00  0.00    -0.348 OA
ENDROOT
BRANCH   1   7
HETATM    7  O   UNL     1     -22.169  -6.864  -5.251  1.00  0.00    -0.318 OA
BRANCH   7   8
HETATM    8  C   UNL     1     -21.864  -7.059  -3.918  1.00  0.00     0.072 A 
HETATM    9  C   UNL     1     -21.167  -8.230  -3.617  1.00  0.00     0.039 A 
HETATM   10  C   UNL     1     -20.891  -8.560  -2.284  1.00  0.00     0.039 A 
HETATM   11  C   UNL     1     -21.302  -7.718  -1.258  1.00  0.00     0.065 A 
HETATM   12  C   UNL     1     -21.951  -6.526  -1.540  1.00  0.00     0.039 A 
HETATM   13  C   UNL     1     -22.217  -6.195  -2.868  1.00  0.00     0.039 A 
BRANCH  11  14
HETATM   14  O   UNL     1     -21.061  -8.093   0.028  1.00  0.00    -0.361 OA
HETATM   15  H   UNL     1     -20.117  -7.952   0.222  1.00  0.00     0.217 HD
ENDBRANCH  11  14
ENDBRANCH   7   8
ENDBRANCH   1   7
BRANCH   2  16
HETATM   16  O   UNL     1     -19.808  -6.768  -7.179  1.00  0.00    -0.388 OA
HETATM   17  H   UNL     1     -20.554  -7.398  -7.198  1.00  0.00     0.210 HD
ENDBRANCH   2  16
BRANCH   3  18
HETATM   18  O   UNL     1     -18.208  -4.441  -6.852  1.00  0.00    -0.390 OA
HETATM   19  H   UNL     1     -18.005  -5.354  -7.140  1.00  0.00     0.210 HD
ENDBRANCH   3  18
BRANCH   5  20
HETATM   20  C   UNL     1     -22.814  -3.690  -8.655  1.00  0.00     0.198 C 
BRANCH  20  21
HETATM   21  O   UNL     1     -24.181  -3.896  -8.291  1.00  0.00    -0.398 OA
HETATM   22  H   UNL     1     -24.670  -3.123  -8.637  1.00  0.00     0.209 HD
ENDBRANCH  20  21
ENDBRANCH   5  20
BRANCH   4  23
HETATM   23  O   UNL     1     -20.047  -4.510  -8.957  1.00  0.00    -0.390 OA
HETATM   24  H   UNL     1     -19.573  -5.332  -8.738  1.00  0.00     0.210 HD
ENDBRANCH   4  23
TORSDOF 8
ENDMDL
MODEL 7
REMARK VINA RESULT:      -5.8      2.682      7.752
REMARK  8 active torsions:
REMARK  status: ('A' for Active; 'I' for Inactive)
REMARK    1  A    between atoms: C_3  and  O_8 
REMARK    2  A    between atoms: C_6  and  O_7 
REMARK    3  A    between atoms: O_8  and  C_9 
REMARK    4  A    between atoms: C_10  and  O_19 
REMARK    5  A    between atoms: C_11  and  O_18 
REMARK    6  A    between atoms: C_12  and  O_17 
REMARK    7  A    between atoms: C_13  and  C_15 
REMARK    8  A    between atoms: C_15  and  O_16 
ROOT
HETATM    1  C   UNL     1     -20.715  -7.082  -5.309  1.00  0.00     0.298 C 
HETATM    2  C   UNL     1     -20.265  -8.539  -5.089  1.00  0.00     0.205 C 
HETATM    3  C   UNL     1     -21.378  -9.201  -4.251  1.00  0.00     0.183 C 
HETATM    4  C   UNL     1     -21.679  -8.427  -2.935  1.00  0.00     0.180 C 
HETATM    5  C   UNL     1     -21.847  -6.929  -3.233  1.00  0.00     0.179 C 
HETATM    6  O   UNL     1     -20.729  -6.460  -4.010  1.00  0.00    -0.348 OA
ENDROOT
BRANCH   1   7
HETATM    7  O   UNL     1     -19.880  -6.346  -6.204  1.00  0.00    -0.318 OA
BRANCH   7   8
HETATM    8  C   UNL     1     -20.572  -5.540  -7.087  1.00  0.00     0.072 A 
HETATM    9  C   UNL     1     -21.849  -5.150  -6.682  1.00  0.00     0.039 A 
HETATM   10  C   UNL     1     -22.663  -4.407  -7.548  1.00  0.00     0.039 A 
HETATM   11  C   UNL     1     -22.197  -4.049  -8.807  1.00  0.00     0.065 A 
HETATM   12  C   UNL     1     -20.913  -4.385  -9.207  1.00  0.00     0.039 A 
HETATM   13  C   UNL     1     -20.102  -5.117  -8.340  1.00  0.00     0.039 A 
BRANCH  11  14
HETATM   14  O   UNL     1     -23.032  -3.371  -9.641  1.00  0.00    -0.361 OA
HETATM   15  H   UNL     1     -22.835  -2.419  -9.572  1.00  0.00     0.217 HD
ENDBRANCH  11  14
ENDBRANCH   7   8
ENDBRANCH   1   7
BRANCH   2  16
HETATM   16  O   UNL     1     -19.021  -8.622  -4.364  1.00  0.00    -0.388 OA
HETATM   17  H   UNL     1     -19.084  -7.997  -3.616  1.00  0.00     0.210 HD
ENDBRANCH   2  16
BRANCH   3  18
HETATM   18  O   UNL     1     -21.065 -10.560  -3.973  1.00  0.00    -0.390 OA
HETATM   19  H   UNL     1     -20.575 -10.885  -4.756  1.00  0.00     0.210 HD
ENDBRANCH   3  18
BRANCH   5  20
HETATM   20  C   UNL     1     -21.921  -6.051  -1.981  1.00  0.00     0.198 C 
BRANCH  20  21
HETATM   21  O   UNL     1     -22.692  -6.726  -0.983  1.00  0.00    -0.398 OA
HETATM   22  H   UNL     1     -22.254  -6.533  -0.130  1.00  0.00     0.209 HD
ENDBRANCH  20  21
ENDBRANCH   5  20
BRANCH   4  23
HETATM   23  O   UNL     1     -20.636  -8.653  -1.974  1.00  0.00    -0.390 OA
HETATM   24  H   UNL     1     -20.227  -7.797  -1.755  1.00  0.00     0.210 HD
ENDBRANCH   4  23
TORSDOF 8
ENDMDL
MODEL 8
REMARK VINA RESULT:      -5.7      7.531      9.177
REMARK  8 active torsions:
REMARK  status: ('A' for Active; 'I' for Inactive)
REMARK    1  A    between atoms: C_3  and  O_8 
REMARK    2  A    between atoms: C_6  and  O_7 
REMARK    3  A    between atoms: O_8  and  C_9 
REMARK    4  A    between atoms: C_10  and  O_19 
REMARK    5  A    between atoms: C_11  and  O_18 
REMARK    6  A    between atoms: C_12  and  O_17 
REMARK    7  A    between atoms: C_13  and  C_15 
REMARK    8  A    between atoms: C_15  and  O_16 
ROOT
HETATM    1  C   UNL     1     -19.380  -9.598  -3.430  1.00  0.00     0.298 C 
HETATM    2  C   UNL     1     -20.330  -9.457  -4.635  1.00  0.00     0.205 C 
HETATM    3  C   UNL     1     -20.321 -10.829  -5.341  1.00  0.00     0.183 C 
HETATM    4  C   UNL     1     -18.887 -11.300  -5.719  1.00  0.00     0.180 C 
HETATM    5  C   UNL     1     -17.948 -11.145  -4.512  1.00  0.00     0.179 C 
HETATM    6  O   UNL     1     -18.064  -9.815  -3.975  1.00  0.00    -0.348 OA
ENDROOT
BRANCH   1   7
HETATM    7  O   UNL     1     -19.378  -8.468  -2.558  1.00  0.00    -0.318 OA
BRANCH   7   8
HETATM    8  C   UNL     1     -20.505  -8.365  -1.766  1.00  0.00     0.072 A 
HETATM    9  C   UNL     1     -21.231  -7.180  -1.891  1.00  0.00     0.039 A 
HETATM   10  C   UNL     1     -22.338  -6.945  -1.065  1.00  0.00     0.039 A 
HETATM   11  C   UNL     1     -22.721  -7.895  -0.126  1.00  0.00     0.065 A 
HETATM   12  C   UNL     1     -22.042  -9.098  -0.022  1.00  0.00     0.039 A 
HETATM   13  C   UNL     1     -20.946  -9.334  -0.851  1.00  0.00     0.039 A 
BRANCH  11  14
HETATM   14  O   UNL     1     -23.770  -7.612   0.694  1.00  0.00    -0.361 OA
HETATM   15  H   UNL     1     -24.557  -7.442   0.145  1.00  0.00     0.217 HD
ENDBRANCH  11  14
ENDBRANCH   7   8
ENDBRANCH   1   7
BRANCH   2  16
HETATM   16  O   UNL     1     -19.885  -8.450  -5.566  1.00  0.00    -0.388 OA
HETATM   17  H   UNL     1     -19.797  -7.617  -5.064  1.00  0.00     0.210 HD
ENDBRANCH   2  16
BRANCH   3  18
HETATM   18  O   UNL     1     -21.164 -10.817  -6.486  1.00  0.00    -0.390 OA
HETATM   19  H   UNL     1     -21.640  -9.962  -6.457  1.00  0.00     0.210 HD
ENDBRANCH   3  18
BRANCH   5  20
HETATM   20  C   UNL     1     -16.470 -11.367  -4.844  1.00  0.00     0.198 C 
BRANCH  20  21
HETATM   21  O   UNL     1     -15.913 -10.143  -5.332  1.00  0.00    -0.398 OA
HETATM   22  H   UNL     1     -15.277 -10.397  -6.030  1.00  0.00     0.209 HD
ENDBRANCH  20  21
ENDBRANCH   5  20
BRANCH   4  23
HETATM   23  O   UNL     1     -18.404 -10.564  -6.853  1.00  0.00    -0.390 OA
HETATM   24  H   UNL     1     -18.916 -10.830  -7.636  1.00  0.00     0.210 HD
ENDBRANCH   4  23
TORSDOF 8
ENDMDL
MODEL 9
REMARK VINA RESULT:      -5.6      1.570      2.520
REMARK  8 active torsions:
REMARK  status: ('A' for Active; 'I' for Inactive)
REMARK    1  A    between atoms: C_3  and  O_8 
REMARK    2  A    between atoms: C_6  and  O_7 
REMARK    3  A    between atoms: O_8  and  C_9 
REMARK    4  A    between atoms: C_10  and  O_19 
REMARK    5  A    between atoms: C_11  and  O_18 
REMARK    6  A    between atoms: C_12  and  O_17 
REMARK    7  A    between atoms: C_13  and  C_15 
REMARK    8  A    between atoms: C_15  and  O_16 
ROOT
HETATM    1  C   UNL     1     -23.109  -4.405  -8.682  1.00  0.00     0.298 C 
HETATM    2  C   UNL     1     -24.340  -3.794  -9.380  1.00  0.00     0.205 C 
HETATM    3  C   UNL     1     -24.142  -4.058 -10.888  1.00  0.00     0.183 C 
HETATM    4  C   UNL     1     -22.782  -3.518 -11.417  1.00  0.00     0.180 C 
HETATM    5  C   UNL     1     -21.642  -3.966 -10.489  1.00  0.00     0.179 C 
HETATM    6  O   UNL     1     -21.971  -3.642  -9.125  1.00  0.00    -0.348 OA
ENDROOT
BRANCH   1   7
HETATM    7  O   UNL     1     -23.189  -4.396  -7.256  1.00  0.00    -0.318 OA
BRANCH   7   8
HETATM    8  C   UNL     1     -22.348  -5.302  -6.639  1.00  0.00     0.072 A 
HETATM    9  C   UNL     1     -22.906  -6.034  -5.591  1.00  0.00     0.039 A 
HETATM   10  C   UNL     1     -22.109  -6.913  -4.845  1.00  0.00     0.039 A 
HETATM   11  C   UNL     1     -20.762  -7.063  -5.155  1.00  0.00     0.065 A 
HETATM   12  C   UNL     1     -20.202  -6.382  -6.224  1.00  0.00     0.039 A 
HETATM   13  C   UNL     1     -21.001  -5.516  -6.970  1.00  0.00     0.039 A 
BRANCH  11  14
HETATM   14  O   UNL     1     -20.005  -7.887  -4.378  1.00  0.00    -0.361 OA
HETATM   15  H   UNL     1     -19.605  -7.359  -3.664  1.00  0.00     0.217 HD
ENDBRANCH  11  14
ENDBRANCH   7   8
ENDBRANCH   1   7
BRANCH   2  16
HETATM   16  O   UNL     1     -24.440  -2.372  -9.164  1.00  0.00    -0.388 OA
HETATM   17  H   UNL     1     -24.716  -1.973 -10.012  1.00  0.00     0.210 HD
ENDBRANCH   2  16
BRANCH   3  18
HETATM   18  O   UNL     1     -25.222  -3.524 -11.643  1.00  0.00    -0.390 OA
HETATM   19  H   UNL     1     -25.803  -3.077 -10.995  1.00  0.00     0.210 HD
ENDBRANCH   3  18
BRANCH   5  20
HETATM   20  C   UNL     1     -20.297  -3.302 -10.794  1.00  0.00     0.198 C 
BRANCH  20  21
HETATM   21  O   UNL     1     -19.713  -3.933 -11.938  1.00  0.00    -0.398 OA
HETATM   22  H   UNL     1     -19.454  -3.208 -12.540  1.00  0.00     0.209 HD
ENDBRANCH  20  21
ENDBRANCH   5  20
BRANCH   4  23
HETATM   23  O   UNL     1     -22.825  -2.089 -11.537  1.00  0.00    -0.390 OA
HETATM   24  H   UNL     1     -21.932  -1.737 -11.373  1.00  0.00     0.210 HD
ENDBRANCH   4  23
TORSDOF 8
ENDMDL
