MODEL 1
REMARK VINA RESULT:      -6.2      0.000      0.000
REMARK  30 active torsions:
REMARK  status: ('A' for Active; 'I' for Inactive)
REMARK    1  A    between atoms: C_2  and  C_3 
REMARK    2  A    between atoms: C_3  and  C_4 
REMARK    3  A    between atoms: C_4  and  C_5 
REMARK    4  A    between atoms: C_5  and  C_6 
REMARK    5  A    between atoms: C_6  and  C_7 
REMARK    6  A    between atoms: C_7  and  C_8 
REMARK    7  A    between atoms: C_8  and  O_9 
REMARK    8  A    between atoms: O_9  and  C_10 
REMARK    9  A    between atoms: C_10  and  C_12 
REMARK   10  A    between atoms: C_12  and  C_13 
REMARK   11  A    between atoms: C_13  and  C_14 
REMARK   12  A    between atoms: C_13  and  C_26 
REMARK   13  A    between atoms: C_13  and  O_37 
REMARK   14  A    between atoms: C_14  and  C_15 
REMARK   15  A    between atoms: C_15  and  O_17 
REMARK   16  A    between atoms: O_17  and  C_18 
REMARK   17  A    between atoms: C_18  and  C_19 
REMARK   18  A    between atoms: C_19  and  C_20 
REMARK   19  A    between atoms: C_20  and  C_21 
REMARK   20  A    between atoms: C_21  and  C_22 
REMARK   21  A    between atoms: C_22  and  C_23 
REMARK   22  A    between atoms: C_23  and  C_24 
REMARK   23  A    between atoms: C_26  and  O_28 
REMARK   24  A    between atoms: O_28  and  C_29 
REMARK   25  A    between atoms: C_29  and  C_30 
REMARK   26  A    between atoms: C_30  and  C_31 
REMARK   27  A    between atoms: C_31  and  C_32 
REMARK   28  A    between atoms: C_32  and  C_33 
REMARK   29  A    between atoms: C_33  and  C_34 
REMARK   30  A    between atoms: C_34  and  C_35 
ROOT
HETATM    1  C   UNL     1     -21.088  -7.356  -3.810  1.00  0.00     0.162 C 
ENDROOT
BRANCH   1   2
HETATM    2  C   UNL     1     -20.660  -6.188  -4.721  1.00  0.00     0.160 C 
BRANCH   2   3
HETATM    3  C   UNL     1     -21.322  -6.224  -6.071  1.00  0.00     0.262 C 
HETATM    4  O   UNL     1     -21.000  -6.974  -6.980  1.00  0.00    -0.265 OA
BRANCH   3   5
HETATM    5  O   UNL     1     -22.297  -5.272  -6.158  1.00  0.00    -0.321 OA
BRANCH   5   6
HETATM    6  C   UNL     1     -22.218  -4.534  -7.377  1.00  0.00     0.178 C 
BRANCH   6   7
HETATM    7  C   UNL     1     -21.153  -3.462  -7.311  1.00  0.00     0.027 C 
BRANCH   7   8
HETATM    8  C   UNL     1     -20.108  -3.721  -8.391  1.00  0.00     0.002 C 
BRANCH   8   9
HETATM    9  C   UNL     1     -20.655  -4.657  -9.455  1.00  0.00     0.000 C 
BRANCH   9  10
HETATM   10  C   UNL     1     -20.411  -4.101 -10.854  1.00  0.00     0.000 C 
BRANCH  10  11
HETATM   11  C   UNL     1     -21.697  -4.155 -11.672  1.00  0.00    -0.000 C 
BRANCH  11  12
HETATM   12  C   UNL     1     -22.613  -2.981 -11.344  1.00  0.00    -0.005 C 
HETATM   13  C   UNL     1     -23.946  -3.470 -10.804  1.00  0.00     0.005 C 
ENDBRANCH  11  12
ENDBRANCH  10  11
ENDBRANCH   9  10
ENDBRANCH   8   9
ENDBRANCH   7   8
ENDBRANCH   6   7
ENDBRANCH   5   6
ENDBRANCH   3   5
ENDBRANCH   2   3
ENDBRANCH   1   2
BRANCH   1  14
HETATM   14  C   UNL     1     -19.980  -8.329  -3.393  1.00  0.00     0.160 C 
BRANCH  14  15
HETATM   15  C   UNL     1     -19.947  -9.511  -4.322  1.00  0.00     0.262 C 
HETATM   16  O   UNL     1     -19.566  -9.446  -5.473  1.00  0.00    -0.265 OA
BRANCH  15  17
HETATM   17  O   UNL     1     -20.512 -10.607  -3.741  1.00  0.00    -0.321 OA
BRANCH  17  18
HETATM   18  C   UNL     1     -21.115 -11.504  -4.688  1.00  0.00     0.178 C 
BRANCH  18  19
HETATM   19  C   UNL     1     -22.529 -11.880  -4.267  1.00  0.00     0.027 C 
BRANCH  19  20
HETATM   20  C   UNL     1     -22.600 -12.164  -2.765  1.00  0.00     0.002 C 
BRANCH  20  21
HETATM   21  C   UNL     1     -23.437 -11.109  -2.042  1.00  0.00     0.000 C 
BRANCH  21  22
HETATM   22  C   UNL     1     -24.073 -11.675  -0.773  1.00  0.00     0.000 C 
BRANCH  22  23
HETATM   23  C   UNL     1     -23.407 -12.989  -0.366  1.00  0.00    -0.000 C 
BRANCH  23  24
HETATM   24  C   UNL     1     -22.837 -12.911   1.048  1.00  0.00    -0.005 C 
HETATM   25  C   UNL     1     -23.495 -13.935   1.958  1.00  0.00     0.005 C 
ENDBRANCH  23  24
ENDBRANCH  22  23
ENDBRANCH  21  22
ENDBRANCH  20  21
ENDBRANCH  19  20
ENDBRANCH  18  19
ENDBRANCH  17  18
ENDBRANCH  15  17
ENDBRANCH  14  15
ENDBRANCH   1  14
BRANCH   1  26
HETATM   26  C   UNL     1     -21.797  -6.818  -2.544  1.00  0.00     0.294 C 
HETATM   27  O   UNL     1     -22.582  -5.885  -2.526  1.00  0.00    -0.262 OA
BRANCH  26  28
HETATM   28  O   UNL     1     -21.318  -7.450  -1.426  1.00  0.00    -0.319 OA
BRANCH  28  29
HETATM   29  C   UNL     1     -22.144  -7.363  -0.252  1.00  0.00     0.178 C 
BRANCH  29  30
HETATM   30  C   UNL     1     -22.231  -8.726   0.426  1.00  0.00     0.027 C 
BRANCH  30  31
HETATM   31  C   UNL     1     -21.065  -8.952   1.388  1.00  0.00     0.002 C 
BRANCH  31  32
HETATM   32  C   UNL     1     -20.399 -10.311   1.165  1.00  0.00     0.000 C 
BRANCH  32  33
HETATM   33  C   UNL     1     -20.302 -10.633  -0.328  1.00  0.00     0.000 C 
BRANCH  33  34
HETATM   34  C   UNL     1     -19.549 -11.941  -0.569  1.00  0.00    -0.000 C 
BRANCH  34  35
HETATM   35  C   UNL     1     -18.363 -12.084   0.385  1.00  0.00    -0.005 C 
HETATM   36  C   UNL     1     -17.044 -12.013  -0.366  1.00  0.00     0.005 C 
ENDBRANCH  34  35
ENDBRANCH  33  34
ENDBRANCH  32  33
ENDBRANCH  31  32
ENDBRANCH  30  31
ENDBRANCH  29  30
ENDBRANCH  28  29
ENDBRANCH  26  28
ENDBRANCH   1  26
BRANCH   1  37
HETATM   37  O   UNL     1     -22.086  -8.121  -4.512  1.00  0.00    -0.379 OA
HETATM   38  H   UNL     1     -22.101  -9.031  -4.151  1.00  0.00     0.211 HD
ENDBRANCH   1  37
TORSDOF 30
ENDMDL
MODEL 2
REMARK VINA RESULT:      -6.1      1.543      8.362
REMARK  30 active torsions:
REMARK  status: ('A' for Active; 'I' for Inactive)
REMARK    1  A    between atoms: C_2  and  C_3 
REMARK    2  A    between atoms: C_3  and  C_4 
REMARK    3  A    between atoms: C_4  and  C_5 
REMARK    4  A    between atoms: C_5  and  C_6 
REMARK    5  A    between atoms: C_6  and  C_7 
REMARK    6  A    between atoms: C_7  and  C_8 
REMARK    7  A    between atoms: C_8  and  O_9 
REMARK    8  A    between atoms: O_9  and  C_10 
REMARK    9  A    between atoms: C_10  and  C_12 
REMARK   10  A    between atoms: C_12  and  C_13 
REMARK   11  A    between atoms: C_13  and  C_14 
REMARK   12  A    between atoms: C_13  and  C_26 
REMARK   13  A    between atoms: C_13  and  O_37 
REMARK   14  A    between atoms: C_14  and  C_15 
REMARK   15  A    between atoms: C_15  and  O_17 
REMARK   16  A    between atoms: O_17  and  C_18 
REMARK   17  A    between atoms: C_18  and  C_19 
REMARK   18  A    between atoms: C_19  and  C_20 
REMARK   19  A    between atoms: C_20  and  C_21 
REMARK   20  A    between atoms: C_21  and  C_22 
REMARK   21  A    between atoms: C_22  and  C_23 
REMARK   22  A    between atoms: C_23  and  C_24 
REMARK   23  A    between atoms: C_26  and  O_28 
REMARK   24  A    between atoms: O_28  and  C_29 
REMARK   25  A    between atoms: C_29  and  C_30 
REMARK   26  A    between atoms: C_30  and  C_31 
REMARK   27  A    between atoms: C_31  and  C_32 
REMARK   28  A    between atoms: C_32  and  C_33 
REMARK   29  A    between atoms: C_33  and  C_34 
REMARK   30  A    between atoms: C_34  and  C_35 
ROOT
HETATM    1  C   UNL     1     -21.394  -7.678  -4.123  1.00  0.00     0.162 C 
ENDROOT
BRANCH   1   2
HETATM    2  C   UNL     1     -21.852  -9.149  -4.177  1.00  0.00     0.160 C 
BRANCH   2   3
HETATM    3  C   UNL     1     -20.707 -10.117  -4.294  1.00  0.00     0.262 C 
HETATM    4  O   UNL     1     -20.270 -10.786  -3.370  1.00  0.00    -0.265 OA
BRANCH   3   5
HETATM    5  O   UNL     1     -20.194 -10.109  -5.559  1.00  0.00    -0.321 OA
BRANCH   5   6
HETATM    6  C   UNL     1     -18.946 -10.797  -5.635  1.00  0.00     0.178 C 
BRANCH   6   7
HETATM    7  C   UNL     1     -17.817  -9.863  -6.009  1.00  0.00     0.027 C 
BRANCH   7   8
HETATM    8  C   UNL     1     -16.670 -10.034  -5.019  1.00  0.00     0.002 C 
BRANCH   8   9
HETATM    9  C   UNL     1     -17.082  -9.570  -3.633  1.00  0.00     0.000 C 
BRANCH   9  10
HETATM   10  C   UNL     1     -15.916  -9.660  -2.654  1.00  0.00     0.000 C 
BRANCH  10  11
HETATM   11  C   UNL     1     -15.562 -11.119  -2.391  1.00  0.00    -0.000 C 
BRANCH  11  12
HETATM   12  C   UNL     1     -16.030 -11.564  -1.009  1.00  0.00    -0.005 C 
HETATM   13  C   UNL     1     -17.055 -12.680  -1.119  1.00  0.00     0.005 C 
ENDBRANCH  11  12
ENDBRANCH  10  11
ENDBRANCH   9  10
ENDBRANCH   8   9
ENDBRANCH   7   8
ENDBRANCH   6   7
ENDBRANCH   5   6
ENDBRANCH   3   5
ENDBRANCH   2   3
ENDBRANCH   1   2
BRANCH   1  14
HETATM   14  C   UNL     1     -21.779  -6.805  -5.322  1.00  0.00     0.160 C 
BRANCH  14  15
HETATM   15  C   UNL     1     -20.546  -6.336  -6.044  1.00  0.00     0.262 C 
HETATM   16  O   UNL     1     -19.833  -7.072  -6.695  1.00  0.00    -0.265 OA
BRANCH  15  17
HETATM   17  O   UNL     1     -20.280  -5.029  -5.763  1.00  0.00    -0.321 OA
BRANCH  17  18
HETATM   18  C   UNL     1     -20.773  -4.122  -6.762  1.00  0.00     0.178 C 
BRANCH  18  19
HETATM   19  C   UNL     1     -19.765  -3.944  -7.889  1.00  0.00     0.027 C 
BRANCH  19  20
HETATM   20  C   UNL     1     -20.412  -4.193  -9.253  1.00  0.00     0.002 C 
BRANCH  20  21
HETATM   21  C   UNL     1     -21.893  -4.540  -9.108  1.00  0.00     0.000 C 
BRANCH  21  22
HETATM   22  C   UNL     1     -22.720  -3.947 -10.248  1.00  0.00     0.000 C 
BRANCH  22  23
HETATM   23  C   UNL     1     -21.818  -3.311 -11.304  1.00  0.00    -0.000 C 
BRANCH  23  24
HETATM   24  C   UNL     1     -22.572  -3.070 -12.610  1.00  0.00    -0.005 C 
HETATM   25  C   UNL     1     -24.068  -2.963 -12.365  1.00  0.00     0.005 C 
ENDBRANCH  23  24
ENDBRANCH  22  23
ENDBRANCH  21  22
ENDBRANCH  20  21
ENDBRANCH  19  20
ENDBRANCH  18  19
ENDBRANCH  17  18
ENDBRANCH  15  17
ENDBRANCH  14  15
ENDBRANCH   1  14
BRANCH   1  26
HETATM   26  C   UNL     1     -21.895  -7.007  -2.821  1.00  0.00     0.294 C 
HETATM   27  O   UNL     1     -22.309  -5.863  -2.740  1.00  0.00    -0.262 OA
BRANCH  26  28
HETATM   28  O   UNL     1     -21.684  -7.832  -1.748  1.00  0.00    -0.319 OA
BRANCH  28  29
HETATM   29  C   UNL     1     -22.187  -7.364  -0.485  1.00  0.00     0.178 C 
BRANCH  29  30
HETATM   30  C   UNL     1     -22.873  -8.504   0.258  1.00  0.00     0.027 C 
BRANCH  30  31
HETATM   31  C   UNL     1     -22.921  -9.778  -0.584  1.00  0.00     0.002 C 
BRANCH  31  32
HETATM   32  C   UNL     1     -23.933 -10.786  -0.036  1.00  0.00     0.000 C 
BRANCH  32  33
HETATM   33  C   UNL     1     -24.016 -12.020  -0.936  1.00  0.00     0.000 C 
BRANCH  33  34
HETATM   34  C   UNL     1     -23.189 -13.177  -0.375  1.00  0.00    -0.000 C 
BRANCH  34  35
HETATM   35  C   UNL     1     -22.784 -12.918   1.076  1.00  0.00    -0.005 C 
HETATM   36  C   UNL     1     -23.460 -13.901   2.019  1.00  0.00     0.005 C 
ENDBRANCH  34  35
ENDBRANCH  33  34
ENDBRANCH  32  33
ENDBRANCH  31  32
ENDBRANCH  30  31
ENDBRANCH  29  30
ENDBRANCH  28  29
ENDBRANCH  26  28
ENDBRANCH   1  26
BRANCH   1  37
HETATM   37  O   UNL     1     -19.957  -7.667  -4.031  1.00  0.00    -0.379 OA
HETATM   38  H   UNL     1     -19.606  -6.969  -4.621  1.00  0.00     0.211 HD
ENDBRANCH   1  37
TORSDOF 30
ENDMDL
MODEL 3
REMARK VINA RESULT:      -6.1      1.650      9.100
REMARK  30 active torsions:
REMARK  status: ('A' for Active; 'I' for Inactive)
REMARK    1  A    between atoms: C_2  and  C_3 
REMARK    2  A    between atoms: C_3  and  C_4 
REMARK    3  A    between atoms: C_4  and  C_5 
REMARK    4  A    between atoms: C_5  and  C_6 
REMARK    5  A    between atoms: C_6  and  C_7 
REMARK    6  A    between atoms: C_7  and  C_8 
REMARK    7  A    between atoms: C_8  and  O_9 
REMARK    8  A    between atoms: O_9  and  C_10 
REMARK    9  A    between atoms: C_10  and  C_12 
REMARK   10  A    between atoms: C_12  and  C_13 
REMARK   11  A    between atoms: C_13  and  C_14 
REMARK   12  A    between atoms: C_13  and  C_26 
REMARK   13  A    between atoms: C_13  and  O_37 
REMARK   14  A    between atoms: C_14  and  C_15 
REMARK   15  A    between atoms: C_15  and  O_17 
REMARK   16  A    between atoms: O_17  and  C_18 
REMARK   17  A    between atoms: C_18  and  C_19 
REMARK   18  A    between atoms: C_19  and  C_20 
REMARK   19  A    between atoms: C_20  and  C_21 
REMARK   20  A    between atoms: C_21  and  C_22 
REMARK   21  A    between atoms: C_22  and  C_23 
REMARK   22  A    between atoms: C_23  and  C_24 
REMARK   23  A    between atoms: C_26  and  O_28 
REMARK   24  A    between atoms: O_28  and  C_29 
REMARK   25  A    between atoms: C_29  and  C_30 
REMARK   26  A    between atoms: C_30  and  C_31 
REMARK   27  A    between atoms: C_31  and  C_32 
REMARK   28  A    between atoms: C_32  and  C_33 
REMARK   29  A    between atoms: C_33  and  C_34 
REMARK   30  A    between atoms: C_34  and  C_35 
ROOT
HETATM    1  C   UNL     1     -20.811  -8.016  -4.530  1.00  0.00     0.162 C 
ENDROOT
BRANCH   1   2
HETATM    2  C   UNL     1     -20.540  -7.723  -3.041  1.00  0.00     0.160 C 
BRANCH   2   3
HETATM    3  C   UNL     1     -21.603  -6.869  -2.408  1.00  0.00     0.262 C 
HETATM    4  O   UNL     1     -21.693  -5.658  -2.547  1.00  0.00    -0.265 OA
BRANCH   3   5
HETATM    5  O   UNL     1     -22.424  -7.622  -1.619  1.00  0.00    -0.321 OA
BRANCH   5   6
HETATM    6  C   UNL     1     -22.465  -7.142  -0.276  1.00  0.00     0.178 C 
BRANCH   6   7
HETATM    7  C   UNL     1     -22.629  -8.273   0.715  1.00  0.00     0.027 C 
BRANCH   7   8
HETATM    8  C   UNL     1     -21.372  -9.138   0.707  1.00  0.00     0.002 C 
BRANCH   8   9
HETATM    9  C   UNL     1     -21.720 -10.589   0.423  1.00  0.00     0.000 C 
BRANCH   9  10
HETATM   10  C   UNL     1     -23.112 -10.711  -0.188  1.00  0.00     0.000 C 
BRANCH  10  11
HETATM   11  C   UNL     1     -23.661 -12.116   0.033  1.00  0.00    -0.000 C 
BRANCH  11  12
HETATM   12  C   UNL     1     -22.695 -12.968   0.849  1.00  0.00    -0.005 C 
HETATM   13  C   UNL     1     -23.426 -13.696   1.964  1.00  0.00     0.005 C 
ENDBRANCH  11  12
ENDBRANCH  10  11
ENDBRANCH   9  10
ENDBRANCH   8   9
ENDBRANCH   7   8
ENDBRANCH   6   7
ENDBRANCH   5   6
ENDBRANCH   3   5
ENDBRANCH   2   3
ENDBRANCH   1   2
BRANCH   1  14
HETATM   14  C   UNL     1     -19.792  -7.452  -5.527  1.00  0.00     0.160 C 
BRANCH  14  15
HETATM   15  C   UNL     1     -20.265  -6.131  -6.066  1.00  0.00     0.262 C 
HETATM   16  O   UNL     1     -20.391  -5.137  -5.381  1.00  0.00    -0.265 OA
BRANCH  15  17
HETATM   17  O   UNL     1     -20.645  -6.240  -7.370  1.00  0.00    -0.321 OA
BRANCH  17  18
HETATM   18  C   UNL     1     -21.700  -5.335  -7.732  1.00  0.00     0.178 C 
BRANCH  18  19
HETATM   19  C   UNL     1     -21.147  -3.966  -8.103  1.00  0.00     0.027 C 
BRANCH  19  20
HETATM   20  C   UNL     1     -19.900  -4.093  -8.980  1.00  0.00     0.002 C 
BRANCH  20  21
HETATM   21  C   UNL     1     -20.252  -4.636 -10.364  1.00  0.00     0.000 C 
BRANCH  21  22
HETATM   22  C   UNL     1     -20.840  -3.546 -11.259  1.00  0.00     0.000 C 
BRANCH  22  23
HETATM   23  C   UNL     1     -22.284  -3.871 -11.640  1.00  0.00    -0.000 C 
BRANCH  23  24
HETATM   24  C   UNL     1     -22.976  -2.671 -12.281  1.00  0.00    -0.005 C 
HETATM   25  C   UNL     1     -24.447  -2.959 -12.530  1.00  0.00     0.005 C 
ENDBRANCH  23  24
ENDBRANCH  22  23
ENDBRANCH  21  22
ENDBRANCH  20  21
ENDBRANCH  19  20
ENDBRANCH  18  19
ENDBRANCH  17  18
ENDBRANCH  15  17
ENDBRANCH  14  15
ENDBRANCH   1  14
BRANCH   1  26
HETATM   26  C   UNL     1     -20.960  -9.539  -4.760  1.00  0.00     0.294 C 
HETATM   27  O   UNL     1     -21.023 -10.078  -5.851  1.00  0.00    -0.262 OA
BRANCH  26  28
HETATM   28  O   UNL     1     -21.144 -10.185  -3.565  1.00  0.00    -0.319 OA
BRANCH  28  29
HETATM   29  C   UNL     1     -21.030 -11.618  -3.601  1.00  0.00     0.178 C 
BRANCH  29  30
HETATM   30  C   UNL     1     -19.702 -12.051  -2.989  1.00  0.00     0.027 C 
BRANCH  30  31
HETATM   31  C   UNL     1     -19.191 -11.031  -1.972  1.00  0.00     0.002 C 
BRANCH  31  32
HETATM   32  C   UNL     1     -17.696 -10.755  -2.145  1.00  0.00     0.000 C 
BRANCH  32  33
HETATM   33  C   UNL     1     -17.460  -9.676  -3.204  1.00  0.00     0.000 C 
BRANCH  33  34
HETATM   34  C   UNL     1     -15.985  -9.593  -3.597  1.00  0.00    -0.000 C 
BRANCH  34  35
HETATM   35  C   UNL     1     -15.778  -9.966  -5.064  1.00  0.00    -0.005 C 
HETATM   36  C   UNL     1     -17.093  -9.944  -5.826  1.00  0.00     0.005 C 
ENDBRANCH  34  35
ENDBRANCH  33  34
ENDBRANCH  32  33
ENDBRANCH  31  32
ENDBRANCH  30  31
ENDBRANCH  29  30
ENDBRANCH  28  29
ENDBRANCH  26  28
ENDBRANCH   1  26
BRANCH   1  37
HETATM   37  O   UNL     1     -22.092  -7.451  -4.865  1.00  0.00    -0.379 OA
HETATM   38  H   UNL     1     -21.965  -6.752  -5.540  1.00  0.00     0.211 HD
ENDBRANCH   1  37
TORSDOF 30
ENDMDL
MODEL 4
REMARK VINA RESULT:      -6.0      1.766      4.251
REMARK  30 active torsions:
REMARK  status: ('A' for Active; 'I' for Inactive)
REMARK    1  A    between atoms: C_2  and  C_3 
REMARK    2  A    between atoms: C_3  and  C_4 
REMARK    3  A    between atoms: C_4  and  C_5 
REMARK    4  A    between atoms: C_5  and  C_6 
REMARK    5  A    between atoms: C_6  and  C_7 
REMARK    6  A    between atoms: C_7  and  C_8 
REMARK    7  A    between atoms: C_8  and  O_9 
REMARK    8  A    between atoms: O_9  and  C_10 
REMARK    9  A    between atoms: C_10  and  C_12 
REMARK   10  A    between atoms: C_12  and  C_13 
REMARK   11  A    between atoms: C_13  and  C_14 
REMARK   12  A    between atoms: C_13  and  C_26 
REMARK   13  A    between atoms: C_13  and  O_37 
REMARK   14  A    between atoms: C_14  and  C_15 
REMARK   15  A    between atoms: C_15  and  O_17 
REMARK   16  A    between atoms: O_17  and  C_18 
REMARK   17  A    between atoms: C_18  and  C_19 
REMARK   18  A    between atoms: C_19  and  C_20 
REMARK   19  A    between atoms: C_20  and  C_21 
REMARK   20  A    between atoms: C_21  and  C_22 
REMARK   21  A    between atoms: C_22  and  C_23 
REMARK   22  A    between atoms: C_23  and  C_24 
REMARK   23  A    between atoms: C_26  and  O_28 
REMARK   24  A    between atoms: O_28  and  C_29 
REMARK   25  A    between atoms: C_29  and  C_30 
REMARK   26  A    between atoms: C_30  and  C_31 
REMARK   27  A    between atoms: C_31  and  C_32 
REMARK   28  A    between atoms: C_32  and  C_33 
REMARK   29  A    between atoms: C_33  and  C_34 
REMARK   30  A    between atoms: C_34  and  C_35 
ROOT
HETATM    1  C   UNL     1     -20.758  -6.921  -5.319  1.00  0.00     0.162 C 
ENDROOT
BRANCH   1   2
HETATM    2  C   UNL     1     -20.025  -5.600  -5.629  1.00  0.00     0.160 C 
BRANCH   2   3
HETATM    3  C   UNL     1     -20.571  -4.896  -6.840  1.00  0.00     0.262 C 
HETATM    4  O   UNL     1     -21.517  -4.123  -6.823  1.00  0.00    -0.265 OA
BRANCH   3   5
HETATM    5  O   UNL     1     -19.897  -5.274  -7.965  1.00  0.00    -0.321 OA
BRANCH   5   6
HETATM    6  C   UNL     1     -20.668  -5.065  -9.147  1.00  0.00     0.178 C 
BRANCH   6   7
HETATM    7  C   UNL     1     -20.292  -3.772  -9.836  1.00  0.00     0.027 C 
BRANCH   7   8
HETATM    8  C   UNL     1     -20.645  -3.867 -11.317  1.00  0.00     0.002 C 
BRANCH   8   9
HETATM    9  C   UNL     1     -21.645  -2.789 -11.701  1.00  0.00     0.000 C 
BRANCH   9  10
HETATM   10  C   UNL     1     -22.815  -3.379 -12.482  1.00  0.00     0.000 C 
BRANCH  10  11
HETATM   11  C   UNL     1     -24.103  -3.241 -11.679  1.00  0.00    -0.000 C 
BRANCH  11  12
HETATM   12  C   UNL     1     -24.136  -4.217 -10.508  1.00  0.00    -0.005 C 
HETATM   13  C   UNL     1     -24.281  -3.476  -9.190  1.00  0.00     0.005 C 
ENDBRANCH  11  12
ENDBRANCH  10  11
ENDBRANCH   9  10
ENDBRANCH   8   9
ENDBRANCH   7   8
ENDBRANCH   6   7
ENDBRANCH   5   6
ENDBRANCH   3   5
ENDBRANCH   2   3
ENDBRANCH   1   2
BRANCH   1  14
HETATM   14  C   UNL     1     -19.883  -8.083  -4.838  1.00  0.00     0.160 C 
BRANCH  14  15
HETATM   15  C   UNL     1     -20.591  -9.392  -5.048  1.00  0.00     0.262 C 
HETATM   16  O   UNL     1     -21.041  -9.744  -6.119  1.00  0.00    -0.265 OA
BRANCH  15  17
HETATM   17  O   UNL     1     -20.765 -10.051  -3.867  1.00  0.00    -0.321 OA
BRANCH  17  18
HETATM   18  C   UNL     1     -19.999 -11.263  -3.775  1.00  0.00     0.178 C 
BRANCH  18  19
HETATM   19  C   UNL     1     -19.389 -11.424  -2.390  1.00  0.00     0.027 C 
BRANCH  19  20
HETATM   20  C   UNL     1     -18.215 -10.463  -2.188  1.00  0.00     0.002 C 
BRANCH  20  21
HETATM   21  C   UNL     1     -16.939 -11.218  -1.820  1.00  0.00     0.000 C 
BRANCH  21  22
HETATM   22  C   UNL     1     -15.702 -10.547  -2.416  1.00  0.00     0.000 C 
BRANCH  22  23
HETATM   23  C   UNL     1     -16.095  -9.506  -3.463  1.00  0.00    -0.000 C 
BRANCH  23  24
HETATM   24  C   UNL     1     -15.629  -9.913  -4.858  1.00  0.00    -0.005 C 
HETATM   25  C   UNL     1     -16.790  -9.930  -5.838  1.00  0.00     0.005 C 
ENDBRANCH  23  24
ENDBRANCH  22  23
ENDBRANCH  21  22
ENDBRANCH  20  21
ENDBRANCH  19  20
ENDBRANCH  18  19
ENDBRANCH  17  18
ENDBRANCH  15  17
ENDBRANCH  14  15
ENDBRANCH   1  14
BRANCH   1  26
HETATM   26  C   UNL     1     -21.893  -6.679  -4.295  1.00  0.00     0.294 C 
HETATM   27  O   UNL     1     -23.028  -6.334  -4.579  1.00  0.00    -0.262 OA
BRANCH  26  28
HETATM   28  O   UNL     1     -21.409  -6.777  -3.017  1.00  0.00    -0.319 OA
BRANCH  28  29
HETATM   29  C   UNL     1     -22.164  -6.089  -2.005  1.00  0.00     0.178 C 
BRANCH  29  30
HETATM   30  C   UNL     1     -22.310  -6.974  -0.772  1.00  0.00     0.027 C 
BRANCH  30  31
HETATM   31  C   UNL     1     -21.382  -8.186  -0.835  1.00  0.00     0.002 C 
BRANCH  31  32
HETATM   32  C   UNL     1     -22.162  -9.493  -0.993  1.00  0.00     0.000 C 
BRANCH  32  33
HETATM   33  C   UNL     1     -23.235  -9.622   0.090  1.00  0.00     0.000 C 
BRANCH  33  34
HETATM   34  C   UNL     1     -24.168 -10.802  -0.186  1.00  0.00    -0.000 C 
BRANCH  34  35
HETATM   35  C   UNL     1     -23.379 -12.089  -0.426  1.00  0.00    -0.005 C 
HETATM   36  C   UNL     1     -23.091 -12.808   0.882  1.00  0.00     0.005 C 
ENDBRANCH  34  35
ENDBRANCH  33  34
ENDBRANCH  32  33
ENDBRANCH  31  32
ENDBRANCH  30  31
ENDBRANCH  29  30
ENDBRANCH  28  29
ENDBRANCH  26  28
ENDBRANCH   1  26
BRANCH   1  37
HETATM   37  O   UNL     1     -21.416  -7.353  -6.526  1.00  0.00    -0.379 OA
HETATM   38  H   UNL     1     -20.757  -7.781  -7.111  1.00  0.00     0.211 HD
ENDBRANCH   1  37
TORSDOF 30
ENDMDL
MODEL 5
REMARK VINA RESULT:      -5.9      2.315      8.428
REMARK  30 active torsions:
REMARK  status: ('A' for Active; 'I' for Inactive)
REMARK    1  A    between atoms: C_2  and  C_3 
REMARK    2  A    between atoms: C_3  and  C_4 
REMARK    3  A    between atoms: C_4  and  C_5 
REMARK    4  A    between atoms: C_5  and  C_6 
REMARK    5  A    between atoms: C_6  and  C_7 
REMARK    6  A    between atoms: C_7  and  C_8 
REMARK    7  A    between atoms: C_8  and  O_9 
REMARK    8  A    between atoms: O_9  and  C_10 
REMARK    9  A    between atoms: C_10  and  C_12 
REMARK   10  A    between atoms: C_12  and  C_13 
REMARK   11  A    between atoms: C_13  and  C_14 
REMARK   12  A    between atoms: C_13  and  C_26 
REMARK   13  A    between atoms: C_13  and  O_37 
REMARK   14  A    between atoms: C_14  and  C_15 
REMARK   15  A    between atoms: C_15  and  O_17 
REMARK   16  A    between atoms: O_17  and  C_18 
REMARK   17  A    between atoms: C_18  and  C_19 
REMARK   18  A    between atoms: C_19  and  C_20 
REMARK   19  A    between atoms: C_20  and  C_21 
REMARK   20  A    between atoms: C_21  and  C_22 
REMARK   21  A    between atoms: C_22  and  C_23 
REMARK   22  A    between atoms: C_23  and  C_24 
REMARK   23  A    between atoms: C_26  and  O_28 
REMARK   24  A    between atoms: O_28  and  C_29 
REMARK   25  A    between atoms: C_29  and  C_30 
REMARK   26  A    between atoms: C_30  and  C_31 
REMARK   27  A    between atoms: C_31  and  C_32 
REMARK   28  A    between atoms: C_32  and  C_33 
REMARK   29  A    between atoms: C_33  and  C_34 
REMARK   30  A    between atoms: C_34  and  C_35 
ROOT
HETATM    1  C   UNL     1     -21.113  -7.570  -4.882  1.00  0.00     0.162 C 
ENDROOT
BRANCH   1   2
HETATM    2  C   UNL     1     -20.905  -9.044  -5.283  1.00  0.00     0.160 C 
BRANCH   2   3
HETATM    3  C   UNL     1     -20.943  -9.983  -4.109  1.00  0.00     0.262 C 
HETATM    4  O   UNL     1     -21.920 -10.162  -3.398  1.00  0.00    -0.265 OA
BRANCH   3   5
HETATM    5  O   UNL     1     -19.725 -10.569  -3.918  1.00  0.00    -0.321 OA
BRANCH   5   6
HETATM    6  C   UNL     1     -19.136 -10.187  -2.676  1.00  0.00     0.178 C 
BRANCH   6   7
HETATM    7  C   UNL     1     -17.680  -9.809  -2.843  1.00  0.00     0.027 C 
BRANCH   7   8
HETATM    8  C   UNL     1     -17.369  -9.641  -4.326  1.00  0.00     0.002 C 
BRANCH   8   9
HETATM    9  C   UNL     1     -15.881  -9.808  -4.585  1.00  0.00     0.000 C 
BRANCH   9  10
HETATM   10  C   UNL     1     -15.628 -10.798  -5.717  1.00  0.00     0.000 C 
BRANCH  10  11
HETATM   11  C   UNL     1     -15.198 -12.146  -5.151  1.00  0.00    -0.000 C 
BRANCH  11  12
HETATM   12  C   UNL     1     -13.680 -12.293  -5.155  1.00  0.00    -0.005 C 
HETATM   13  C   UNL     1     -13.184 -12.723  -6.525  1.00  0.00     0.005 C 
ENDBRANCH  11  12
ENDBRANCH  10  11
ENDBRANCH   9  10
ENDBRANCH   8   9
ENDBRANCH   7   8
ENDBRANCH   6   7
ENDBRANCH   5   6
ENDBRANCH   3   5
ENDBRANCH   2   3
ENDBRANCH   1   2
BRANCH   1  14
HETATM   14  C   UNL     1     -20.420  -7.116  -3.593  1.00  0.00     0.160 C 
BRANCH  14  15
HETATM   15  C   UNL     1     -21.440  -6.682  -2.577  1.00  0.00     0.262 C 
HETATM   16  O   UNL     1     -22.049  -5.634  -2.648  1.00  0.00    -0.265 OA
BRANCH  15  17
HETATM   17  O   UNL     1     -21.486  -7.549  -1.526  1.00  0.00    -0.321 OA
BRANCH  17  18
HETATM   18  C   UNL     1     -22.536  -7.253  -0.592  1.00  0.00     0.178 C 
BRANCH  18  19
HETATM   19  C   UNL     1     -22.521  -8.226   0.580  1.00  0.00     0.027 C 
BRANCH  19  20
HETATM   20  C   UNL     1     -21.090  -8.504   1.047  1.00  0.00     0.002 C 
BRANCH  20  21
HETATM   21  C   UNL     1     -20.840 -10.003   1.198  1.00  0.00     0.000 C 
BRANCH  21  22
HETATM   22  C   UNL     1     -21.473 -10.793   0.052  1.00  0.00     0.000 C 
BRANCH  22  23
HETATM   23  C   UNL     1     -21.955 -12.161   0.532  1.00  0.00    -0.000 C 
BRANCH  23  24
HETATM   24  C   UNL     1     -23.475 -12.278   0.450  1.00  0.00    -0.005 C 
HETATM   25  C   UNL     1     -24.042 -11.312  -0.576  1.00  0.00     0.005 C 
ENDBRANCH  23  24
ENDBRANCH  22  23
ENDBRANCH  21  22
ENDBRANCH  20  21
ENDBRANCH  19  20
ENDBRANCH  18  19
ENDBRANCH  17  18
ENDBRANCH  15  17
ENDBRANCH  14  15
ENDBRANCH   1  14
BRANCH   1  26
HETATM   26  C   UNL     1     -20.697  -6.633  -6.042  1.00  0.00     0.294 C 
HETATM   27  O   UNL     1     -19.769  -6.837  -6.805  1.00  0.00    -0.262 OA
BRANCH  26  28
HETATM   28  O   UNL     1     -21.434  -5.479  -6.009  1.00  0.00    -0.319 OA
BRANCH  28  29
HETATM   29  C   UNL     1     -20.817  -4.322  -6.599  1.00  0.00     0.178 C 
BRANCH  29  30
HETATM   30  C   UNL     1     -21.724  -3.741  -7.679  1.00  0.00     0.027 C 
BRANCH  30  31
HETATM   31  C   UNL     1     -21.709  -4.594  -8.946  1.00  0.00     0.002 C 
BRANCH  31  32
HETATM   32  C   UNL     1     -20.364  -4.512  -9.672  1.00  0.00     0.000 C 
BRANCH  32  33
HETATM   33  C   UNL     1     -20.473  -3.640 -10.925  1.00  0.00     0.000 C 
BRANCH  33  34
HETATM   34  C   UNL     1     -21.691  -4.022 -11.766  1.00  0.00    -0.000 C 
BRANCH  34  35
HETATM   35  C   UNL     1     -22.530  -2.794 -12.118  1.00  0.00    -0.005 C 
HETATM   36  C   UNL     1     -22.959  -2.822 -13.576  1.00  0.00     0.005 C 
ENDBRANCH  34  35
ENDBRANCH  33  34
ENDBRANCH  32  33
ENDBRANCH  31  32
ENDBRANCH  30  31
ENDBRANCH  29  30
ENDBRANCH  28  29
ENDBRANCH  26  28
ENDBRANCH   1  26
BRANCH   1  37
HETATM   37  O   UNL     1     -22.527  -7.356  -4.705  1.00  0.00    -0.379 OA
HETATM   38  H   UNL     1     -22.911  -8.135  -4.252  1.00  0.00     0.211 HD
ENDBRANCH   1  37
TORSDOF 30
ENDMDL
MODEL 6
REMARK VINA RESULT:      -5.8      1.861      9.297
REMARK  30 active torsions:
REMARK  status: ('A' for Active; 'I' for Inactive)
REMARK    1  A    between atoms: C_2  and  C_3 
REMARK    2  A    between atoms: C_3  and  C_4 
REMARK    3  A    between atoms: C_4  and  C_5 
REMARK    4  A    between atoms: C_5  and  C_6 
REMARK    5  A    between atoms: C_6  and  C_7 
REMARK    6  A    between atoms: C_7  and  C_8 
REMARK    7  A    between atoms: C_8  and  O_9 
REMARK    8  A    between atoms: O_9  and  C_10 
REMARK    9  A    between atoms: C_10  and  C_12 
REMARK   10  A    between atoms: C_12  and  C_13 
REMARK   11  A    between atoms: C_13  and  C_14 
REMARK   12  A    between atoms: C_13  and  C_26 
REMARK   13  A    between atoms: C_13  and  O_37 
REMARK   14  A    between atoms: C_14  and  C_15 
REMARK   15  A    between atoms: C_15  and  O_17 
REMARK   16  A    between atoms: O_17  and  C_18 
REMARK   17  A    between atoms: C_18  and  C_19 
REMARK   18  A    between atoms: C_19  and  C_20 
REMARK   19  A    between atoms: C_20  and  C_21 
REMARK   20  A    between atoms: C_21  and  C_22 
REMARK   21  A    between atoms: C_22  and  C_23 
REMARK   22  A    between atoms: C_23  and  C_24 
REMARK   23  A    between atoms: C_26  and  O_28 
REMARK   24  A    between atoms: O_28  and  C_29 
REMARK   25  A    between atoms: C_29  and  C_30 
REMARK   26  A    between atoms: C_30  and  C_31 
REMARK   27  A    between atoms: C_31  and  C_32 
REMARK   28  A    between atoms: C_32  and  C_33 
REMARK   29  A    between atoms: C_33  and  C_34 
REMARK   30  A    between atoms: C_34  and  C_35 
ROOT
HETATM    1  C   UNL     1     -21.081  -7.112  -4.813  1.00  0.00     0.162 C 
ENDROOT
BRANCH   1   2
HETATM    2  C   UNL     1     -20.635  -6.392  -3.525  1.00  0.00     0.160 C 
BRANCH   2   3
HETATM    3  C   UNL     1     -21.648  -6.490  -2.417  1.00  0.00     0.262 C 
HETATM    4  O   UNL     1     -22.663  -5.815  -2.346  1.00  0.00    -0.265 OA
BRANCH   3   5
HETATM    5  O   UNL     1     -21.253  -7.401  -1.480  1.00  0.00    -0.321 OA
BRANCH   5   6
HETATM    6  C   UNL     1     -22.308  -7.733  -0.578  1.00  0.00     0.178 C 
BRANCH   6   7
HETATM    7  C   UNL     1     -21.821  -8.619   0.547  1.00  0.00     0.027 C 
BRANCH   7   8
HETATM    8  C   UNL     1     -21.785 -10.067   0.070  1.00  0.00     0.002 C 
BRANCH   8   9
HETATM    9  C   UNL     1     -22.603 -10.237  -1.198  1.00  0.00     0.000 C 
BRANCH   9  10
HETATM   10  C   UNL     1     -23.812 -11.134  -0.957  1.00  0.00     0.000 C 
BRANCH  10  11
HETATM   11  C   UNL     1     -23.747 -11.738   0.441  1.00  0.00    -0.000 C 
BRANCH  11  12
HETATM   12  C   UNL     1     -23.362 -13.213   0.391  1.00  0.00    -0.005 C 
HETATM   13  C   UNL     1     -22.373 -13.550   1.493  1.00  0.00     0.005 C 
ENDBRANCH  11  12
ENDBRANCH  10  11
ENDBRANCH   9  10
ENDBRANCH   8   9
ENDBRANCH   7   8
ENDBRANCH   6   7
ENDBRANCH   5   6
ENDBRANCH   3   5
ENDBRANCH   2   3
ENDBRANCH   1   2
BRANCH   1  14
HETATM   14  C   UNL     1     -21.858  -8.419  -4.623  1.00  0.00     0.160 C 
BRANCH  14  15
HETATM   15  C   UNL     1     -20.981  -9.599  -4.940  1.00  0.00     0.262 C 
HETATM   16  O   UNL     1     -21.013 -10.189  -6.000  1.00  0.00    -0.265 OA
BRANCH  15  17
HETATM   17  O   UNL     1     -20.258  -9.979  -3.849  1.00  0.00    -0.321 OA
BRANCH  17  18
HETATM   18  C   UNL     1     -19.059 -10.696  -4.185  1.00  0.00     0.178 C 
BRANCH  18  19
HETATM   19  C   UNL     1     -17.865  -9.756  -4.285  1.00  0.00     0.027 C 
BRANCH  19  20
HETATM   20  C   UNL     1     -17.314  -9.415  -2.899  1.00  0.00     0.002 C 
BRANCH  20  21
HETATM   21  C   UNL     1     -15.873  -9.899  -2.743  1.00  0.00     0.000 C 
BRANCH  21  22
HETATM   22  C   UNL     1     -15.818 -11.301  -2.135  1.00  0.00     0.000 C 
BRANCH  22  23
HETATM   23  C   UNL     1     -14.894 -12.211  -2.943  1.00  0.00    -0.000 C 
BRANCH  23  24
HETATM   24  C   UNL     1     -14.991 -11.919  -4.438  1.00  0.00    -0.005 C 
HETATM   25  C   UNL     1     -13.657 -12.151  -5.127  1.00  0.00     0.005 C 
ENDBRANCH  23  24
ENDBRANCH  22  23
ENDBRANCH  21  22
ENDBRANCH  20  21
ENDBRANCH  19  20
ENDBRANCH  18  19
ENDBRANCH  17  18
ENDBRANCH  15  17
ENDBRANCH  14  15
ENDBRANCH   1  14
BRANCH   1  26
HETATM   26  C   UNL     1     -21.906  -6.154  -5.706  1.00  0.00     0.294 C 
HETATM   27  O   UNL     1     -23.075  -5.862  -5.523  1.00  0.00    -0.262 OA
BRANCH  26  28
HETATM   28  O   UNL     1     -21.179  -5.784  -6.806  1.00  0.00    -0.319 OA
BRANCH  28  29
HETATM   29  C   UNL     1     -20.907  -4.378  -6.937  1.00  0.00     0.178 C 
BRANCH  29  30
HETATM   30  C   UNL     1     -20.222  -4.101  -8.271  1.00  0.00     0.027 C 
BRANCH  30  31
HETATM   31  C   UNL     1     -21.141  -4.409  -9.452  1.00  0.00     0.002 C 
BRANCH  31  32
HETATM   32  C   UNL     1     -20.587  -3.853 -10.765  1.00  0.00     0.000 C 
BRANCH  32  33
HETATM   33  C   UNL     1     -21.708  -3.651 -11.787  1.00  0.00     0.000 C 
BRANCH  33  34
HETATM   34  C   UNL     1     -22.999  -4.338 -11.342  1.00  0.00    -0.000 C 
BRANCH  34  35
HETATM   35  C   UNL     1     -24.144  -3.333 -11.205  1.00  0.00    -0.005 C 
HETATM   36  C   UNL     1     -24.707  -3.334  -9.793  1.00  0.00     0.005 C 
ENDBRANCH  34  35
ENDBRANCH  33  34
ENDBRANCH  32  33
ENDBRANCH  31  32
ENDBRANCH  30  31
ENDBRANCH  29  30
ENDBRANCH  28  29
ENDBRANCH  26  28
ENDBRANCH   1  26
BRANCH   1  37
HETATM   37  O   UNL     1     -19.900  -7.424  -5.576  1.00  0.00    -0.379 OA
HETATM   38  H   UNL     1     -19.161  -6.866  -5.260  1.00  0.00     0.211 HD
ENDBRANCH   1  37
TORSDOF 30
ENDMDL
MODEL 7
REMARK VINA RESULT:      -5.8      1.704      8.338
REMARK  30 active torsions:
REMARK  status: ('A' for Active; 'I' for Inactive)
REMARK    1  A    between atoms: C_2  and  C_3 
REMARK    2  A    between atoms: C_3  and  C_4 
REMARK    3  A    between atoms: C_4  and  C_5 
REMARK    4  A    between atoms: C_5  and  C_6 
REMARK    5  A    between atoms: C_6  and  C_7 
REMARK    6  A    between atoms: C_7  and  C_8 
REMARK    7  A    between atoms: C_8  and  O_9 
REMARK    8  A    between atoms: O_9  and  C_10 
REMARK    9  A    between atoms: C_10  and  C_12 
REMARK   10  A    between atoms: C_12  and  C_13 
REMARK   11  A    between atoms: C_13  and  C_14 
REMARK   12  A    between atoms: C_13  and  C_26 
REMARK   13  A    between atoms: C_13  and  O_37 
REMARK   14  A    between atoms: C_14  and  C_15 
REMARK   15  A    between atoms: C_15  and  O_17 
REMARK   16  A    between atoms: O_17  and  C_18 
REMARK   17  A    between atoms: C_18  and  C_19 
REMARK   18  A    between atoms: C_19  and  C_20 
REMARK   19  A    between atoms: C_20  and  C_21 
REMARK   20  A    between atoms: C_21  and  C_22 
REMARK   21  A    between atoms: C_22  and  C_23 
REMARK   22  A    between atoms: C_23  and  C_24 
REMARK   23  A    between atoms: C_26  and  O_28 
REMARK   24  A    between atoms: O_28  and  C_29 
REMARK   25  A    between atoms: C_29  and  C_30 
REMARK   26  A    between atoms: C_30  and  C_31 
REMARK   27  A    between atoms: C_31  and  C_32 
REMARK   28  A    between atoms: C_32  and  C_33 
REMARK   29  A    between atoms: C_33  and  C_34 
REMARK   30  A    between atoms: C_34  and  C_35 
ROOT
HETATM    1  C   UNL     1     -20.666  -7.396  -4.789  1.00  0.00     0.162 C 
ENDROOT
BRANCH   1   2
HETATM    2  C   UNL     1     -19.608  -8.476  -4.487  1.00  0.00     0.160 C 
BRANCH   2   3
HETATM    3  C   UNL     1     -20.010  -9.842  -4.971  1.00  0.00     0.262 C 
HETATM    4  O   UNL     1     -20.866 -10.538  -4.446  1.00  0.00    -0.265 OA
BRANCH   3   5
HETATM    5  O   UNL     1     -19.255 -10.217  -6.045  1.00  0.00    -0.321 OA
BRANCH   5   6
HETATM    6  C   UNL     1     -17.882  -9.868  -5.883  1.00  0.00     0.178 C 
BRANCH   6   7
HETATM    7  C   UNL     1     -16.986 -11.085  -5.948  1.00  0.00     0.027 C 
BRANCH   7   8
HETATM    8  C   UNL     1     -15.896 -10.968  -4.887  1.00  0.00     0.002 C 
BRANCH   8   9
HETATM    9  C   UNL     1     -16.068  -9.694  -4.079  1.00  0.00     0.000 C 
BRANCH   9  10
HETATM   10  C   UNL     1     -16.159  -9.997  -2.587  1.00  0.00     0.000 C 
BRANCH  10  11
HETATM   11  C   UNL     1     -17.547 -10.526  -2.243  1.00  0.00    -0.000 C 
BRANCH  11  12
HETATM   12  C   UNL     1     -17.471 -11.686  -1.256  1.00  0.00    -0.005 C 
HETATM   13  C   UNL     1     -17.227 -12.997  -1.982  1.00  0.00     0.005 C 
ENDBRANCH  11  12
ENDBRANCH  10  11
ENDBRANCH   9  10
ENDBRANCH   8   9
ENDBRANCH   7   8
ENDBRANCH   6   7
ENDBRANCH   5   6
ENDBRANCH   3   5
ENDBRANCH   2   3
ENDBRANCH   1   2
BRANCH   1  14
HETATM   14  C   UNL     1     -20.820  -6.290  -3.739  1.00  0.00     0.160 C 
BRANCH  14  15
HETATM   15  C   UNL     1     -21.853  -6.678  -2.719  1.00  0.00     0.262 C 
HETATM   16  O   UNL     1     -22.706  -5.917  -2.309  1.00  0.00    -0.265 OA
BRANCH  15  17
HETATM   17  O   UNL     1     -21.621  -7.932  -2.237  1.00  0.00    -0.321 OA
BRANCH  17  18
HETATM   18  C   UNL     1     -20.865  -7.940  -1.015  1.00  0.00     0.178 C 
BRANCH  18  19
HETATM   19  C   UNL     1     -21.765  -8.193   0.186  1.00  0.00     0.027 C 
BRANCH  19  20
HETATM   20  C   UNL     1     -21.041  -9.013   1.256  1.00  0.00     0.002 C 
BRANCH  20  21
HETATM   21  C   UNL     1     -20.490 -10.314   0.674  1.00  0.00     0.000 C 
BRANCH  21  22
HETATM   22  C   UNL     1     -21.600 -11.341   0.451  1.00  0.00     0.000 C 
BRANCH  22  23
HETATM   23  C   UNL     1     -21.839 -11.571  -1.041  1.00  0.00    -0.000 C 
BRANCH  23  24
HETATM   24  C   UNL     1     -23.321 -11.465  -1.391  1.00  0.00    -0.005 C 
HETATM   25  C   UNL     1     -24.131 -10.983  -0.199  1.00  0.00     0.005 C 
ENDBRANCH  23  24
ENDBRANCH  22  23
ENDBRANCH  21  22
ENDBRANCH  20  21
ENDBRANCH  19  20
ENDBRANCH  18  19
ENDBRANCH  17  18
ENDBRANCH  15  17
ENDBRANCH  14  15
ENDBRANCH   1  14
BRANCH   1  26
HETATM   26  C   UNL     1     -20.400  -6.753  -6.171  1.00  0.00     0.294 C 
HETATM   27  O   UNL     1     -19.362  -6.858  -6.802  1.00  0.00    -0.262 OA
BRANCH  26  28
HETATM   28  O   UNL     1     -21.445  -5.942  -6.528  1.00  0.00    -0.319 OA
BRANCH  28  29
HETATM   29  C   UNL     1     -21.290  -5.224  -7.764  1.00  0.00     0.178 C 
BRANCH  29  30
HETATM   30  C   UNL     1     -22.161  -3.972  -7.752  1.00  0.00     0.027 C 
BRANCH  30  31
HETATM   31  C   UNL     1     -23.587  -4.274  -8.213  1.00  0.00     0.002 C 
BRANCH  31  32
HETATM   32  C   UNL     1     -23.958  -3.484  -9.469  1.00  0.00     0.000 C 
BRANCH  32  33
HETATM   33  C   UNL     1     -23.520  -4.229 -10.732  1.00  0.00     0.000 C 
BRANCH  33  34
HETATM   34  C   UNL     1     -23.017  -3.263 -11.804  1.00  0.00    -0.000 C 
BRANCH  34  35
HETATM   35  C   UNL     1     -21.568  -2.850 -11.544  1.00  0.00    -0.005 C 
HETATM   36  C   UNL     1     -20.696  -4.061 -11.254  1.00  0.00     0.005 C 
ENDBRANCH  34  35
ENDBRANCH  33  34
ENDBRANCH  32  33
ENDBRANCH  31  32
ENDBRANCH  30  31
ENDBRANCH  29  30
ENDBRANCH  28  29
ENDBRANCH  26  28
ENDBRANCH   1  26
BRANCH   1  37
HETATM   37  O   UNL     1     -21.943  -8.050  -4.909  1.00  0.00    -0.379 OA
HETATM   38  H   UNL     1     -21.842  -8.993  -4.664  1.00  0.00     0.211 HD
ENDBRANCH   1  37
TORSDOF 30
ENDMDL
MODEL 8
REMARK VINA RESULT:      -5.7      1.555      4.041
REMARK  30 active torsions:
REMARK  status: ('A' for Active; 'I' for Inactive)
REMARK    1  A    between atoms: C_2  and  C_3 
REMARK    2  A    between atoms: C_3  and  C_4 
REMARK    3  A    between atoms: C_4  and  C_5 
REMARK    4  A    between atoms: C_5  and  C_6 
REMARK    5  A    between atoms: C_6  and  C_7 
REMARK    6  A    between atoms: C_7  and  C_8 
REMARK    7  A    between atoms: C_8  and  O_9 
REMARK    8  A    between atoms: O_9  and  C_10 
REMARK    9  A    between atoms: C_10  and  C_12 
REMARK   10  A    between atoms: C_12  and  C_13 
REMARK   11  A    between atoms: C_13  and  C_14 
REMARK   12  A    between atoms: C_13  and  C_26 
REMARK   13  A    between atoms: C_13  and  O_37 
REMARK   14  A    between atoms: C_14  and  C_15 
REMARK   15  A    between atoms: C_15  and  O_17 
REMARK   16  A    between atoms: O_17  and  C_18 
REMARK   17  A    between atoms: C_18  and  C_19 
REMARK   18  A    between atoms: C_19  and  C_20 
REMARK   19  A    between atoms: C_20  and  C_21 
REMARK   20  A    between atoms: C_21  and  C_22 
REMARK   21  A    between atoms: C_22  and  C_23 
REMARK   22  A    between atoms: C_23  and  C_24 
REMARK   23  A    between atoms: C_26  and  O_28 
REMARK   24  A    between atoms: O_28  and  C_29 
REMARK   25  A    between atoms: C_29  and  C_30 
REMARK   26  A    between atoms: C_30  and  C_31 
REMARK   27  A    between atoms: C_31  and  C_32 
REMARK   28  A    between atoms: C_32  and  C_33 
REMARK   29  A    between atoms: C_33  and  C_34 
REMARK   30  A    between atoms: C_34  and  C_35 
ROOT
HETATM    1  C   UNL     1     -21.159  -7.284  -3.944  1.00  0.00     0.162 C 
ENDROOT
BRANCH   1   2
HETATM    2  C   UNL     1     -20.720  -6.060  -4.773  1.00  0.00     0.160 C 
BRANCH   2   3
HETATM    3  C   UNL     1     -21.565  -5.849  -5.999  1.00  0.00     0.262 C 
HETATM    4  O   UNL     1     -22.681  -5.352  -5.994  1.00  0.00    -0.265 OA
BRANCH   3   5
HETATM    5  O   UNL     1     -20.936  -6.333  -7.110  1.00  0.00    -0.321 OA
BRANCH   5   6
HETATM    6  C   UNL     1     -19.668  -5.713  -7.320  1.00  0.00     0.178 C 
BRANCH   6   7
HETATM    7  C   UNL     1     -19.790  -4.470  -8.173  1.00  0.00     0.027 C 
BRANCH   7   8
HETATM    8  C   UNL     1     -20.836  -4.703  -9.259  1.00  0.00     0.002 C 
BRANCH   8   9
HETATM    9  C   UNL     1     -20.275  -4.357 -10.628  1.00  0.00     0.000 C 
BRANCH   9  10
HETATM   10  C   UNL     1     -21.364  -3.813 -11.547  1.00  0.00     0.000 C 
BRANCH  10  11
HETATM   11  C   UNL     1     -22.715  -4.411 -11.171  1.00  0.00    -0.000 C 
BRANCH  11  12
HETATM   12  C   UNL     1     -23.780  -3.330 -11.023  1.00  0.00    -0.005 C 
HETATM   13  C   UNL     1     -24.454  -3.418  -9.665  1.00  0.00     0.005 C 
ENDBRANCH  11  12
ENDBRANCH  10  11
ENDBRANCH   9  10
ENDBRANCH   8   9
ENDBRANCH   7   8
ENDBRANCH   6   7
ENDBRANCH   5   6
ENDBRANCH   3   5
ENDBRANCH   2   3
ENDBRANCH   1   2
BRANCH   1  14
HETATM   14  C   UNL     1     -20.065  -8.307  -3.619  1.00  0.00     0.160 C 
BRANCH  14  15
HETATM   15  C   UNL     1     -20.380  -9.629  -4.263  1.00  0.00     0.262 C 
HETATM   16  O   UNL     1     -20.947 -10.535  -3.686  1.00  0.00    -0.265 OA
BRANCH  15  17
HETATM   17  O   UNL     1     -19.836  -9.710  -5.510  1.00  0.00    -0.321 OA
BRANCH  17  18
HETATM   18  C   UNL     1     -18.481  -9.238  -5.570  1.00  0.00     0.178 C 
BRANCH  18  19
HETATM   19  C   UNL     1     -17.498 -10.335  -5.184  1.00  0.00     0.027 C 
BRANCH  19  20
HETATM   20  C   UNL     1     -16.278  -9.756  -4.465  1.00  0.00     0.002 C 
BRANCH  20  21
HETATM   21  C   UNL     1     -16.519  -9.654  -2.960  1.00  0.00     0.000 C 
BRANCH  21  22
HETATM   22  C   UNL     1     -15.561 -10.553  -2.178  1.00  0.00     0.000 C 
BRANCH  22  23
HETATM   23  C   UNL     1     -16.222 -11.886  -1.832  1.00  0.00    -0.000 C 
BRANCH  23  24
HETATM   24  C   UNL     1     -15.854 -12.970  -2.841  1.00  0.00    -0.005 C 
HETATM   25  C   UNL     1     -14.347 -13.073  -3.006  1.00  0.00     0.005 C 
ENDBRANCH  23  24
ENDBRANCH  22  23
ENDBRANCH  21  22
ENDBRANCH  20  21
ENDBRANCH  19  20
ENDBRANCH  18  19
ENDBRANCH  17  18
ENDBRANCH  15  17
ENDBRANCH  14  15
ENDBRANCH   1  14
BRANCH   1  26
HETATM   26  C   UNL     1     -21.836  -6.827  -2.629  1.00  0.00     0.294 C 
HETATM   27  O   UNL     1     -22.256  -5.704  -2.413  1.00  0.00    -0.262 OA
BRANCH  26  28
HETATM   28  O   UNL     1     -21.779  -7.826  -1.693  1.00  0.00    -0.319 OA
BRANCH  28  29
HETATM   29  C   UNL     1     -22.175  -7.462  -0.359  1.00  0.00     0.178 C 
BRANCH  29  30
HETATM   30  C   UNL     1     -21.832  -8.586   0.612  1.00  0.00     0.027 C 
BRANCH  30  31
HETATM   31  C   UNL     1     -21.762  -9.939  -0.094  1.00  0.00     0.002 C 
BRANCH  31  32
HETATM   32  C   UNL     1     -23.149 -10.560  -0.274  1.00  0.00     0.000 C 
BRANCH  32  33
HETATM   33  C   UNL     1     -23.045 -11.959  -0.886  1.00  0.00     0.000 C 
BRANCH  33  34
HETATM   34  C   UNL     1     -23.809 -12.989  -0.054  1.00  0.00    -0.000 C 
BRANCH  34  35
HETATM   35  C   UNL     1     -22.857 -13.852   0.774  1.00  0.00    -0.005 C 
HETATM   36  C   UNL     1     -23.325 -13.955   2.217  1.00  0.00     0.005 C 
ENDBRANCH  34  35
ENDBRANCH  33  34
ENDBRANCH  32  33
ENDBRANCH  31  32
ENDBRANCH  30  31
ENDBRANCH  29  30
ENDBRANCH  28  29
ENDBRANCH  26  28
ENDBRANCH   1  26
BRANCH   1  37
HETATM   37  O   UNL     1     -22.183  -7.974  -4.684  1.00  0.00    -0.379 OA
HETATM   38  H   UNL     1     -21.913  -8.908  -4.805  1.00  0.00     0.211 HD
ENDBRANCH   1  37
TORSDOF 30
ENDMDL
MODEL 9
REMARK VINA RESULT:      -5.7      2.459      5.016
REMARK  30 active torsions:
REMARK  status: ('A' for Active; 'I' for Inactive)
REMARK    1  A    between atoms: C_2  and  C_3 
REMARK    2  A    between atoms: C_3  and  C_4 
REMARK    3  A    between atoms: C_4  and  C_5 
REMARK    4  A    between atoms: C_5  and  C_6 
REMARK    5  A    between atoms: C_6  and  C_7 
REMARK    6  A    between atoms: C_7  and  C_8 
REMARK    7  A    between atoms: C_8  and  O_9 
REMARK    8  A    between atoms: O_9  and  C_10 
REMARK    9  A    between atoms: C_10  and  C_12 
REMARK   10  A    between atoms: C_12  and  C_13 
REMARK   11  A    between atoms: C_13  and  C_14 
REMARK   12  A    between atoms: C_13  and  C_26 
REMARK   13  A    between atoms: C_13  and  O_37 
REMARK   14  A    between atoms: C_14  and  C_15 
REMARK   15  A    between atoms: C_15  and  O_17 
REMARK   16  A    between atoms: O_17  and  C_18 
REMARK   17  A    between atoms: C_18  and  C_19 
REMARK   18  A    between atoms: C_19  and  C_20 
REMARK   19  A    between atoms: C_20  and  C_21 
REMARK   20  A    between atoms: C_21  and  C_22 
REMARK   21  A    between atoms: C_22  and  C_23 
REMARK   22  A    between atoms: C_23  and  C_24 
REMARK   23  A    between atoms: C_26  and  O_28 
REMARK   24  A    between atoms: O_28  and  C_29 
REMARK   25  A    between atoms: C_29  and  C_30 
REMARK   26  A    between atoms: C_30  and  C_31 
REMARK   27  A    between atoms: C_31  and  C_32 
REMARK   28  A    between atoms: C_32  and  C_33 
REMARK   29  A    between atoms: C_33  and  C_34 
REMARK   30  A    between atoms: C_34  and  C_35 
ROOT
HETATM    1  C   UNL     1     -21.242  -7.662  -2.514  1.00  0.00     0.162 C 
ENDROOT
BRANCH   1   2
HETATM    2  C   UNL     1     -21.352  -6.218  -3.040  1.00  0.00     0.160 C 
BRANCH   2   3
HETATM    3  C   UNL     1     -21.613  -6.150  -4.520  1.00  0.00     0.262 C 
HETATM    4  O   UNL     1     -22.725  -6.156  -5.028  1.00  0.00    -0.265 OA
BRANCH   3   5
HETATM    5  O   UNL     1     -20.441  -6.132  -5.219  1.00  0.00    -0.321 OA
BRANCH   5   6
HETATM    6  C   UNL     1     -20.106  -4.820  -5.670  1.00  0.00     0.178 C 
BRANCH   6   7
HETATM    7  C   UNL     1     -19.493  -4.846  -7.052  1.00  0.00     0.027 C 
BRANCH   7   8
HETATM    8  C   UNL     1     -20.597  -4.725  -8.097  1.00  0.00     0.002 C 
BRANCH   8   9
HETATM    9  C   UNL     1     -21.717  -3.831  -7.594  1.00  0.00     0.000 C 
BRANCH   9  10
HETATM   10  C   UNL     1     -22.940  -3.918  -8.501  1.00  0.00     0.000 C 
BRANCH  10  11
HETATM   11  C   UNL     1     -22.573  -4.601  -9.813  1.00  0.00    -0.000 C 
BRANCH  11  12
HETATM   12  C   UNL     1     -22.731  -3.652 -10.997  1.00  0.00    -0.005 C 
HETATM   13  C   UNL     1     -21.382  -3.118 -11.446  1.00  0.00     0.005 C 
ENDBRANCH  11  12
ENDBRANCH  10  11
ENDBRANCH   9  10
ENDBRANCH   8   9
ENDBRANCH   7   8
ENDBRANCH   6   7
ENDBRANCH   5   6
ENDBRANCH   3   5
ENDBRANCH   2   3
ENDBRANCH   1   2
BRANCH   1  14
HETATM   14  C   UNL     1     -19.841  -8.125  -2.098  1.00  0.00     0.160 C 
BRANCH  14  15
HETATM   15  C   UNL     1     -19.320  -9.148  -3.069  1.00  0.00     0.262 C 
HETATM   16  O   UNL     1     -18.928  -8.870  -4.185  1.00  0.00    -0.265 OA
BRANCH  15  17
HETATM   17  O   UNL     1     -19.468 -10.411  -2.579  1.00  0.00    -0.321 OA
BRANCH  17  18
HETATM   18  C   UNL     1     -18.353 -11.268  -2.874  1.00  0.00     0.178 C 
BRANCH  18  19
HETATM   19  C   UNL     1     -17.253 -11.119  -1.831  1.00  0.00     0.027 C 
BRANCH  19  20
HETATM   20  C   UNL     1     -16.032 -10.404  -2.415  1.00  0.00     0.002 C 
BRANCH  20  21
HETATM   21  C   UNL     1     -15.445 -11.184  -3.590  1.00  0.00     0.000 C 
BRANCH  21  22
HETATM   22  C   UNL     1     -14.679 -12.419  -3.114  1.00  0.00     0.000 C 
BRANCH  22  23
HETATM   23  C   UNL     1     -13.524 -12.744  -4.059  1.00  0.00    -0.000 C 
BRANCH  23  24
HETATM   24  C   UNL     1     -13.726 -12.101  -5.429  1.00  0.00    -0.005 C 
HETATM   25  C   UNL     1     -13.092 -12.941  -6.525  1.00  0.00     0.005 C 
ENDBRANCH  23  24
ENDBRANCH  22  23
ENDBRANCH  21  22
ENDBRANCH  20  21
ENDBRANCH  19  20
ENDBRANCH  18  19
ENDBRANCH  17  18
ENDBRANCH  15  17
ENDBRANCH  14  15
ENDBRANCH   1  14
BRANCH   1  26
HETATM   26  C   UNL     1     -22.222  -7.881  -1.336  1.00  0.00     0.294 C 
HETATM   27  O   UNL     1     -22.691  -6.995  -0.644  1.00  0.00    -0.262 OA
BRANCH  26  28
HETATM   28  O   UNL     1     -22.385  -9.221  -1.096  1.00  0.00    -0.319 OA
BRANCH  28  29
HETATM   29  C   UNL     1     -22.298  -9.628   0.281  1.00  0.00     0.178 C 
BRANCH  29  30
HETATM   30  C   UNL     1     -21.118 -10.575   0.471  1.00  0.00     0.027 C 
BRANCH  30  31
HETATM   31  C   UNL     1     -21.528 -12.033   0.268  1.00  0.00     0.002 C 
BRANCH  31  32
HETATM   32  C   UNL     1     -22.972 -12.285   0.705  1.00  0.00     0.000 C 
BRANCH  32  33
HETATM   33  C   UNL     1     -23.215 -13.776   0.950  1.00  0.00     0.000 C 
BRANCH  33  34
HETATM   34  C   UNL     1     -23.536 -14.055   2.418  1.00  0.00    -0.000 C 
BRANCH  34  35
HETATM   35  C   UNL     1     -22.323 -14.627   3.153  1.00  0.00    -0.005 C 
HETATM   36  C   UNL     1     -22.666 -15.940   3.837  1.00  0.00     0.005 C 
ENDBRANCH  34  35
ENDBRANCH  33  34
ENDBRANCH  32  33
ENDBRANCH  31  32
ENDBRANCH  30  31
ENDBRANCH  29  30
ENDBRANCH  28  29
ENDBRANCH  26  28
ENDBRANCH   1  26
BRANCH   1  37
HETATM   37  O   UNL     1     -21.692  -8.548  -3.557  1.00  0.00    -0.379 OA
HETATM   38  H   UNL     1     -21.188  -8.357  -4.375  1.00  0.00     0.211 HD
ENDBRANCH   1  37
TORSDOF 30
ENDMDL
