MODEL 1
REMARK VINA RESULT:      -6.8      0.000      0.000
REMARK  19 active torsions:
REMARK  status: ('A' for Active; 'I' for Inactive)
REMARK    1  A    between atoms: C_2  and  C_3 
REMARK    2  A    between atoms: C_3  and  C_4 
REMARK    3  A    between atoms: C_4  and  C_5 
REMARK    4  A    between atoms: C_5  and  C_6 
REMARK    5  A    between atoms: C_6  and  C_7 
REMARK    6  A    between atoms: C_7  and  C_8 
REMARK    7  A    between atoms: C_8  and  C_9 
REMARK    8  A    between atoms: C_9  and  C_10 
REMARK    9  A    between atoms: C_10  and  C_11 
REMARK   10  A    between atoms: C_11  and  C_12 
REMARK   11  A    between atoms: C_12  and  C_13 
REMARK   12  A    between atoms: C_13  and  C_14 
REMARK   13  A    between atoms: C_14  and  C_15 
REMARK   14  A    between atoms: C_15  and  C_16 
REMARK   15  A    between atoms: C_16  and  C_17 
REMARK   16  A    between atoms: C_17  and  C_18 
REMARK       I    between atoms: C_18  and  N_20 
REMARK   17  A    between atoms: N_20  and  C_21 
REMARK   18  A    between atoms: C_21  and  C_24 
REMARK   19  A    between atoms: C_24  and  O_25 
ROOT
HETATM    1  C   UNL     1     -21.547  -6.519  -6.145  1.00  0.00     0.000 C 
ENDROOT
BRANCH   1   2
HETATM    2  C   UNL     1     -22.380  -6.480  -4.875  1.00  0.00     0.000 C 
BRANCH   2   3
HETATM    3  C   UNL     1     -21.476  -6.372  -3.659  1.00  0.00     0.000 C 
BRANCH   3   4
HETATM    4  C   UNL     1     -21.342  -7.729  -2.990  1.00  0.00     0.000 C 
BRANCH   4   5
HETATM    5  C   UNL     1     -20.989  -7.551  -1.525  1.00  0.00     0.000 C 
BRANCH   5   6
HETATM    6  C   UNL     1     -22.197  -7.041  -0.760  1.00  0.00     0.000 C 
BRANCH   6   7
HETATM    7  C   UNL     1     -22.837  -8.178   0.013  1.00  0.00     0.000 C 
BRANCH   7   8
HETATM    8  C   UNL     1     -21.769  -8.965   0.753  1.00  0.00     0.000 C 
BRANCH   8   9
HETATM    9  C   UNL     1     -21.835 -10.428   0.356  1.00  0.00     0.000 C 
BRANCH   9  10
HETATM   10  C   UNL     1     -23.127 -10.706  -0.392  1.00  0.00     0.000 C 
BRANCH  10  11
HETATM   11  C   UNL     1     -23.742 -12.008   0.096  1.00  0.00     0.000 C 
BRANCH  11  12
HETATM   12  C   UNL     1     -22.703 -12.829   0.841  1.00  0.00    -0.000 C 
BRANCH  12  13
HETATM   13  C   UNL     1     -23.354 -13.632   1.963  1.00  0.00    -0.005 C 
HETATM   14  C   UNL     1     -23.738 -15.010   1.474  1.00  0.00     0.005 C 
ENDBRANCH  12  13
ENDBRANCH  11  12
ENDBRANCH  10  11
ENDBRANCH   9  10
ENDBRANCH   8   9
ENDBRANCH   7   8
ENDBRANCH   6   7
ENDBRANCH   5   6
ENDBRANCH   4   5
ENDBRANCH   3   4
ENDBRANCH   2   3
ENDBRANCH   1   2
BRANCH   1  15
HETATM   15  C   UNL     1     -20.286  -5.688  -5.970  1.00  0.00     0.000 C 
BRANCH  15  16
HETATM   16  C   UNL     1     -19.881  -5.060  -7.296  1.00  0.00     0.009 C 
BRANCH  16  17
HETATM   17  C   UNL     1     -20.697  -3.810  -7.571  1.00  0.00     0.103 C 
BRANCH  17  18
HETATM   18  C   UNL     1     -21.450  -3.976  -8.863  1.00  0.00     0.218 C 
HETATM   19  O   UNL     1     -20.885  -4.424  -9.859  1.00  0.00    -0.274 OA
HETATM   20  N   UNL     1     -22.761  -3.565  -8.843  1.00  0.00    -0.350 N 
HETATM   21  H   UNL     1     -23.171  -3.278  -7.961  1.00  0.00     0.163 HD
BRANCH  20  22
HETATM   22  C   UNL     1     -23.650  -3.694 -10.025  1.00  0.00     0.046 C 
HETATM   23  C   UNL     1     -23.791  -5.180 -10.411  1.00  0.00     0.040 C 
HETATM   24  C   UNL     1     -25.045  -3.156  -9.647  1.00  0.00     0.040 C 
BRANCH  22  25
HETATM   25  C   UNL     1     -23.127  -2.911 -11.268  1.00  0.00     0.194 C 
BRANCH  25  26
HETATM   26  O   UNL     1     -24.166  -2.492 -12.159  1.00  0.00    -0.398 OA
HETATM   27  H   UNL     1     -23.898  -2.767 -13.052  1.00  0.00     0.209 HD
ENDBRANCH  25  26
ENDBRANCH  22  25
ENDBRANCH  20  22
ENDBRANCH  17  18
ENDBRANCH  16  17
ENDBRANCH  15  16
ENDBRANCH   1  15
TORSDOF 19
ENDMDL
MODEL 2
REMARK VINA RESULT:      -6.6      1.925      3.873
REMARK  19 active torsions:
REMARK  status: ('A' for Active; 'I' for Inactive)
REMARK    1  A    between atoms: C_2  and  C_3 
REMARK    2  A    between atoms: C_3  and  C_4 
REMARK    3  A    between atoms: C_4  and  C_5 
REMARK    4  A    between atoms: C_5  and  C_6 
REMARK    5  A    between atoms: C_6  and  C_7 
REMARK    6  A    between atoms: C_7  and  C_8 
REMARK    7  A    between atoms: C_8  and  C_9 
REMARK    8  A    between atoms: C_9  and  C_10 
REMARK    9  A    between atoms: C_10  and  C_11 
REMARK   10  A    between atoms: C_11  and  C_12 
REMARK   11  A    between atoms: C_12  and  C_13 
REMARK   12  A    between atoms: C_13  and  C_14 
REMARK   13  A    between atoms: C_14  and  C_15 
REMARK   14  A    between atoms: C_15  and  C_16 
REMARK   15  A    between atoms: C_16  and  C_17 
REMARK   16  A    between atoms: C_17  and  C_18 
REMARK       I    between atoms: C_18  and  N_20 
REMARK   17  A    between atoms: N_20  and  C_21 
REMARK   18  A    between atoms: C_21  and  C_24 
REMARK   19  A    between atoms: C_24  and  O_25 
ROOT
HETATM    1  C   UNL     1     -21.810  -6.871  -0.827  1.00  0.00     0.000 C 
ENDROOT
BRANCH   1   2
HETATM    2  C   UNL     1     -22.949  -7.610  -0.147  1.00  0.00     0.000 C 
BRANCH   2   3
HETATM    3  C   UNL     1     -22.424  -8.409   1.033  1.00  0.00     0.000 C 
BRANCH   3   4
HETATM    4  C   UNL     1     -20.991  -8.836   0.776  1.00  0.00     0.000 C 
BRANCH   4   5
HETATM    5  C   UNL     1     -20.843 -10.328   1.012  1.00  0.00     0.000 C 
BRANCH   5   6
HETATM    6  C   UNL     1     -19.957 -10.935  -0.060  1.00  0.00     0.000 C 
BRANCH   6   7
HETATM    7  C   UNL     1     -19.978 -10.064  -1.302  1.00  0.00     0.000 C 
BRANCH   7   8
HETATM    8  C   UNL     1     -20.632 -10.815  -2.449  1.00  0.00     0.000 C 
BRANCH   8   9
HETATM    9  C   UNL     1     -21.980 -10.194  -2.771  1.00  0.00     0.000 C 
BRANCH   9  10
HETATM   10  C   UNL     1     -23.081 -11.224  -2.595  1.00  0.00     0.000 C 
BRANCH  10  11
HETATM   11  C   UNL     1     -23.742 -11.052  -1.236  1.00  0.00     0.000 C 
BRANCH  11  12
HETATM   12  C   UNL     1     -24.128 -12.408  -0.668  1.00  0.00    -0.000 C 
BRANCH  12  13
HETATM   13  C   UNL     1     -23.287 -12.735   0.562  1.00  0.00    -0.005 C 
HETATM   14  C   UNL     1     -22.235 -13.768   0.226  1.00  0.00     0.005 C 
ENDBRANCH  12  13
ENDBRANCH  11  12
ENDBRANCH  10  11
ENDBRANCH   9  10
ENDBRANCH   8   9
ENDBRANCH   7   8
ENDBRANCH   6   7
ENDBRANCH   5   6
ENDBRANCH   4   5
ENDBRANCH   3   4
ENDBRANCH   2   3
ENDBRANCH   1   2
BRANCH   1  15
HETATM   15  C   UNL     1     -22.274  -6.304  -2.160  1.00  0.00     0.000 C 
BRANCH  15  16
HETATM   16  C   UNL     1     -21.275  -6.647  -3.255  1.00  0.00     0.009 C 
BRANCH  16  17
HETATM   17  C   UNL     1     -21.976  -6.803  -4.593  1.00  0.00     0.103 C 
BRANCH  17  18
HETATM   18  C   UNL     1     -21.371  -5.854  -5.590  1.00  0.00     0.218 C 
HETATM   19  O   UNL     1     -20.217  -5.457  -5.451  1.00  0.00    -0.274 OA
HETATM   20  N   UNL     1     -22.203  -5.455  -6.609  1.00  0.00    -0.350 N 
HETATM   21  H   UNL     1     -23.116  -5.888  -6.695  1.00  0.00     0.163 HD
BRANCH  20  22
HETATM   22  C   UNL     1     -21.748  -4.549  -7.694  1.00  0.00     0.046 C 
HETATM   23  C   UNL     1     -21.280  -3.209  -7.092  1.00  0.00     0.040 C 
HETATM   24  C   UNL     1     -20.549  -5.206  -8.407  1.00  0.00     0.040 C 
BRANCH  22  25
HETATM   25  C   UNL     1     -22.860  -4.253  -8.746  1.00  0.00     0.194 C 
BRANCH  25  26
HETATM   26  O   UNL     1     -24.140  -3.980  -8.167  1.00  0.00    -0.398 OA
HETATM   27  H   UNL     1     -24.058  -4.148  -7.213  1.00  0.00     0.209 HD
ENDBRANCH  25  26
ENDBRANCH  22  25
ENDBRANCH  20  22
ENDBRANCH  17  18
ENDBRANCH  16  17
ENDBRANCH  15  16
ENDBRANCH   1  15
TORSDOF 19
ENDMDL
MODEL 3
REMARK VINA RESULT:      -6.4      2.395      4.708
REMARK  19 active torsions:
REMARK  status: ('A' for Active; 'I' for Inactive)
REMARK    1  A    between atoms: C_2  and  C_3 
REMARK    2  A    between atoms: C_3  and  C_4 
REMARK    3  A    between atoms: C_4  and  C_5 
REMARK    4  A    between atoms: C_5  and  C_6 
REMARK    5  A    between atoms: C_6  and  C_7 
REMARK    6  A    between atoms: C_7  and  C_8 
REMARK    7  A    between atoms: C_8  and  C_9 
REMARK    8  A    between atoms: C_9  and  C_10 
REMARK    9  A    between atoms: C_10  and  C_11 
REMARK   10  A    between atoms: C_11  and  C_12 
REMARK   11  A    between atoms: C_12  and  C_13 
REMARK   12  A    between atoms: C_13  and  C_14 
REMARK   13  A    between atoms: C_14  and  C_15 
REMARK   14  A    between atoms: C_15  and  C_16 
REMARK   15  A    between atoms: C_16  and  C_17 
REMARK   16  A    between atoms: C_17  and  C_18 
REMARK       I    between atoms: C_18  and  N_20 
REMARK   17  A    between atoms: N_20  and  C_21 
REMARK   18  A    between atoms: C_21  and  C_24 
REMARK   19  A    between atoms: C_24  and  O_25 
ROOT
HETATM    1  C   UNL     1     -20.651  -7.545  -2.390  1.00  0.00     0.000 C 
ENDROOT
BRANCH   1   2
HETATM    2  C   UNL     1     -20.969  -7.962  -0.964  1.00  0.00     0.000 C 
BRANCH   2   3
HETATM    3  C   UNL     1     -22.301  -7.375  -0.530  1.00  0.00     0.000 C 
BRANCH   3   4
HETATM    4  C   UNL     1     -23.046  -8.367   0.343  1.00  0.00     0.000 C 
BRANCH   4   5
HETATM    5  C   UNL     1     -22.655  -9.785  -0.032  1.00  0.00     0.000 C 
BRANCH   5   6
HETATM    6  C   UNL     1     -23.854 -10.705   0.105  1.00  0.00     0.000 C 
BRANCH   6   7
HETATM    7  C   UNL     1     -24.129 -11.395  -1.218  1.00  0.00     0.000 C 
BRANCH   7   8
HETATM    8  C   UNL     1     -22.982 -11.142  -2.181  1.00  0.00     0.000 C 
BRANCH   8   9
HETATM    9  C   UNL     1     -22.304 -12.454  -2.534  1.00  0.00     0.000 C 
BRANCH   9  10
HETATM   10  C   UNL     1     -21.227 -12.218  -3.577  1.00  0.00     0.000 C 
BRANCH  10  11
HETATM   11  C   UNL     1     -21.798 -11.431  -4.747  1.00  0.00     0.000 C 
BRANCH  11  12
HETATM   12  C   UNL     1     -20.705 -10.608  -5.406  1.00  0.00    -0.000 C 
BRANCH  12  13
HETATM   13  C   UNL     1     -19.586 -10.307  -4.413  1.00  0.00    -0.005 C 
HETATM   14  C   UNL     1     -18.434  -9.616  -5.107  1.00  0.00     0.005 C 
ENDBRANCH  12  13
ENDBRANCH  11  12
ENDBRANCH  10  11
ENDBRANCH   9  10
ENDBRANCH   8   9
ENDBRANCH   7   8
ENDBRANCH   6   7
ENDBRANCH   5   6
ENDBRANCH   4   5
ENDBRANCH   3   4
ENDBRANCH   2   3
ENDBRANCH   1   2
BRANCH   1  15
HETATM   15  C   UNL     1     -21.862  -6.877  -3.022  1.00  0.00     0.000 C 
BRANCH  15  16
HETATM   16  C   UNL     1     -22.145  -7.484  -4.388  1.00  0.00     0.009 C 
BRANCH  16  17
HETATM   17  C   UNL     1     -21.100  -7.046  -5.399  1.00  0.00     0.103 C 
BRANCH  17  18
HETATM   18  C   UNL     1     -21.638  -5.899  -6.211  1.00  0.00     0.218 C 
HETATM   19  O   UNL     1     -22.646  -5.298  -5.847  1.00  0.00    -0.274 OA
HETATM   20  N   UNL     1     -20.953  -5.620  -7.369  1.00  0.00    -0.350 N 
HETATM   21  H   UNL     1     -20.088  -6.114  -7.558  1.00  0.00     0.163 HD
BRANCH  20  22
HETATM   22  C   UNL     1     -21.334  -4.498  -8.264  1.00  0.00     0.046 C 
HETATM   23  C   UNL     1     -21.300  -3.171  -7.479  1.00  0.00     0.040 C 
HETATM   24  C   UNL     1     -20.301  -4.413  -9.406  1.00  0.00     0.040 C 
BRANCH  22  25
HETATM   25  C   UNL     1     -22.756  -4.667  -8.882  1.00  0.00     0.194 C 
BRANCH  25  26
HETATM   26  O   UNL     1     -23.775  -3.950  -8.178  1.00  0.00    -0.398 OA
HETATM   27  H   UNL     1     -24.353  -4.614  -7.767  1.00  0.00     0.209 HD
ENDBRANCH  25  26
ENDBRANCH  22  25
ENDBRANCH  20  22
ENDBRANCH  17  18
ENDBRANCH  16  17
ENDBRANCH  15  16
ENDBRANCH   1  15
TORSDOF 19
ENDMDL
MODEL 4
REMARK VINA RESULT:      -6.3      2.398      5.092
REMARK  19 active torsions:
REMARK  status: ('A' for Active; 'I' for Inactive)
REMARK    1  A    between atoms: C_2  and  C_3 
REMARK    2  A    between atoms: C_3  and  C_4 
REMARK    3  A    between atoms: C_4  and  C_5 
REMARK    4  A    between atoms: C_5  and  C_6 
REMARK    5  A    between atoms: C_6  and  C_7 
REMARK    6  A    between atoms: C_7  and  C_8 
REMARK    7  A    between atoms: C_8  and  C_9 
REMARK    8  A    between atoms: C_9  and  C_10 
REMARK    9  A    between atoms: C_10  and  C_11 
REMARK   10  A    between atoms: C_11  and  C_12 
REMARK   11  A    between atoms: C_12  and  C_13 
REMARK   12  A    between atoms: C_13  and  C_14 
REMARK   13  A    between atoms: C_14  and  C_15 
REMARK   14  A    between atoms: C_15  and  C_16 
REMARK   15  A    between atoms: C_16  and  C_17 
REMARK   16  A    between atoms: C_17  and  C_18 
REMARK       I    between atoms: C_18  and  N_20 
REMARK   17  A    between atoms: N_20  and  C_21 
REMARK   18  A    between atoms: C_21  and  C_24 
REMARK   19  A    between atoms: C_24  and  O_25 
ROOT
HETATM    1  C   UNL     1     -21.147 -11.067  -4.378  1.00  0.00     0.000 C 
ENDROOT
BRANCH   1   2
HETATM    2  C   UNL     1     -21.263 -12.254  -3.437  1.00  0.00     0.000 C 
BRANCH   2   3
HETATM    3  C   UNL     1     -22.718 -12.495  -3.075  1.00  0.00     0.000 C 
BRANCH   3   4
HETATM    4  C   UNL     1     -23.268 -11.305  -2.310  1.00  0.00     0.000 C 
BRANCH   4   5
HETATM    5  C   UNL     1     -24.248 -11.776  -1.252  1.00  0.00     0.000 C 
BRANCH   5   6
HETATM    6  C   UNL     1     -23.765 -11.353   0.124  1.00  0.00     0.000 C 
BRANCH   6   7
HETATM    7  C   UNL     1     -23.091 -12.522   0.817  1.00  0.00     0.000 C 
BRANCH   7   8
HETATM    8  C   UNL     1     -21.599 -12.501   0.530  1.00  0.00     0.000 C 
BRANCH   8   9
HETATM    9  C   UNL     1     -21.027 -11.135   0.863  1.00  0.00     0.000 C 
BRANCH   9  10
HETATM   10  C   UNL     1     -20.295 -10.572  -0.341  1.00  0.00     0.000 C 
BRANCH  10  11
HETATM   11  C   UNL     1     -20.827  -9.186  -0.674  1.00  0.00     0.000 C 
BRANCH  11  12
HETATM   12  C   UNL     1     -21.479  -8.570   0.552  1.00  0.00    -0.000 C 
BRANCH  12  13
HETATM   13  C   UNL     1     -22.662  -7.695   0.150  1.00  0.00    -0.005 C 
HETATM   14  C   UNL     1     -22.344  -6.920  -1.108  1.00  0.00     0.005 C 
ENDBRANCH  12  13
ENDBRANCH  11  12
ENDBRANCH  10  11
ENDBRANCH   9  10
ENDBRANCH   8   9
ENDBRANCH   7   8
ENDBRANCH   6   7
ENDBRANCH   5   6
ENDBRANCH   4   5
ENDBRANCH   3   4
ENDBRANCH   2   3
ENDBRANCH   1   2
BRANCH   1  15
HETATM   15  C   UNL     1     -19.879 -10.283  -4.079  1.00  0.00     0.000 C 
BRANCH  15  16
HETATM   16  C   UNL     1     -20.058  -8.823  -4.466  1.00  0.00     0.009 C 
BRANCH  16  17
HETATM   17  C   UNL     1     -21.531  -8.459  -4.527  1.00  0.00     0.103 C 
BRANCH  17  18
HETATM   18  C   UNL     1     -21.682  -7.066  -5.075  1.00  0.00     0.218 C 
HETATM   19  O   UNL     1     -22.522  -6.301  -4.607  1.00  0.00    -0.274 OA
HETATM   20  N   UNL     1     -20.857  -6.750  -6.128  1.00  0.00    -0.350 N 
HETATM   21  H   UNL     1     -20.140  -7.412  -6.405  1.00  0.00     0.163 HD
BRANCH  20  22
HETATM   22  C   UNL     1     -20.857  -5.406  -6.758  1.00  0.00     0.046 C 
HETATM   23  C   UNL     1     -20.189  -4.387  -5.813  1.00  0.00     0.040 C 
HETATM   24  C   UNL     1     -20.029  -5.478  -8.058  1.00  0.00     0.040 C 
BRANCH  22  25
HETATM   25  C   UNL     1     -22.289  -4.894  -7.101  1.00  0.00     0.194 C 
BRANCH  25  26
HETATM   26  O   UNL     1     -22.427  -4.438  -8.450  1.00  0.00    -0.398 OA
HETATM   27  H   UNL     1     -23.263  -4.801  -8.787  1.00  0.00     0.209 HD
ENDBRANCH  25  26
ENDBRANCH  22  25
ENDBRANCH  20  22
ENDBRANCH  17  18
ENDBRANCH  16  17
ENDBRANCH  15  16
ENDBRANCH   1  15
TORSDOF 19
ENDMDL
MODEL 5
REMARK VINA RESULT:      -6.2      4.020     10.313
REMARK  19 active torsions:
REMARK  status: ('A' for Active; 'I' for Inactive)
REMARK    1  A    between atoms: C_2  and  C_3 
REMARK    2  A    between atoms: C_3  and  C_4 
REMARK    3  A    between atoms: C_4  and  C_5 
REMARK    4  A    between atoms: C_5  and  C_6 
REMARK    5  A    between atoms: C_6  and  C_7 
REMARK    6  A    between atoms: C_7  and  C_8 
REMARK    7  A    between atoms: C_8  and  C_9 
REMARK    8  A    between atoms: C_9  and  C_10 
REMARK    9  A    between atoms: C_10  and  C_11 
REMARK   10  A    between atoms: C_11  and  C_12 
REMARK   11  A    between atoms: C_12  and  C_13 
REMARK   12  A    between atoms: C_13  and  C_14 
REMARK   13  A    between atoms: C_14  and  C_15 
REMARK   14  A    between atoms: C_15  and  C_16 
REMARK   15  A    between atoms: C_16  and  C_17 
REMARK   16  A    between atoms: C_17  and  C_18 
REMARK       I    between atoms: C_18  and  N_20 
REMARK   17  A    between atoms: N_20  and  C_21 
REMARK   18  A    between atoms: C_21  and  C_24 
REMARK   19  A    between atoms: C_24  and  O_25 
ROOT
HETATM    1  C   UNL     1     -21.922  -7.436  -0.336  1.00  0.00     0.000 C 
ENDROOT
BRANCH   1   2
HETATM    2  C   UNL     1     -22.383  -6.525  -1.461  1.00  0.00     0.000 C 
BRANCH   2   3
HETATM    3  C   UNL     1     -21.305  -6.421  -2.526  1.00  0.00     0.000 C 
BRANCH   3   4
HETATM    4  C   UNL     1     -21.922  -6.572  -3.905  1.00  0.00     0.000 C 
BRANCH   4   5
HETATM    5  C   UNL     1     -20.942  -6.107  -4.966  1.00  0.00     0.000 C 
BRANCH   5   6
HETATM    6  C   UNL     1     -21.686  -5.395  -6.080  1.00  0.00     0.000 C 
BRANCH   6   7
HETATM    7  C   UNL     1     -20.870  -4.216  -6.575  1.00  0.00     0.000 C 
BRANCH   7   8
HETATM    8  C   UNL     1     -19.611  -4.712  -7.265  1.00  0.00     0.000 C 
BRANCH   8   9
HETATM    9  C   UNL     1     -19.934  -5.147  -8.682  1.00  0.00     0.000 C 
BRANCH   9  10
HETATM   10  C   UNL     1     -20.445  -3.965  -9.485  1.00  0.00     0.000 C 
BRANCH  10  11
HETATM   11  C   UNL     1     -20.432  -4.298 -10.969  1.00  0.00     0.000 C 
BRANCH  11  12
HETATM   12  C   UNL     1     -21.828  -4.150 -11.549  1.00  0.00    -0.000 C 
BRANCH  12  13
HETATM   13  C   UNL     1     -22.830  -3.791 -10.456  1.00  0.00    -0.005 C 
HETATM   14  C   UNL     1     -23.865  -4.883 -10.307  1.00  0.00     0.005 C 
ENDBRANCH  12  13
ENDBRANCH  11  12
ENDBRANCH  10  11
ENDBRANCH   9  10
ENDBRANCH   8   9
ENDBRANCH   7   8
ENDBRANCH   6   7
ENDBRANCH   5   6
ENDBRANCH   4   5
ENDBRANCH   3   4
ENDBRANCH   2   3
ENDBRANCH   1   2
BRANCH   1  15
HETATM   15  C   UNL     1     -23.016  -8.434   0.012  1.00  0.00     0.000 C 
BRANCH  15  16
HETATM   16  C   UNL     1     -22.463  -9.851  -0.014  1.00  0.00     0.009 C 
BRANCH  16  17
HETATM   17  C   UNL     1     -22.831 -10.549  -1.311  1.00  0.00     0.103 C 
BRANCH  17  18
HETATM   18  C   UNL     1     -21.694 -10.423  -2.289  1.00  0.00     0.218 C 
HETATM   19  O   UNL     1     -21.904 -10.055  -3.442  1.00  0.00    -0.274 OA
HETATM   20  N   UNL     1     -20.457 -10.778  -1.808  1.00  0.00    -0.350 N 
HETATM   21  H   UNL     1     -20.358 -10.998  -0.823  1.00  0.00     0.163 HD
BRANCH  20  22
HETATM   22  C   UNL     1     -19.227 -10.677  -2.634  1.00  0.00     0.046 C 
HETATM   23  C   UNL     1     -19.399 -11.500  -3.927  1.00  0.00     0.040 C 
HETATM   24  C   UNL     1     -19.022  -9.199  -3.024  1.00  0.00     0.040 C 
BRANCH  22  25
HETATM   25  C   UNL     1     -17.953 -11.186  -1.894  1.00  0.00     0.194 C 
BRANCH  25  26
HETATM   26  O   UNL     1     -17.393 -12.372  -2.466  1.00  0.00    -0.398 OA
HETATM   27  H   UNL     1     -16.428 -12.259  -2.457  1.00  0.00     0.209 HD
ENDBRANCH  25  26
ENDBRANCH  22  25
ENDBRANCH  20  22
ENDBRANCH  17  18
ENDBRANCH  16  17
ENDBRANCH  15  16
ENDBRANCH   1  15
TORSDOF 19
ENDMDL
MODEL 6
REMARK VINA RESULT:      -6.2      4.613     10.195
REMARK  19 active torsions:
REMARK  status: ('A' for Active; 'I' for Inactive)
REMARK    1  A    between atoms: C_2  and  C_3 
REMARK    2  A    between atoms: C_3  and  C_4 
REMARK    3  A    between atoms: C_4  and  C_5 
REMARK    4  A    between atoms: C_5  and  C_6 
REMARK    5  A    between atoms: C_6  and  C_7 
REMARK    6  A    between atoms: C_7  and  C_8 
REMARK    7  A    between atoms: C_8  and  C_9 
REMARK    8  A    between atoms: C_9  and  C_10 
REMARK    9  A    between atoms: C_10  and  C_11 
REMARK   10  A    between atoms: C_11  and  C_12 
REMARK   11  A    between atoms: C_12  and  C_13 
REMARK   12  A    between atoms: C_13  and  C_14 
REMARK   13  A    between atoms: C_14  and  C_15 
REMARK   14  A    between atoms: C_15  and  C_16 
REMARK   15  A    between atoms: C_16  and  C_17 
REMARK   16  A    between atoms: C_17  and  C_18 
REMARK       I    between atoms: C_18  and  N_20 
REMARK   17  A    between atoms: N_20  and  C_21 
REMARK   18  A    between atoms: C_21  and  C_24 
REMARK   19  A    between atoms: C_24  and  O_25 
ROOT
HETATM    1  C   UNL     1     -21.178  -8.511  -0.303  1.00  0.00     0.000 C 
ENDROOT
BRANCH   1   2
HETATM    2  C   UNL     1     -22.331  -7.534  -0.149  1.00  0.00     0.000 C 
BRANCH   2   3
HETATM    3  C   UNL     1     -22.362  -6.571  -1.323  1.00  0.00     0.000 C 
BRANCH   3   4
HETATM    4  C   UNL     1     -21.318  -6.970  -2.350  1.00  0.00     0.000 C 
BRANCH   4   5
HETATM    5  C   UNL     1     -21.375  -6.031  -3.540  1.00  0.00     0.000 C 
BRANCH   5   6
HETATM    6  C   UNL     1     -21.956  -6.755  -4.742  1.00  0.00     0.000 C 
BRANCH   6   7
HETATM    7  C   UNL     1     -21.189  -6.373  -5.994  1.00  0.00     0.000 C 
BRANCH   7   8
HETATM    8  C   UNL     1     -20.420  -5.085  -5.757  1.00  0.00     0.000 C 
BRANCH   8   9
HETATM    9  C   UNL     1     -20.582  -4.158  -6.948  1.00  0.00     0.000 C 
BRANCH   9  10
HETATM   10  C   UNL     1     -21.971  -4.314  -7.542  1.00  0.00     0.000 C 
BRANCH  10  11
HETATM   11  C   UNL     1     -21.922  -4.088  -9.045  1.00  0.00     0.000 C 
BRANCH  11  12
HETATM   12  C   UNL     1     -20.482  -4.109  -9.530  1.00  0.00    -0.000 C 
BRANCH  12  13
HETATM   13  C   UNL     1     -20.428  -4.167 -11.053  1.00  0.00    -0.005 C 
HETATM   14  C   UNL     1     -21.823  -4.136 -11.635  1.00  0.00     0.005 C 
ENDBRANCH  12  13
ENDBRANCH  11  12
ENDBRANCH  10  11
ENDBRANCH   9  10
ENDBRANCH   8   9
ENDBRANCH   7   8
ENDBRANCH   6   7
ENDBRANCH   5   6
ENDBRANCH   4   5
ENDBRANCH   3   4
ENDBRANCH   2   3
ENDBRANCH   1   2
BRANCH   1  15
HETATM   15  C   UNL     1     -21.638  -9.922   0.034  1.00  0.00     0.000 C 
BRANCH  15  16
HETATM   16  C   UNL     1     -20.827 -10.941  -0.752  1.00  0.00     0.009 C 
BRANCH  16  17
HETATM   17  C   UNL     1     -20.361 -10.356  -2.073  1.00  0.00     0.103 C 
BRANCH  17  18
HETATM   18  C   UNL     1     -18.896 -10.642  -2.259  1.00  0.00     0.218 C 
HETATM   19  O   UNL     1     -18.254 -11.205  -1.375  1.00  0.00    -0.274 OA
HETATM   20  N   UNL     1     -18.351 -10.201  -3.442  1.00  0.00    -0.350 N 
HETATM   21  H   UNL     1     -18.966  -9.814  -4.150  1.00  0.00     0.163 HD
BRANCH  20  22
HETATM   22  C   UNL     1     -16.928 -10.435  -3.795  1.00  0.00     0.046 C 
HETATM   23  C   UNL     1     -16.681 -10.031  -5.262  1.00  0.00     0.040 C 
HETATM   24  C   UNL     1     -16.050  -9.545  -2.892  1.00  0.00     0.040 C 
BRANCH  22  25
HETATM   25  C   UNL     1     -16.493 -11.922  -3.614  1.00  0.00     0.194 C 
BRANCH  25  26
HETATM   26  O   UNL     1     -17.467 -12.864  -4.074  1.00  0.00    -0.398 OA
HETATM   27  H   UNL     1     -17.503 -12.781  -5.041  1.00  0.00     0.209 HD
ENDBRANCH  25  26
ENDBRANCH  22  25
ENDBRANCH  20  22
ENDBRANCH  17  18
ENDBRANCH  16  17
ENDBRANCH  15  16
ENDBRANCH   1  15
TORSDOF 19
ENDMDL
MODEL 7
REMARK VINA RESULT:      -5.8     16.600     18.682
REMARK  19 active torsions:
REMARK  status: ('A' for Active; 'I' for Inactive)
REMARK    1  A    between atoms: C_2  and  C_3 
REMARK    2  A    between atoms: C_3  and  C_4 
REMARK    3  A    between atoms: C_4  and  C_5 
REMARK    4  A    between atoms: C_5  and  C_6 
REMARK    5  A    between atoms: C_6  and  C_7 
REMARK    6  A    between atoms: C_7  and  C_8 
REMARK    7  A    between atoms: C_8  and  C_9 
REMARK    8  A    between atoms: C_9  and  C_10 
REMARK    9  A    between atoms: C_10  and  C_11 
REMARK   10  A    between atoms: C_11  and  C_12 
REMARK   11  A    between atoms: C_12  and  C_13 
REMARK   12  A    between atoms: C_13  and  C_14 
REMARK   13  A    between atoms: C_14  and  C_15 
REMARK   14  A    between atoms: C_15  and  C_16 
REMARK   15  A    between atoms: C_16  and  C_17 
REMARK   16  A    between atoms: C_17  and  C_18 
REMARK       I    between atoms: C_18  and  N_20 
REMARK   17  A    between atoms: N_20  and  C_21 
REMARK   18  A    between atoms: C_21  and  C_24 
REMARK   19  A    between atoms: C_24  and  O_25 
ROOT
HETATM    1  C   UNL     1     -20.471  10.331   2.782  1.00  0.00     0.000 C 
ENDROOT
BRANCH   1   2
HETATM    2  C   UNL     1     -19.972   8.897   2.835  1.00  0.00     0.000 C 
BRANCH   2   3
HETATM    3  C   UNL     1     -18.487   8.846   2.518  1.00  0.00     0.000 C 
BRANCH   3   4
HETATM    4  C   UNL     1     -17.976  10.240   2.203  1.00  0.00     0.000 C 
BRANCH   4   5
HETATM    5  C   UNL     1     -16.515  10.177   1.797  1.00  0.00     0.000 C 
BRANCH   5   6
HETATM    6  C   UNL     1     -15.943   8.812   2.136  1.00  0.00     0.000 C 
BRANCH   6   7
HETATM    7  C   UNL     1     -14.444   8.808   1.903  1.00  0.00     0.000 C 
BRANCH   7   8
HETATM    8  C   UNL     1     -13.717   9.063   3.212  1.00  0.00     0.000 C 
BRANCH   8   9
HETATM    9  C   UNL     1     -14.400   8.309   4.339  1.00  0.00     0.000 C 
BRANCH   9  10
HETATM   10  C   UNL     1     -13.897   8.811   5.680  1.00  0.00     0.000 C 
BRANCH  10  11
HETATM   11  C   UNL     1     -15.049   9.397   6.482  1.00  0.00     0.000 C 
BRANCH  11  12
HETATM   12  C   UNL     1     -15.427  10.761   5.931  1.00  0.00    -0.000 C 
BRANCH  12  13
HETATM   13  C   UNL     1     -16.941  10.880   5.780  1.00  0.00    -0.005 C 
HETATM   14  C   UNL     1     -17.604   9.543   6.024  1.00  0.00     0.005 C 
ENDBRANCH  12  13
ENDBRANCH  11  12
ENDBRANCH  10  11
ENDBRANCH   9  10
ENDBRANCH   8   9
ENDBRANCH   7   8
ENDBRANCH   6   7
ENDBRANCH   5   6
ENDBRANCH   4   5
ENDBRANCH   3   4
ENDBRANCH   2   3
ENDBRANCH   1   2
BRANCH   1  15
HETATM   15  C   UNL     1     -21.707  10.424   1.901  1.00  0.00     0.000 C 
BRANCH  15  16
HETATM   16  C   UNL     1     -22.247   9.033   1.603  1.00  0.00     0.009 C 
BRANCH  16  17
HETATM   17  C   UNL     1     -23.765   9.027   1.639  1.00  0.00     0.103 C 
BRANCH  17  18
HETATM   18  C   UNL     1     -24.294   8.418   0.369  1.00  0.00     0.218 C 
HETATM   19  O   UNL     1     -25.492   8.174   0.248  1.00  0.00    -0.274 OA
HETATM   20  N   UNL     1     -23.352   8.136  -0.591  1.00  0.00    -0.350 N 
HETATM   21  H   UNL     1     -22.395   8.439  -0.443  1.00  0.00     0.163 HD
BRANCH  20  22
HETATM   22  C   UNL     1     -23.715   7.567  -1.914  1.00  0.00     0.046 C 
HETATM   23  C   UNL     1     -22.524   7.701  -2.884  1.00  0.00     0.040 C 
HETATM   24  C   UNL     1     -24.024   6.067  -1.730  1.00  0.00     0.040 C 
BRANCH  22  25
HETATM   25  C   UNL     1     -24.953   8.262  -2.557  1.00  0.00     0.194 C 
BRANCH  25  26
HETATM   26  O   UNL     1     -26.116   7.430  -2.606  1.00  0.00    -0.398 OA
HETATM   27  H   UNL     1     -26.616   7.691  -3.397  1.00  0.00     0.209 HD
ENDBRANCH  25  26
ENDBRANCH  22  25
ENDBRANCH  20  22
ENDBRANCH  17  18
ENDBRANCH  16  17
ENDBRANCH  15  16
ENDBRANCH   1  15
TORSDOF 19
ENDMDL
MODEL 8
REMARK VINA RESULT:      -5.8     13.855     16.366
REMARK  19 active torsions:
REMARK  status: ('A' for Active; 'I' for Inactive)
REMARK    1  A    between atoms: C_2  and  C_3 
REMARK    2  A    between atoms: C_3  and  C_4 
REMARK    3  A    between atoms: C_4  and  C_5 
REMARK    4  A    between atoms: C_5  and  C_6 
REMARK    5  A    between atoms: C_6  and  C_7 
REMARK    6  A    between atoms: C_7  and  C_8 
REMARK    7  A    between atoms: C_8  and  C_9 
REMARK    8  A    between atoms: C_9  and  C_10 
REMARK    9  A    between atoms: C_10  and  C_11 
REMARK   10  A    between atoms: C_11  and  C_12 
REMARK   11  A    between atoms: C_12  and  C_13 
REMARK   12  A    between atoms: C_13  and  C_14 
REMARK   13  A    between atoms: C_14  and  C_15 
REMARK   14  A    between atoms: C_15  and  C_16 
REMARK   15  A    between atoms: C_16  and  C_17 
REMARK   16  A    between atoms: C_17  and  C_18 
REMARK       I    between atoms: C_18  and  N_20 
REMARK   17  A    between atoms: N_20  and  C_21 
REMARK   18  A    between atoms: C_21  and  C_24 
REMARK   19  A    between atoms: C_24  and  O_25 
ROOT
HETATM    1  C   UNL     1     -31.367  -4.634 -17.025  1.00  0.00     0.000 C 
ENDROOT
BRANCH   1   2
HETATM    2  C   UNL     1     -32.769  -4.391 -16.492  1.00  0.00     0.000 C 
BRANCH   2   3
HETATM    3  C   UNL     1     -33.413  -3.225 -17.223  1.00  0.00     0.000 C 
BRANCH   3   4
HETATM    4  C   UNL     1     -34.726  -2.857 -16.557  1.00  0.00     0.000 C 
BRANCH   4   5
HETATM    5  C   UNL     1     -34.885  -1.348 -16.522  1.00  0.00     0.000 C 
BRANCH   5   6
HETATM    6  C   UNL     1     -35.818  -0.953 -15.392  1.00  0.00     0.000 C 
BRANCH   6   7
HETATM    7  C   UNL     1     -35.365   0.360 -14.783  1.00  0.00     0.000 C 
BRANCH   7   8
HETATM    8  C   UNL     1     -34.838   0.124 -13.378  1.00  0.00     0.000 C 
BRANCH   8   9
HETATM    9  C   UNL     1     -35.254  -1.253 -12.894  1.00  0.00     0.000 C 
BRANCH   9  10
HETATM   10  C   UNL     1     -34.846  -1.440 -11.444  1.00  0.00     0.000 C 
BRANCH  10  11
HETATM   11  C   UNL     1     -33.625  -2.343 -11.360  1.00  0.00     0.000 C 
BRANCH  11  12
HETATM   12  C   UNL     1     -33.976  -3.629 -10.630  1.00  0.00    -0.000 C 
BRANCH  12  13
HETATM   13  C   UNL     1     -33.293  -4.824 -11.287  1.00  0.00    -0.005 C 
HETATM   14  C   UNL     1     -33.959  -6.114 -10.863  1.00  0.00     0.005 C 
ENDBRANCH  12  13
ENDBRANCH  11  12
ENDBRANCH  10  11
ENDBRANCH   9  10
ENDBRANCH   8   9
ENDBRANCH   7   8
ENDBRANCH   6   7
ENDBRANCH   5   6
ENDBRANCH   4   5
ENDBRANCH   3   4
ENDBRANCH   2   3
ENDBRANCH   1   2
BRANCH   1  15
HETATM   15  C   UNL     1     -31.146  -6.119 -17.263  1.00  0.00     0.000 C 
BRANCH  15  16
HETATM   16  C   UNL     1     -29.660  -6.442 -17.237  1.00  0.00     0.009 C 
BRANCH  16  17
HETATM   17  C   UNL     1     -29.193  -6.939 -18.594  1.00  0.00     0.103 C 
BRANCH  17  18
HETATM   18  C   UNL     1     -27.748  -6.572 -18.793  1.00  0.00     0.218 C 
HETATM   19  O   UNL     1     -27.217  -5.723 -18.079  1.00  0.00    -0.274 OA
HETATM   20  N   UNL     1     -27.109  -7.216 -19.825  1.00  0.00    -0.350 N 
HETATM   21  H   UNL     1     -27.596  -7.957 -20.316  1.00  0.00     0.163 HD
BRANCH  20  22
HETATM   22  C   UNL     1     -25.673  -6.993 -20.130  1.00  0.00     0.046 C 
HETATM   23  C   UNL     1     -25.126  -8.174 -20.957  1.00  0.00     0.040 C 
HETATM   24  C   UNL     1     -25.549  -5.709 -20.977  1.00  0.00     0.040 C 
BRANCH  22  25
HETATM   25  C   UNL     1     -24.795  -6.839 -18.850  1.00  0.00     0.194 C 
BRANCH  25  26
HETATM   26  O   UNL     1     -23.474  -7.369 -18.996  1.00  0.00    -0.398 OA
HETATM   27  H   UNL     1     -23.340  -7.536 -19.943  1.00  0.00     0.209 HD
ENDBRANCH  25  26
ENDBRANCH  22  25
ENDBRANCH  20  22
ENDBRANCH  17  18
ENDBRANCH  16  17
ENDBRANCH  15  16
ENDBRANCH   1  15
TORSDOF 19
ENDMDL
MODEL 9
REMARK VINA RESULT:      -5.8     14.292     16.302
REMARK  19 active torsions:
REMARK  status: ('A' for Active; 'I' for Inactive)
REMARK    1  A    between atoms: C_2  and  C_3 
REMARK    2  A    between atoms: C_3  and  C_4 
REMARK    3  A    between atoms: C_4  and  C_5 
REMARK    4  A    between atoms: C_5  and  C_6 
REMARK    5  A    between atoms: C_6  and  C_7 
REMARK    6  A    between atoms: C_7  and  C_8 
REMARK    7  A    between atoms: C_8  and  C_9 
REMARK    8  A    between atoms: C_9  and  C_10 
REMARK    9  A    between atoms: C_10  and  C_11 
REMARK   10  A    between atoms: C_11  and  C_12 
REMARK   11  A    between atoms: C_12  and  C_13 
REMARK   12  A    between atoms: C_13  and  C_14 
REMARK   13  A    between atoms: C_14  and  C_15 
REMARK   14  A    between atoms: C_15  and  C_16 
REMARK   15  A    between atoms: C_16  and  C_17 
REMARK   16  A    between atoms: C_17  and  C_18 
REMARK       I    between atoms: C_18  and  N_20 
REMARK   17  A    between atoms: N_20  and  C_21 
REMARK   18  A    between atoms: C_21  and  C_24 
REMARK   19  A    between atoms: C_24  and  O_25 
ROOT
HETATM    1  C   UNL     1     -25.437   5.741  -9.635  1.00  0.00     0.000 C 
ENDROOT
BRANCH   1   2
HETATM    2  C   UNL     1     -25.932   5.512  -8.217  1.00  0.00     0.000 C 
BRANCH   2   3
HETATM    3  C   UNL     1     -25.865   6.805  -7.423  1.00  0.00     0.000 C 
BRANCH   3   4
HETATM    4  C   UNL     1     -25.612   6.502  -5.957  1.00  0.00     0.000 C 
BRANCH   4   5
HETATM    5  C   UNL     1     -26.608   7.254  -5.093  1.00  0.00     0.000 C 
BRANCH   5   6
HETATM    6  C   UNL     1     -26.219   7.129  -3.631  1.00  0.00     0.000 C 
BRANCH   6   7
HETATM    7  C   UNL     1     -25.287   5.947  -3.443  1.00  0.00     0.000 C 
BRANCH   7   8
HETATM    8  C   UNL     1     -24.411   6.168  -2.223  1.00  0.00     0.000 C 
BRANCH   8   9
HETATM    9  C   UNL     1     -24.625   7.569  -1.679  1.00  0.00     0.000 C 
BRANCH   9  10
HETATM   10  C   UNL     1     -23.935   7.717  -0.335  1.00  0.00     0.000 C 
BRANCH  10  11
HETATM   11  C   UNL     1     -24.805   8.528   0.612  1.00  0.00     0.000 C 
BRANCH  11  12
HETATM   12  C   UNL     1     -23.936   9.276   1.608  1.00  0.00    -0.000 C 
BRANCH  12  13
HETATM   13  C   UNL     1     -22.471   8.886   1.444  1.00  0.00    -0.005 C 
HETATM   14  C   UNL     1     -21.664   9.337   2.640  1.00  0.00     0.005 C 
ENDBRANCH  12  13
ENDBRANCH  11  12
ENDBRANCH  10  11
ENDBRANCH   9  10
ENDBRANCH   8   9
ENDBRANCH   7   8
ENDBRANCH   6   7
ENDBRANCH   5   6
ENDBRANCH   4   5
ENDBRANCH   3   4
ENDBRANCH   2   3
ENDBRANCH   1   2
BRANCH   1  15
HETATM   15  C   UNL     1     -26.336   6.737 -10.350  1.00  0.00     0.000 C 
BRANCH  15  16
HETATM   16  C   UNL     1     -25.651   7.259 -11.604  1.00  0.00     0.009 C 
BRANCH  16  17
HETATM   17  C   UNL     1     -24.142   7.155 -11.476  1.00  0.00     0.103 C 
BRANCH  17  18
HETATM   18  C   UNL     1     -23.539   8.532 -11.513  1.00  0.00     0.218 C 
HETATM   19  O   UNL     1     -22.380   8.714 -11.148  1.00  0.00    -0.274 OA
HETATM   20  N   UNL     1     -24.377   9.536 -11.938  1.00  0.00    -0.350 N 
HETATM   21  H   UNL     1     -25.295   9.290 -12.293  1.00  0.00     0.163 HD
BRANCH  20  22
HETATM   22  C   UNL     1     -23.926  10.944 -12.064  1.00  0.00     0.046 C 
HETATM   23  C   UNL     1     -25.118  11.841 -12.455  1.00  0.00     0.040 C 
HETATM   24  C   UNL     1     -23.396  11.412 -10.693  1.00  0.00     0.040 C 
BRANCH  22  25
HETATM   25  C   UNL     1     -22.801  11.130 -13.129  1.00  0.00     0.194 C 
BRANCH  25  26
HETATM   26  O   UNL     1     -21.486  11.186 -12.568  1.00  0.00    -0.398 OA
HETATM   27  H   UNL     1     -21.011  11.893 -13.035  1.00  0.00     0.209 HD
ENDBRANCH  25  26
ENDBRANCH  22  25
ENDBRANCH  20  22
ENDBRANCH  17  18
ENDBRANCH  16  17
ENDBRANCH  15  16
ENDBRANCH   1  15
TORSDOF 19
ENDMDL
