MODEL 1
REMARK VINA RESULT:      -4.3      0.000      0.000
REMARK  23 active torsions:
REMARK  status: ('A' for Active; 'I' for Inactive)
REMARK    1  A    between atoms: C_2  and  C_3 
REMARK    2  A    between atoms: C_3  and  C_4 
REMARK    3  A    between atoms: C_4  and  C_5 
REMARK    4  A    between atoms: C_5  and  C_6 
REMARK    5  A    between atoms: C_6  and  C_7 
REMARK    6  A    between atoms: C_7  and  C_8 
REMARK    7  A    between atoms: C_8  and  C_9 
REMARK    8  A    between atoms: C_9  and  C_10 
REMARK    9  A    between atoms: C_10  and  C_11 
REMARK   10  A    between atoms: C_11  and  C_12 
REMARK   11  A    between atoms: C_12  and  C_13 
REMARK   12  A    between atoms: C_13  and  C_14 
REMARK   13  A    between atoms: C_14  and  C_15 
REMARK   14  A    between atoms: C_15  and  C_16 
REMARK   15  A    between atoms: C_16  and  C_17 
REMARK   16  A    between atoms: C_17  and  C_18 
REMARK       I    between atoms: C_18  and  N_20 
REMARK   17  A    between atoms: N_20  and  C_21 
REMARK   18  A    between atoms: C_21  and  C_22 
REMARK   19  A    between atoms: C_22  and  C_23 
REMARK   20  A    between atoms: C_23  and  N_24 
REMARK   21  A    between atoms: C_29  and  C_30 
REMARK   22  A    between atoms: C_29  and  O_33 
REMARK   23  A    between atoms: C_30  and  O_32 
ROOT
HETATM    1  C   UNL     2     -22.584  -2.850 -12.498  1.00  0.00     0.050 C 
HETATM    2  C   UNL     2     -23.893  -2.740 -13.251  1.00  0.00     0.211 C 
ENDROOT
BRANCH   2   3
HETATM    3  C   UNL     2     -23.751  -1.858 -14.471  1.00  0.00     0.169 C 
HETATM    4  O   UNL     2     -22.918  -1.981 -15.354  1.00  0.00    -0.648 OA
BRANCH   3   5
HETATM    5  O   UNL     2     -24.722  -0.899 -14.438  1.00  0.00    -0.775 OA
HETATM    6  H   UNL     2     -25.528  -1.235 -14.914  1.00  0.00     0.167 HD
ENDBRANCH   3   5
ENDBRANCH   2   3
BRANCH   2   7
HETATM    7  O   UNL     2     -24.207  -4.017 -13.840  1.00  0.00    -0.385 OA
HETATM    8  H   UNL     2     -23.397  -4.567 -13.800  1.00  0.00     0.210 HD
ENDBRANCH   2   7
TORSDOF 23
ENDMDL
MODEL 2
REMARK VINA RESULT:      -4.2      1.695      2.474
REMARK  23 active torsions:
REMARK  status: ('A' for Active; 'I' for Inactive)
REMARK    1  A    between atoms: C_2  and  C_3 
REMARK    2  A    between atoms: C_3  and  C_4 
REMARK    3  A    between atoms: C_4  and  C_5 
REMARK    4  A    between atoms: C_5  and  C_6 
REMARK    5  A    between atoms: C_6  and  C_7 
REMARK    6  A    between atoms: C_7  and  C_8 
REMARK    7  A    between atoms: C_8  and  C_9 
REMARK    8  A    between atoms: C_9  and  C_10 
REMARK    9  A    between atoms: C_10  and  C_11 
REMARK   10  A    between atoms: C_11  and  C_12 
REMARK   11  A    between atoms: C_12  and  C_13 
REMARK   12  A    between atoms: C_13  and  C_14 
REMARK   13  A    between atoms: C_14  and  C_15 
REMARK   14  A    between atoms: C_15  and  C_16 
REMARK   15  A    between atoms: C_16  and  C_17 
REMARK   16  A    between atoms: C_17  and  C_18 
REMARK       I    between atoms: C_18  and  N_20 
REMARK   17  A    between atoms: N_20  and  C_21 
REMARK   18  A    between atoms: C_21  and  C_22 
REMARK   19  A    between atoms: C_22  and  C_23 
REMARK   20  A    between atoms: C_23  and  N_24 
REMARK   21  A    between atoms: C_29  and  C_30 
REMARK   22  A    between atoms: C_29  and  O_33 
REMARK   23  A    between atoms: C_30  and  O_32 
ROOT
HETATM    1  C   UNL     2     -21.784  -2.920 -11.552  1.00  0.00     0.050 C 
HETATM    2  C   UNL     2     -22.762  -3.540 -12.527  1.00  0.00     0.211 C 
ENDROOT
BRANCH   2   3
HETATM    3  C   UNL     2     -24.139  -2.934 -12.381  1.00  0.00     0.169 C 
HETATM    4  O   UNL     2     -24.913  -3.122 -11.456  1.00  0.00    -0.648 OA
BRANCH   3   5
HETATM    5  O   UNL     2     -24.382  -2.123 -13.452  1.00  0.00    -0.775 OA
HETATM    6  H   UNL     2     -25.257  -1.668 -13.324  1.00  0.00     0.167 HD
ENDBRANCH   3   5
ENDBRANCH   2   3
BRANCH   2   7
HETATM    7  O   UNL     2     -22.403  -3.149 -13.867  1.00  0.00    -0.385 OA
HETATM    8  H   UNL     2     -23.208  -2.790 -14.294  1.00  0.00     0.210 HD
ENDBRANCH   2   7
TORSDOF 23
ENDMDL
MODEL 3
REMARK VINA RESULT:      -4.2     14.921     15.707
REMARK  23 active torsions:
REMARK  status: ('A' for Active; 'I' for Inactive)
REMARK    1  A    between atoms: C_2  and  C_3 
REMARK    2  A    between atoms: C_3  and  C_4 
REMARK    3  A    between atoms: C_4  and  C_5 
REMARK    4  A    between atoms: C_5  and  C_6 
REMARK    5  A    between atoms: C_6  and  C_7 
REMARK    6  A    between atoms: C_7  and  C_8 
REMARK    7  A    between atoms: C_8  and  C_9 
REMARK    8  A    between atoms: C_9  and  C_10 
REMARK    9  A    between atoms: C_10  and  C_11 
REMARK   10  A    between atoms: C_11  and  C_12 
REMARK   11  A    between atoms: C_12  and  C_13 
REMARK   12  A    between atoms: C_13  and  C_14 
REMARK   13  A    between atoms: C_14  and  C_15 
REMARK   14  A    between atoms: C_15  and  C_16 
REMARK   15  A    between atoms: C_16  and  C_17 
REMARK   16  A    between atoms: C_17  and  C_18 
REMARK       I    between atoms: C_18  and  N_20 
REMARK   17  A    between atoms: N_20  and  C_21 
REMARK   18  A    between atoms: C_21  and  C_22 
REMARK   19  A    between atoms: C_22  and  C_23 
REMARK   20  A    between atoms: C_23  and  N_24 
REMARK   21  A    between atoms: C_29  and  C_30 
REMARK   22  A    between atoms: C_29  and  O_33 
REMARK   23  A    between atoms: C_30  and  O_32 
ROOT
HETATM    1  C   UNL     2     -29.701 -14.100 -19.237  1.00  0.00     0.050 C 
HETATM    2  C   UNL     2     -29.556 -14.682 -20.627  1.00  0.00     0.211 C 
ENDROOT
BRANCH   2   3
HETATM    3  C   UNL     2     -30.905 -14.924 -21.263  1.00  0.00     0.169 C 
HETATM    4  O   UNL     2     -31.558 -14.110 -21.895  1.00  0.00    -0.648 OA
BRANCH   3   5
HETATM    5  O   UNL     2     -31.278 -16.216 -21.031  1.00  0.00    -0.775 OA
HETATM    6  H   UNL     2     -31.087 -16.444 -20.081  1.00  0.00     0.167 HD
ENDBRANCH   3   5
ENDBRANCH   2   3
BRANCH   2   7
HETATM    7  O   UNL     2     -28.987 -13.685 -21.498  1.00  0.00    -0.385 OA
HETATM    8  H   UNL     2     -29.076 -12.818 -21.051  1.00  0.00     0.210 HD
ENDBRANCH   2   7
TORSDOF 23
ENDMDL
MODEL 4
REMARK VINA RESULT:      -4.2      4.950      5.849
REMARK  23 active torsions:
REMARK  status: ('A' for Active; 'I' for Inactive)
REMARK    1  A    between atoms: C_2  and  C_3 
REMARK    2  A    between atoms: C_3  and  C_4 
REMARK    3  A    between atoms: C_4  and  C_5 
REMARK    4  A    between atoms: C_5  and  C_6 
REMARK    5  A    between atoms: C_6  and  C_7 
REMARK    6  A    between atoms: C_7  and  C_8 
REMARK    7  A    between atoms: C_8  and  C_9 
REMARK    8  A    between atoms: C_9  and  C_10 
REMARK    9  A    between atoms: C_10  and  C_11 
REMARK   10  A    between atoms: C_11  and  C_12 
REMARK   11  A    between atoms: C_12  and  C_13 
REMARK   12  A    between atoms: C_13  and  C_14 
REMARK   13  A    between atoms: C_14  and  C_15 
REMARK   14  A    between atoms: C_15  and  C_16 
REMARK   15  A    between atoms: C_16  and  C_17 
REMARK   16  A    between atoms: C_17  and  C_18 
REMARK       I    between atoms: C_18  and  N_20 
REMARK   17  A    between atoms: N_20  and  C_21 
REMARK   18  A    between atoms: C_21  and  C_22 
REMARK   19  A    between atoms: C_22  and  C_23 
REMARK   20  A    between atoms: C_23  and  N_24 
REMARK   21  A    between atoms: C_29  and  C_30 
REMARK   22  A    between atoms: C_29  and  O_33 
REMARK   23  A    between atoms: C_30  and  O_32 
ROOT
HETATM    1  C   UNL     2     -26.981  -6.615 -16.170  1.00  0.00     0.050 C 
HETATM    2  C   UNL     2     -25.558  -6.809 -15.692  1.00  0.00     0.211 C 
ENDROOT
BRANCH   2   3
HETATM    3  C   UNL     2     -24.661  -7.277 -16.815  1.00  0.00     0.169 C 
HETATM    4  O   UNL     2     -24.660  -6.851 -17.959  1.00  0.00    -0.648 OA
BRANCH   3   5
HETATM    5  O   UNL     2     -23.832  -8.252 -16.342  1.00  0.00    -0.775 OA
HETATM    6  H   UNL     2     -22.888  -7.981 -16.497  1.00  0.00     0.167 HD
ENDBRANCH   3   5
ENDBRANCH   2   3
BRANCH   2   7
HETATM    7  O   UNL     2     -24.990  -5.524 -15.370  1.00  0.00    -0.385 OA
HETATM    8  H   UNL     2     -25.425  -4.859 -15.942  1.00  0.00     0.210 HD
ENDBRANCH   2   7
TORSDOF 23
ENDMDL
MODEL 5
REMARK VINA RESULT:      -4.1     14.255     15.070
REMARK  23 active torsions:
REMARK  status: ('A' for Active; 'I' for Inactive)
REMARK    1  A    between atoms: C_2  and  C_3 
REMARK    2  A    between atoms: C_3  and  C_4 
REMARK    3  A    between atoms: C_4  and  C_5 
REMARK    4  A    between atoms: C_5  and  C_6 
REMARK    5  A    between atoms: C_6  and  C_7 
REMARK    6  A    between atoms: C_7  and  C_8 
REMARK    7  A    between atoms: C_8  and  C_9 
REMARK    8  A    between atoms: C_9  and  C_10 
REMARK    9  A    between atoms: C_10  and  C_11 
REMARK   10  A    between atoms: C_11  and  C_12 
REMARK   11  A    between atoms: C_12  and  C_13 
REMARK   12  A    between atoms: C_13  and  C_14 
REMARK   13  A    between atoms: C_14  and  C_15 
REMARK   14  A    between atoms: C_15  and  C_16 
REMARK   15  A    between atoms: C_16  and  C_17 
REMARK   16  A    between atoms: C_17  and  C_18 
REMARK       I    between atoms: C_18  and  N_20 
REMARK   17  A    between atoms: N_20  and  C_21 
REMARK   18  A    between atoms: C_21  and  C_22 
REMARK   19  A    between atoms: C_22  and  C_23 
REMARK   20  A    between atoms: C_23  and  N_24 
REMARK   21  A    between atoms: C_29  and  C_30 
REMARK   22  A    between atoms: C_29  and  O_33 
REMARK   23  A    between atoms: C_30  and  O_32 
ROOT
HETATM    1  C   UNL     2     -29.580 -16.117 -20.996  1.00  0.00     0.050 C 
HETATM    2  C   UNL     2     -29.978 -14.658 -20.926  1.00  0.00     0.211 C 
ENDROOT
BRANCH   2   3
HETATM    3  C   UNL     2     -29.974 -14.157 -19.500  1.00  0.00     0.169 C 
HETATM    4  O   UNL     2     -29.331 -13.212 -19.073  1.00  0.00    -0.648 OA
BRANCH   3   5
HETATM    5  O   UNL     2     -30.823 -14.926 -18.758  1.00  0.00    -0.775 OA
HETATM    6  H   UNL     2     -31.727 -14.511 -18.765  1.00  0.00     0.167 HD
ENDBRANCH   3   5
ENDBRANCH   2   3
BRANCH   2   7
HETATM    7  O   UNL     2     -28.941 -13.858 -21.529  1.00  0.00    -0.385 OA
HETATM    8  H   UNL     2     -29.373 -13.089 -21.953  1.00  0.00     0.210 HD
ENDBRANCH   2   7
TORSDOF 23
ENDMDL
MODEL 6
REMARK VINA RESULT:      -4.0      3.834      4.568
REMARK  23 active torsions:
REMARK  status: ('A' for Active; 'I' for Inactive)
REMARK    1  A    between atoms: C_2  and  C_3 
REMARK    2  A    between atoms: C_3  and  C_4 
REMARK    3  A    between atoms: C_4  and  C_5 
REMARK    4  A    between atoms: C_5  and  C_6 
REMARK    5  A    between atoms: C_6  and  C_7 
REMARK    6  A    between atoms: C_7  and  C_8 
REMARK    7  A    between atoms: C_8  and  C_9 
REMARK    8  A    between atoms: C_9  and  C_10 
REMARK    9  A    between atoms: C_10  and  C_11 
REMARK   10  A    between atoms: C_11  and  C_12 
REMARK   11  A    between atoms: C_12  and  C_13 
REMARK   12  A    between atoms: C_13  and  C_14 
REMARK   13  A    between atoms: C_14  and  C_15 
REMARK   14  A    between atoms: C_15  and  C_16 
REMARK   15  A    between atoms: C_16  and  C_17 
REMARK   16  A    between atoms: C_17  and  C_18 
REMARK       I    between atoms: C_18  and  N_20 
REMARK   17  A    between atoms: N_20  and  C_21 
REMARK   18  A    between atoms: C_21  and  C_22 
REMARK   19  A    between atoms: C_22  and  C_23 
REMARK   20  A    between atoms: C_23  and  N_24 
REMARK   21  A    between atoms: C_29  and  C_30 
REMARK   22  A    between atoms: C_29  and  O_33 
REMARK   23  A    between atoms: C_30  and  O_32 
ROOT
HETATM    1  C   UNL     2     -22.502  -4.491  -9.898  1.00  0.00     0.050 C 
HETATM    2  C   UNL     2     -23.482  -3.469  -9.363  1.00  0.00     0.211 C 
ENDROOT
BRANCH   2   3
HETATM    3  C   UNL     2     -24.625  -3.249 -10.327  1.00  0.00     0.169 C 
HETATM    4  O   UNL     2     -24.526  -3.053 -11.527  1.00  0.00    -0.648 OA
BRANCH   3   5
HETATM    5  O   UNL     2     -25.803  -3.317  -9.639  1.00  0.00    -0.775 OA
HETATM    6  H   UNL     2     -26.101  -4.264  -9.598  1.00  0.00     0.167 HD
ENDBRANCH   3   5
ENDBRANCH   2   3
BRANCH   2   7
HETATM    7  O   UNL     2     -24.158  -4.021  -8.216  1.00  0.00    -0.385 OA
HETATM    8  H   UNL     2     -24.432  -3.272  -7.648  1.00  0.00     0.210 HD
ENDBRANCH   2   7
TORSDOF 23
ENDMDL
MODEL 7
REMARK VINA RESULT:      -4.0      1.549      2.042
REMARK  23 active torsions:
REMARK  status: ('A' for Active; 'I' for Inactive)
REMARK    1  A    between atoms: C_2  and  C_3 
REMARK    2  A    between atoms: C_3  and  C_4 
REMARK    3  A    between atoms: C_4  and  C_5 
REMARK    4  A    between atoms: C_5  and  C_6 
REMARK    5  A    between atoms: C_6  and  C_7 
REMARK    6  A    between atoms: C_7  and  C_8 
REMARK    7  A    between atoms: C_8  and  C_9 
REMARK    8  A    between atoms: C_9  and  C_10 
REMARK    9  A    between atoms: C_10  and  C_11 
REMARK   10  A    between atoms: C_11  and  C_12 
REMARK   11  A    between atoms: C_12  and  C_13 
REMARK   12  A    between atoms: C_13  and  C_14 
REMARK   13  A    between atoms: C_14  and  C_15 
REMARK   14  A    between atoms: C_15  and  C_16 
REMARK   15  A    between atoms: C_16  and  C_17 
REMARK   16  A    between atoms: C_17  and  C_18 
REMARK       I    between atoms: C_18  and  N_20 
REMARK   17  A    between atoms: N_20  and  C_21 
REMARK   18  A    between atoms: C_21  and  C_22 
REMARK   19  A    between atoms: C_22  and  C_23 
REMARK   20  A    between atoms: C_23  and  N_24 
REMARK   21  A    between atoms: C_29  and  C_30 
REMARK   22  A    between atoms: C_29  and  O_33 
REMARK   23  A    between atoms: C_30  and  O_32 
ROOT
HETATM    1  C   UNL     2     -23.647  -4.013 -11.537  1.00  0.00     0.050 C 
HETATM    2  C   UNL     2     -24.018  -2.878 -12.468  1.00  0.00     0.211 C 
ENDROOT
BRANCH   2   3
HETATM    3  C   UNL     2     -23.220  -2.939 -13.751  1.00  0.00     0.169 C 
HETATM    4  O   UNL     2     -23.611  -2.601 -14.857  1.00  0.00    -0.648 OA
BRANCH   3   5
HETATM    5  O   UNL     2     -21.974  -3.423 -13.475  1.00  0.00    -0.775 OA
HETATM    6  H   UNL     2     -22.044  -4.111 -12.760  1.00  0.00     0.167 HD
ENDBRANCH   3   5
ENDBRANCH   2   3
BRANCH   2   7
HETATM    7  O   UNL     2     -25.364  -3.079 -12.942  1.00  0.00    -0.385 OA
HETATM    8  H   UNL     2     -25.352  -3.850 -13.545  1.00  0.00     0.210 HD
ENDBRANCH   2   7
TORSDOF 23
ENDMDL
MODEL 8
REMARK VINA RESULT:      -3.9      9.840     10.468
REMARK  23 active torsions:
REMARK  status: ('A' for Active; 'I' for Inactive)
REMARK    1  A    between atoms: C_2  and  C_3 
REMARK    2  A    between atoms: C_3  and  C_4 
REMARK    3  A    between atoms: C_4  and  C_5 
REMARK    4  A    between atoms: C_5  and  C_6 
REMARK    5  A    between atoms: C_6  and  C_7 
REMARK    6  A    between atoms: C_7  and  C_8 
REMARK    7  A    between atoms: C_8  and  C_9 
REMARK    8  A    between atoms: C_9  and  C_10 
REMARK    9  A    between atoms: C_10  and  C_11 
REMARK   10  A    between atoms: C_11  and  C_12 
REMARK   11  A    between atoms: C_12  and  C_13 
REMARK   12  A    between atoms: C_13  and  C_14 
REMARK   13  A    between atoms: C_14  and  C_15 
REMARK   14  A    between atoms: C_15  and  C_16 
REMARK   15  A    between atoms: C_16  and  C_17 
REMARK   16  A    between atoms: C_17  and  C_18 
REMARK       I    between atoms: C_18  and  N_20 
REMARK   17  A    between atoms: N_20  and  C_21 
REMARK   18  A    between atoms: C_21  and  C_22 
REMARK   19  A    between atoms: C_22  and  C_23 
REMARK   20  A    between atoms: C_23  and  N_24 
REMARK   21  A    between atoms: C_29  and  C_30 
REMARK   22  A    between atoms: C_29  and  O_33 
REMARK   23  A    between atoms: C_30  and  O_32 
ROOT
HETATM    1  C   UNL     2     -33.203  -2.957 -11.116  1.00  0.00     0.050 C 
HETATM    2  C   UNL     2     -33.415  -4.302 -11.778  1.00  0.00     0.211 C 
ENDROOT
BRANCH   2   3
HETATM    3  C   UNL     2     -34.301  -4.180 -12.997  1.00  0.00     0.169 C 
HETATM    4  O   UNL     2     -34.384  -3.210 -13.731  1.00  0.00    -0.648 OA
BRANCH   3   5
HETATM    5  O   UNL     2     -34.994  -5.345 -13.158  1.00  0.00    -0.775 OA
HETATM    6  H   UNL     2     -35.968  -5.155 -13.097  1.00  0.00     0.167 HD
ENDBRANCH   3   5
ENDBRANCH   2   3
BRANCH   2   7
HETATM    7  O   UNL     2     -32.171  -4.745 -12.355  1.00  0.00    -0.385 OA
HETATM    8  H   UNL     2     -32.378  -5.467 -12.983  1.00  0.00     0.210 HD
ENDBRANCH   2   7
TORSDOF 23
ENDMDL
MODEL 9
REMARK VINA RESULT:      -3.9      3.262      4.194
REMARK  23 active torsions:
REMARK  status: ('A' for Active; 'I' for Inactive)
REMARK    1  A    between atoms: C_2  and  C_3 
REMARK    2  A    between atoms: C_3  and  C_4 
REMARK    3  A    between atoms: C_4  and  C_5 
REMARK    4  A    between atoms: C_5  and  C_6 
REMARK    5  A    between atoms: C_6  and  C_7 
REMARK    6  A    between atoms: C_7  and  C_8 
REMARK    7  A    between atoms: C_8  and  C_9 
REMARK    8  A    between atoms: C_9  and  C_10 
REMARK    9  A    between atoms: C_10  and  C_11 
REMARK   10  A    between atoms: C_11  and  C_12 
REMARK   11  A    between atoms: C_12  and  C_13 
REMARK   12  A    between atoms: C_13  and  C_14 
REMARK   13  A    between atoms: C_14  and  C_15 
REMARK   14  A    between atoms: C_15  and  C_16 
REMARK   15  A    between atoms: C_16  and  C_17 
REMARK   16  A    between atoms: C_17  and  C_18 
REMARK       I    between atoms: C_18  and  N_20 
REMARK   17  A    between atoms: N_20  and  C_21 
REMARK   18  A    between atoms: C_21  and  C_22 
REMARK   19  A    between atoms: C_22  and  C_23 
REMARK   20  A    between atoms: C_23  and  N_24 
REMARK   21  A    between atoms: C_29  and  C_30 
REMARK   22  A    between atoms: C_29  and  O_33 
REMARK   23  A    between atoms: C_30  and  O_32 
ROOT
HETATM    1  C   UNL     2     -22.838  -2.860 -11.747  1.00  0.00     0.050 C 
HETATM    2  C   UNL     2     -24.090  -3.633 -11.391  1.00  0.00     0.211 C 
ENDROOT
BRANCH   2   3
HETATM    3  C   UNL     2     -24.426  -3.489  -9.925  1.00  0.00     0.169 C 
HETATM    4  O   UNL     2     -23.644  -3.597  -8.995  1.00  0.00    -0.648 OA
BRANCH   3   5
HETATM    5  O   UNL     2     -25.754  -3.202  -9.801  1.00  0.00    -0.775 OA
HETATM    6  H   UNL     2     -26.281  -3.869 -10.319  1.00  0.00     0.167 HD
ENDBRANCH   3   5
ENDBRANCH   2   3
BRANCH   2   7
HETATM    7  O   UNL     2     -25.225  -3.006 -12.022  1.00  0.00    -0.385 OA
HETATM    8  H   UNL     2     -25.425  -2.188 -11.522  1.00  0.00     0.210 HD
ENDBRANCH   2   7
TORSDOF 23
ENDMDL
