MODEL 1
REMARK VINA RESULT:      -7.8      0.000      0.000
REMARK  6 active torsions:
REMARK  status: ('A' for Active; 'I' for Inactive)
REMARK    1  A    between atoms: C_5  and  C_33 
REMARK    2  A    between atoms: C_19  and  O_26 
REMARK    3  A    between atoms: C_20  and  O_25 
REMARK    4  A    between atoms: C_21  and  C_23 
REMARK    5  A    between atoms: C_23  and  O_24 
REMARK    6  A    between atoms: C_33  and  O_35 
ROOT
HETATM    1  C   UNL     1     -22.321  -6.207  -1.902  1.00  0.00     0.010 C 
HETATM    2  C   UNL     1     -21.431  -7.329  -1.351  1.00  0.00    -0.014 C 
HETATM    3  C   UNL     1     -22.339  -8.238  -0.516  1.00  0.00     0.006 C 
HETATM    4  C   UNL     1     -21.487  -9.221   0.272  1.00  0.00     0.021 C 
HETATM    5  C   UNL     1     -20.834 -10.205  -0.704  1.00  0.00     0.053 C 
HETATM    6  C   UNL     1     -20.080 -11.284   0.063  1.00  0.00     0.022 C 
HETATM    7  C   UNL     1     -19.508 -12.283  -0.947  1.00  0.00     0.016 C 
HETATM    8  C   UNL     1     -18.387 -11.645  -1.752  1.00  0.00    -0.013 C 
HETATM    9  C   UNL     1     -18.521 -10.169  -2.191  1.00  0.00    -0.069 C 
HETATM   10  C   UNL     1     -17.465  -9.769  -2.999  1.00  0.00    -0.022 C 
HETATM   11  C   UNL     1     -16.327 -10.801  -3.664  1.00  0.00     0.033 C 
HETATM   12  C   UNL     1     -16.538 -12.307  -3.226  1.00  0.00     0.007 C 
HETATM   13  C   UNL     1     -18.092 -12.426  -3.173  1.00  0.00    -0.028 C 
HETATM   14  C   UNL     1     -18.557 -13.871  -3.492  1.00  0.00     0.011 C 
HETATM   15  C   UNL     1     -17.726 -14.522  -4.660  1.00  0.00     0.007 C 
HETATM   16  C   UNL     1     -16.169 -14.548  -4.514  1.00  0.00     0.007 C 
HETATM   17  C   UNL     1     -15.738 -13.729  -3.284  1.00  0.00    -0.033 C 
HETATM   18  C   UNL     1     -14.194 -13.611  -3.022  1.00  0.00     0.044 C 
HETATM   19  C   UNL     1     -13.288 -14.127  -4.120  1.00  0.00     0.148 C 
HETATM   20  C   UNL     1     -13.873 -13.740  -5.466  1.00  0.00     0.157 C 
HETATM   21  C   UNL     1     -15.258 -14.387  -5.807  1.00  0.00     0.010 C 
HETATM   22  C   UNL     1     -15.065 -15.804  -6.428  1.00  0.00     0.020 C 
HETATM   23  C   UNL     1     -16.112 -14.694  -2.048  1.00  0.00     0.016 C 
HETATM   24  C   UNL     1     -18.886 -11.703  -4.412  1.00  0.00     0.016 C 
HETATM   25  C   UNL     1     -19.787  -9.367  -1.610  1.00  0.00     0.038 C 
HETATM   26  C   UNL     1     -20.526  -8.148  -2.371  1.00  0.00    -0.005 C 
HETATM   27  C   UNL     1     -21.312  -8.497  -3.644  1.00  0.00     0.011 C 
HETATM   28  C   UNL     1     -17.218 -11.582  -0.635  1.00  0.00     0.021 C 
ENDROOT
BRANCH   5  29
HETATM   29  C   UNL     1     -22.054 -11.002  -1.288  1.00  0.00     0.149 C 
HETATM   30  O   UNL     1     -22.243 -11.139  -2.508  1.00  0.00    -0.649 OA
BRANCH  29  31
HETATM   31  O   UNL     1     -22.973 -11.447  -0.417  1.00  0.00    -0.776 OA
HETATM   32  H   UNL     1     -23.854 -11.115  -0.606  1.00  0.00     0.167 HD
ENDBRANCH  29  31
ENDBRANCH   5  29
BRANCH  21  33
HETATM   33  C   UNL     1     -15.886 -13.497  -6.908  1.00  0.00     0.176 C 
BRANCH  33  34
HETATM   34  O   UNL     1     -15.383 -12.161  -6.905  1.00  0.00    -0.400 OA
HETATM   35  H   UNL     1     -16.132 -11.542  -6.765  1.00  0.00     0.209 HD
ENDBRANCH  33  34
ENDBRANCH  21  33
BRANCH  19  36
HETATM   36  O   UNL     1     -13.039 -15.531  -4.052  1.00  0.00    -0.393 OA
HETATM   37  H   UNL     1     -13.354 -15.882  -3.202  1.00  0.00     0.210 HD
ENDBRANCH  19  36
BRANCH  20  38
HETATM   38  O   UNL     1     -12.912 -14.013  -6.493  1.00  0.00    -0.392 OA
HETATM   39  H   UNL     1     -12.313 -13.238  -6.516  1.00  0.00     0.210 HD
ENDBRANCH  20  38
TORSDOF 6
ENDMDL
MODEL 2
REMARK VINA RESULT:      -7.0      1.600      2.160
REMARK  6 active torsions:
REMARK  status: ('A' for Active; 'I' for Inactive)
REMARK    1  A    between atoms: C_5  and  C_33 
REMARK    2  A    between atoms: C_19  and  O_26 
REMARK    3  A    between atoms: C_20  and  O_25 
REMARK    4  A    between atoms: C_21  and  C_23 
REMARK    5  A    between atoms: C_23  and  O_24 
REMARK    6  A    between atoms: C_33  and  O_35 
ROOT
HETATM    1  C   UNL     1     -22.346  -5.986  -5.692  1.00  0.00     0.010 C 
HETATM    2  C   UNL     1     -21.275  -6.605  -4.784  1.00  0.00    -0.014 C 
HETATM    3  C   UNL     1     -21.925  -6.806  -3.412  1.00  0.00     0.006 C 
HETATM    4  C   UNL     1     -20.858  -7.172  -2.393  1.00  0.00     0.021 C 
HETATM    5  C   UNL     1     -20.322  -8.571  -2.717  1.00  0.00     0.053 C 
HETATM    6  C   UNL     1     -19.346  -9.022  -1.637  1.00  0.00     0.022 C 
HETATM    7  C   UNL     1     -18.894 -10.449  -1.962  1.00  0.00     0.016 C 
HETATM    8  C   UNL     1     -18.006 -10.459  -3.196  1.00  0.00    -0.013 C 
HETATM    9  C   UNL     1     -18.347  -9.521  -4.377  1.00  0.00    -0.069 C 
HETATM   10  C   UNL     1     -17.502  -9.722  -5.460  1.00  0.00    -0.022 C 
HETATM   11  C   UNL     1     -16.428 -10.997  -5.611  1.00  0.00     0.033 C 
HETATM   12  C   UNL     1     -16.423 -11.944  -4.343  1.00  0.00     0.007 C 
HETATM   13  C   UNL     1     -17.922 -11.940  -3.914  1.00  0.00    -0.028 C 
HETATM   14  C   UNL     1     -18.315 -13.273  -3.225  1.00  0.00     0.011 C 
HETATM   15  C   UNL     1     -17.670 -14.523  -3.930  1.00  0.00     0.007 C 
HETATM   16  C   UNL     1     -16.116 -14.528  -4.119  1.00  0.00     0.007 C 
HETATM   17  C   UNL     1     -15.530 -13.161  -3.720  1.00  0.00    -0.033 C 
HETATM   18  C   UNL     1     -13.981 -12.980  -3.899  1.00  0.00     0.044 C 
HETATM   19  C   UNL     1     -13.260 -14.084  -4.644  1.00  0.00     0.148 C 
HETATM   20  C   UNL     1     -14.122 -14.540  -5.807  1.00  0.00     0.157 C 
HETATM   21  C   UNL     1     -15.486 -15.201  -5.413  1.00  0.00     0.010 C 
HETATM   22  C   UNL     1     -15.295 -16.718  -5.111  1.00  0.00     0.020 C 
HETATM   23  C   UNL     1     -15.578 -13.194  -2.110  1.00  0.00     0.016 C 
HETATM   24  C   UNL     1     -18.997 -12.051  -5.148  1.00  0.00     0.016 C 
HETATM   25  C   UNL     1     -19.543  -8.476  -4.132  1.00  0.00     0.038 C 
HETATM   26  C   UNL     1     -20.514  -7.908  -5.291  1.00  0.00    -0.005 C 
HETATM   27  C   UNL     1     -21.496  -8.905  -5.926  1.00  0.00     0.011 C 
HETATM   28  C   UNL     1     -16.655  -9.802  -2.595  1.00  0.00     0.021 C 
ENDROOT
BRANCH   5  29
HETATM   29  C   UNL     1     -21.558  -9.503  -2.459  1.00  0.00     0.149 C 
HETATM   30  O   UNL     1     -21.977 -10.310  -3.306  1.00  0.00    -0.649 OA
BRANCH  29  31
HETATM   31  O   UNL     1     -22.240  -9.323  -1.317  1.00  0.00    -0.776 OA
HETATM   32  H   UNL     1     -22.758  -8.515  -1.318  1.00  0.00     0.167 HD
ENDBRANCH  29  31
ENDBRANCH   5  29
BRANCH  21  33
HETATM   33  C   UNL     1     -16.386 -15.104  -6.670  1.00  0.00     0.176 C 
BRANCH  33  34
HETATM   34  O   UNL     1     -16.188 -16.178  -7.588  1.00  0.00    -0.400 OA
HETATM   35  H   UNL     1     -16.807 -16.906  -7.362  1.00  0.00     0.209 HD
ENDBRANCH  33  34
ENDBRANCH  21  33
BRANCH  19  36
HETATM   36  O   UNL     1     -12.884 -15.188  -3.819  1.00  0.00    -0.393 OA
HETATM   37  H   UNL     1     -13.655 -15.754  -3.652  1.00  0.00     0.210 HD
ENDBRANCH  19  36
BRANCH  20  38
HETATM   38  O   UNL     1     -13.354 -15.408  -6.650  1.00  0.00    -0.392 OA
HETATM   39  H   UNL     1     -12.461 -15.008  -6.709  1.00  0.00     0.210 HD
ENDBRANCH  20  38
TORSDOF 6
ENDMDL
MODEL 3
REMARK VINA RESULT:      -7.0      2.504      8.345
REMARK  6 active torsions:
REMARK  status: ('A' for Active; 'I' for Inactive)
REMARK    1  A    between atoms: C_5  and  C_33 
REMARK    2  A    between atoms: C_19  and  O_26 
REMARK    3  A    between atoms: C_20  and  O_25 
REMARK    4  A    between atoms: C_21  and  C_23 
REMARK    5  A    between atoms: C_23  and  O_24 
REMARK    6  A    between atoms: C_33  and  O_35 
ROOT
HETATM    1  C   UNL     1     -14.615 -16.238  -5.835  1.00  0.00     0.010 C 
HETATM    2  C   UNL     1     -15.449 -14.972  -6.074  1.00  0.00    -0.014 C 
HETATM    3  C   UNL     1     -16.289 -15.230  -7.328  1.00  0.00     0.006 C 
HETATM    4  C   UNL     1     -16.945 -13.934  -7.777  1.00  0.00     0.021 C 
HETATM    5  C   UNL     1     -18.002 -13.529  -6.744  1.00  0.00     0.053 C 
HETATM    6  C   UNL     1     -18.770 -12.306  -7.229  1.00  0.00     0.022 C 
HETATM    7  C   UNL     1     -19.860 -11.983  -6.203  1.00  0.00     0.016 C 
HETATM    8  C   UNL     1     -19.244 -11.463  -4.915  1.00  0.00    -0.013 C 
HETATM    9  C   UNL     1     -17.931 -12.094  -4.400  1.00  0.00    -0.069 C 
HETATM   10  C   UNL     1     -17.555 -11.578  -3.167  1.00  0.00    -0.022 C 
HETATM   11  C   UNL     1     -18.519 -10.607  -2.203  1.00  0.00     0.033 C 
HETATM   12  C   UNL     1     -19.914 -10.275  -2.873  1.00  0.00     0.007 C 
HETATM   13  C   UNL     1     -20.253 -11.602  -3.619  1.00  0.00    -0.028 C 
HETATM   14  C   UNL     1     -21.786 -11.817  -3.719  1.00  0.00     0.011 C 
HETATM   15  C   UNL     1     -22.534 -11.408  -2.396  1.00  0.00     0.007 C 
HETATM   16  C   UNL     1     -22.294  -9.964  -1.844  1.00  0.00     0.007 C 
HETATM   17  C   UNL     1     -21.180  -9.268  -2.647  1.00  0.00    -0.033 C 
HETATM   18  C   UNL     1     -20.778  -7.822  -2.185  1.00  0.00     0.044 C 
HETATM   19  C   UNL     1     -21.370  -7.349  -0.874  1.00  0.00     0.148 C 
HETATM   20  C   UNL     1     -21.367  -8.501   0.113  1.00  0.00     0.157 C 
HETATM   21  C   UNL     1     -22.272  -9.719  -0.273  1.00  0.00     0.010 C 
HETATM   22  C   UNL     1     -23.742  -9.480   0.187  1.00  0.00     0.020 C 
HETATM   23  C   UNL     1     -21.908  -8.879  -4.030  1.00  0.00     0.016 C 
HETATM   24  C   UNL     1     -19.934 -12.972  -2.776  1.00  0.00     0.016 C 
HETATM   25  C   UNL     1     -17.225 -13.161  -5.373  1.00  0.00     0.038 C 
HETATM   26  C   UNL     1     -16.319 -14.399  -4.870  1.00  0.00    -0.005 C 
HETATM   27  C   UNL     1     -17.041 -15.534  -4.127  1.00  0.00     0.011 C 
HETATM   28  C   UNL     1     -18.773  -9.988  -5.386  1.00  0.00     0.021 C 
ENDROOT
BRANCH   5  29
HETATM   29  C   UNL     1     -19.079 -14.666  -6.861  1.00  0.00     0.149 C 
HETATM   30  O   UNL     1     -19.504 -15.077  -7.953  1.00  0.00    -0.649 OA
BRANCH  29  31
HETATM   31  O   UNL     1     -19.628 -15.115  -5.722  1.00  0.00    -0.776 OA
HETATM   32  H   UNL     1     -19.033 -15.049  -4.972  1.00  0.00     0.167 HD
ENDBRANCH  29  31
ENDBRANCH   5  29
BRANCH  21  33
HETATM   33  C   UNL     1     -21.738 -10.924   0.540  1.00  0.00     0.176 C 
BRANCH  33  34
HETATM   34  O   UNL     1     -20.464 -10.679   1.135  1.00  0.00    -0.400 OA
HETATM   35  H   UNL     1     -19.845 -11.391   0.861  1.00  0.00     0.209 HD
ENDBRANCH  33  34
ENDBRANCH  21  33
BRANCH  19  36
HETATM   36  O   UNL     1     -22.675  -6.783  -1.001  1.00  0.00    -0.393 OA
HETATM   37  H   UNL     1     -22.757  -6.330  -1.856  1.00  0.00     0.210 HD
ENDBRANCH  19  36
BRANCH  20  38
HETATM   38  O   UNL     1     -21.701  -8.006   1.415  1.00  0.00    -0.392 OA
HETATM   39  H   UNL     1     -21.304  -7.112   1.475  1.00  0.00     0.210 HD
ENDBRANCH  20  38
TORSDOF 6
ENDMDL
MODEL 4
REMARK VINA RESULT:      -7.0      1.834      4.104
REMARK  6 active torsions:
REMARK  status: ('A' for Active; 'I' for Inactive)
REMARK    1  A    between atoms: C_5  and  C_33 
REMARK    2  A    between atoms: C_19  and  O_26 
REMARK    3  A    between atoms: C_20  and  O_25 
REMARK    4  A    between atoms: C_21  and  C_23 
REMARK    5  A    between atoms: C_23  and  O_24 
REMARK    6  A    between atoms: C_33  and  O_35 
ROOT
HETATM    1  C   UNL     1     -23.871 -13.782   1.753  1.00  0.00     0.010 C 
HETATM    2  C   UNL     1     -23.443 -13.091   0.452  1.00  0.00    -0.014 C 
HETATM    3  C   UNL     1     -23.784 -11.606   0.611  1.00  0.00     0.006 C 
HETATM    4  C   UNL     1     -23.631 -10.903  -0.728  1.00  0.00     0.021 C 
HETATM    5  C   UNL     1     -22.145 -10.867  -1.103  1.00  0.00     0.053 C 
HETATM    6  C   UNL     1     -21.943 -10.053  -2.375  1.00  0.00     0.022 C 
HETATM    7  C   UNL     1     -20.442  -9.983  -2.669  1.00  0.00     0.016 C 
HETATM    8  C   UNL     1     -19.917 -11.345  -3.095  1.00  0.00    -0.013 C 
HETATM    9  C   UNL     1     -20.459 -12.612  -2.396  1.00  0.00    -0.069 C 
HETATM   10  C   UNL     1     -19.810 -13.761  -2.827  1.00  0.00    -0.022 C 
HETATM   11  C   UNL     1     -18.426 -13.780  -3.769  1.00  0.00     0.033 C 
HETATM   12  C   UNL     1     -17.947 -12.328  -4.180  1.00  0.00     0.007 C 
HETATM   13  C   UNL     1     -18.286 -11.491  -2.909  1.00  0.00    -0.028 C 
HETATM   14  C   UNL     1     -17.311 -10.295  -2.747  1.00  0.00     0.011 C 
HETATM   15  C   UNL     1     -15.827 -10.682  -3.099  1.00  0.00     0.007 C 
HETATM   16  C   UNL     1     -15.559 -11.324  -4.501  1.00  0.00     0.007 C 
HETATM   17  C   UNL     1     -16.891 -11.627  -5.209  1.00  0.00    -0.033 C 
HETATM   18  C   UNL     1     -16.800 -12.324  -6.613  1.00  0.00     0.044 C 
HETATM   19  C   UNL     1     -15.431 -12.820  -7.026  1.00  0.00     0.148 C 
HETATM   20  C   UNL     1     -14.740 -13.427  -5.819  1.00  0.00     0.157 C 
HETATM   21  C   UNL     1     -14.427 -12.430  -4.652  1.00  0.00     0.010 C 
HETATM   22  C   UNL     1     -13.078 -11.692  -4.908  1.00  0.00     0.020 C 
HETATM   23  C   UNL     1     -17.388 -10.175  -5.700  1.00  0.00     0.016 C 
HETATM   24  C   UNL     1     -17.923 -12.215  -1.484  1.00  0.00     0.016 C 
HETATM   25  C   UNL     1     -21.675 -12.393  -1.367  1.00  0.00     0.038 C 
HETATM   26  C   UNL     1     -21.959 -13.319  -0.075  1.00  0.00    -0.005 C 
HETATM   27  C   UNL     1     -20.948 -13.233   1.079  1.00  0.00     0.011 C 
HETATM   28  C   UNL     1     -20.550 -11.455  -4.580  1.00  0.00     0.021 C 
ENDROOT
BRANCH   5  29
HETATM   29  C   UNL     1     -21.516  -9.935  -0.007  1.00  0.00     0.149 C 
HETATM   30  O   UNL     1     -20.563 -10.288   0.707  1.00  0.00    -0.649 OA
BRANCH  29  31
HETATM   31  O   UNL     1     -22.121  -8.760   0.224  1.00  0.00    -0.776 OA
HETATM   32  H   UNL     1     -21.562  -8.142   0.701  1.00  0.00     0.167 HD
ENDBRANCH  29  31
ENDBRANCH   5  29
BRANCH  21  33
HETATM   33  C   UNL     1     -14.229 -13.300  -3.387  1.00  0.00     0.176 C 
BRANCH  33  34
HETATM   34  O   UNL     1     -12.911 -13.836  -3.273  1.00  0.00    -0.400 OA
HETATM   35  H   UNL     1     -12.827 -14.289  -2.406  1.00  0.00     0.209 HD
ENDBRANCH  33  34
ENDBRANCH  21  33
BRANCH  19  36
HETATM   36  O   UNL     1     -14.614 -11.821  -7.637  1.00  0.00    -0.393 OA
HETATM   37  H   UNL     1     -14.997 -10.941  -7.484  1.00  0.00     0.210 HD
ENDBRANCH  19  36
BRANCH  20  38
HETATM   38  O   UNL     1     -13.554 -14.107  -6.247  1.00  0.00    -0.392 OA
HETATM   39  H   UNL     1     -13.857 -14.912  -6.715  1.00  0.00     0.210 HD
ENDBRANCH  20  38
TORSDOF 6
ENDMDL
MODEL 5
REMARK VINA RESULT:      -6.8      1.924      8.178
REMARK  6 active torsions:
REMARK  status: ('A' for Active; 'I' for Inactive)
REMARK    1  A    between atoms: C_5  and  C_33 
REMARK    2  A    between atoms: C_19  and  O_26 
REMARK    3  A    between atoms: C_20  and  O_25 
REMARK    4  A    between atoms: C_21  and  C_23 
REMARK    5  A    between atoms: C_23  and  O_24 
REMARK    6  A    between atoms: C_33  and  O_35 
ROOT
HETATM    1  C   UNL     1     -12.770 -16.074  -5.914  1.00  0.00     0.010 C 
HETATM    2  C   UNL     1     -13.298 -14.758  -5.325  1.00  0.00    -0.014 C 
HETATM    3  C   UNL     1     -13.069 -13.679  -6.388  1.00  0.00     0.006 C 
HETATM    4  C   UNL     1     -13.325 -12.308  -5.784  1.00  0.00     0.021 C 
HETATM    5  C   UNL     1     -14.822 -12.170  -5.485  1.00  0.00     0.053 C 
HETATM    6  C   UNL     1     -15.133 -10.758  -5.002  1.00  0.00     0.022 C 
HETATM    7  C   UNL     1     -16.645 -10.646  -4.786  1.00  0.00     0.016 C 
HETATM    8  C   UNL     1     -17.077 -11.478  -3.590  1.00  0.00    -0.013 C 
HETATM    9  C   UNL     1     -16.413 -12.852  -3.349  1.00  0.00    -0.069 C 
HETATM   10  C   UNL     1     -16.987 -13.526  -2.279  1.00  0.00    -0.022 C 
HETATM   11  C   UNL     1     -18.399 -13.067  -1.506  1.00  0.00     0.033 C 
HETATM   12  C   UNL     1     -19.004 -11.725  -2.088  1.00  0.00     0.007 C 
HETATM   13  C   UNL     1     -18.684 -11.843  -3.609  1.00  0.00    -0.028 C 
HETATM   14  C   UNL     1     -19.743 -11.101  -4.466  1.00  0.00     0.011 C 
HETATM   15  C   UNL     1     -21.204 -11.304  -3.919  1.00  0.00     0.007 C 
HETATM   16  C   UNL     1     -21.474 -10.945  -2.420  1.00  0.00     0.007 C 
HETATM   17  C   UNL     1     -20.148 -10.624  -1.706  1.00  0.00    -0.033 C 
HETATM   18  C   UNL     1     -20.237 -10.292  -0.173  1.00  0.00     0.044 C 
HETATM   19  C   UNL     1     -21.578 -10.533   0.487  1.00  0.00     0.148 C 
HETATM   20  C   UNL     1     -22.174 -11.817  -0.058  1.00  0.00     0.157 C 
HETATM   21  C   UNL     1     -22.521 -11.802  -1.585  1.00  0.00     0.010 C 
HETATM   22  C   UNL     1     -23.932 -11.183  -1.821  1.00  0.00     0.020 C 
HETATM   23  C   UNL     1     -19.785  -9.150  -2.245  1.00  0.00     0.016 C 
HETATM   24  C   UNL     1     -18.937 -13.328  -4.257  1.00  0.00     0.016 C 
HETATM   25  C   UNL     1     -15.181 -13.225  -4.312  1.00  0.00     0.038 C 
HETATM   26  C   UNL     1     -14.778 -14.729  -4.743  1.00  0.00    -0.005 C 
HETATM   27  C   UNL     1     -15.750 -15.470  -5.674  1.00  0.00     0.011 C 
HETATM   28  C   UNL     1     -16.493 -10.580  -2.377  1.00  0.00     0.021 C 
ENDROOT
BRANCH   5  29
HETATM   29  C   UNL     1     -15.481 -12.187  -6.910  1.00  0.00     0.149 C 
HETATM   30  O   UNL     1     -16.508 -12.837  -7.165  1.00  0.00    -0.649 OA
BRANCH  29  31
HETATM   31  O   UNL     1     -14.827 -11.558  -7.899  1.00  0.00    -0.776 OA
HETATM   32  H   UNL     1     -14.908 -12.009  -8.742  1.00  0.00     0.167 HD
ENDBRANCH  29  31
ENDBRANCH   5  29
BRANCH  21  33
HETATM   33  C   UNL     1     -22.603 -13.286  -2.020  1.00  0.00     0.176 C 
BRANCH  33  34
HETATM   34  O   UNL     1     -21.813 -14.154  -1.208  1.00  0.00    -0.400 OA
HETATM   35  H   UNL     1     -21.952 -13.919  -0.265  1.00  0.00     0.209 HD
ENDBRANCH  33  34
ENDBRANCH  21  33
BRANCH  19  36
HETATM   36  O   UNL     1     -22.492  -9.444   0.352  1.00  0.00    -0.393 OA
HETATM   37  H   UNL     1     -22.623  -9.013   1.213  1.00  0.00     0.210 HD
ENDBRANCH  19  36
BRANCH  20  38
HETATM   38  O   UNL     1     -23.319 -12.175   0.726  1.00  0.00    -0.392 OA
HETATM   39  H   UNL     1     -24.033 -11.559   0.458  1.00  0.00     0.210 HD
ENDBRANCH  20  38
TORSDOF 6
ENDMDL
MODEL 6
REMARK VINA RESULT:      -6.7     21.739     24.211
REMARK  6 active torsions:
REMARK  status: ('A' for Active; 'I' for Inactive)
REMARK    1  A    between atoms: C_5  and  C_33 
REMARK    2  A    between atoms: C_19  and  O_26 
REMARK    3  A    between atoms: C_20  and  O_25 
REMARK    4  A    between atoms: C_21  and  C_23 
REMARK    5  A    between atoms: C_23  and  O_24 
REMARK    6  A    between atoms: C_33  and  O_35 
ROOT
HETATM    1  C   UNL     1     -14.162   8.381   4.887  1.00  0.00     0.010 C 
HETATM    2  C   UNL     1     -15.635   8.536   5.290  1.00  0.00    -0.014 C 
HETATM    3  C   UNL     1     -15.670   9.536   6.449  1.00  0.00     0.006 C 
HETATM    4  C   UNL     1     -17.057   9.544   7.071  1.00  0.00     0.021 C 
HETATM    5  C   UNL     1     -18.045  10.155   6.072  1.00  0.00     0.053 C 
HETATM    6  C   UNL     1     -19.420  10.300   6.714  1.00  0.00     0.022 C 
HETATM    7  C   UNL     1     -20.352  10.980   5.707  1.00  0.00     0.016 C 
HETATM    8  C   UNL     1     -20.657  10.046   4.546  1.00  0.00    -0.013 C 
HETATM    9  C   UNL     1     -19.533   9.141   3.994  1.00  0.00    -0.069 C 
HETATM   10  C   UNL     1     -19.944   8.426   2.877  1.00  0.00    -0.022 C 
HETATM   11  C   UNL     1     -21.368   8.694   2.041  1.00  0.00     0.033 C 
HETATM   12  C   UNL     1     -22.254   9.832   2.695  1.00  0.00     0.007 C 
HETATM   13  C   UNL     1     -21.181  10.843   3.202  1.00  0.00    -0.028 C 
HETATM   14  C   UNL     1     -21.730  12.294   3.201  1.00  0.00     0.011 C 
HETATM   15  C   UNL     1     -22.606  12.600   1.930  1.00  0.00     0.007 C 
HETATM   16  C   UNL     1     -23.805  11.641   1.627  1.00  0.00     0.007 C 
HETATM   17  C   UNL     1     -23.769  10.432   2.578  1.00  0.00    -0.033 C 
HETATM   18  C   UNL     1     -24.879   9.341   2.372  1.00  0.00     0.044 C 
HETATM   19  C   UNL     1     -25.733   9.482   1.130  1.00  0.00     0.148 C 
HETATM   20  C   UNL     1     -24.853   9.912  -0.029  1.00  0.00     0.157 C 
HETATM   21  C   UNL     1     -24.194  11.325   0.118  1.00  0.00     0.010 C 
HETATM   22  C   UNL     1     -25.172  12.440  -0.361  1.00  0.00     0.020 C 
HETATM   23  C   UNL     1     -24.295  11.042   3.973  1.00  0.00     0.016 C 
HETATM   24  C   UNL     1     -19.942  11.118   2.166  1.00  0.00     0.016 C 
HETATM   25  C   UNL     1     -18.149   9.144   4.813  1.00  0.00     0.038 C 
HETATM   26  C   UNL     1     -16.697   8.883   4.157  1.00  0.00    -0.005 C 
HETATM   27  C   UNL     1     -16.156   9.966   3.211  1.00  0.00     0.011 C 
HETATM   28  C   UNL     1     -21.647   8.990   5.268  1.00  0.00     0.021 C 
ENDROOT
BRANCH   5  29
HETATM   29  C   UNL     1     -17.572  11.648   5.958  1.00  0.00     0.149 C 
HETATM   30  O   UNL     1     -17.369  12.205   4.867  1.00  0.00    -0.649 OA
BRANCH  29  31
HETATM   31  O   UNL     1     -17.274  12.289   7.099  1.00  0.00    -0.776 OA
HETATM   32  H   UNL     1     -17.840  12.029   7.829  1.00  0.00     0.167 HD
ENDBRANCH  29  31
ENDBRANCH   5  29
BRANCH  21  33
HETATM   33  C   UNL     1     -22.988  11.337  -0.854  1.00  0.00     0.176 C 
BRANCH  33  34
HETATM   34  O   UNL     1     -22.603  10.033  -1.287  1.00  0.00    -0.400 OA
HETATM   35  H   UNL     1     -22.417   9.479  -0.498  1.00  0.00     0.209 HD
ENDBRANCH  33  34
ENDBRANCH  21  33
BRANCH  19  36
HETATM   36  O   UNL     1     -26.843  10.366   1.289  1.00  0.00    -0.393 OA
HETATM   37  H   UNL     1     -27.507   9.962   1.872  1.00  0.00     0.210 HD
ENDBRANCH  19  36
BRANCH  20  38
HETATM   38  O   UNL     1     -25.600   9.818  -1.247  1.00  0.00    -0.392 OA
HETATM   39  H   UNL     1     -26.438  10.301  -1.090  1.00  0.00     0.210 HD
ENDBRANCH  20  38
TORSDOF 6
ENDMDL
MODEL 7
REMARK VINA RESULT:      -6.3      1.863      8.212
REMARK  6 active torsions:
REMARK  status: ('A' for Active; 'I' for Inactive)
REMARK    1  A    between atoms: C_5  and  C_33 
REMARK    2  A    between atoms: C_19  and  O_26 
REMARK    3  A    between atoms: C_20  and  O_25 
REMARK    4  A    between atoms: C_21  and  C_23 
REMARK    5  A    between atoms: C_23  and  O_24 
REMARK    6  A    between atoms: C_33  and  O_35 
ROOT
HETATM    1  C   UNL     1     -12.199 -16.704  -6.774  1.00  0.00     0.010 C 
HETATM    2  C   UNL     1     -13.193 -16.455  -5.631  1.00  0.00    -0.014 C 
HETATM    3  C   UNL     1     -12.378 -16.453  -4.334  1.00  0.00     0.006 C 
HETATM    4  C   UNL     1     -13.321 -16.472  -3.142  1.00  0.00     0.021 C 
HETATM    5  C   UNL     1     -14.062 -15.132  -3.074  1.00  0.00     0.053 C 
HETATM    6  C   UNL     1     -14.917 -15.067  -1.814  1.00  0.00     0.022 C 
HETATM    7  C   UNL     1     -15.579 -13.687  -1.751  1.00  0.00     0.016 C 
HETATM    8  C   UNL     1     -16.631 -13.550  -2.839  1.00  0.00    -0.013 C 
HETATM    9  C   UNL     1     -16.356 -14.157  -4.234  1.00  0.00    -0.069 C 
HETATM   10  C   UNL     1     -17.367 -13.860  -5.138  1.00  0.00    -0.022 C 
HETATM   11  C   UNL     1     -18.596 -12.756  -4.869  1.00  0.00     0.033 C 
HETATM   12  C   UNL     1     -18.530 -12.108  -3.426  1.00  0.00     0.007 C 
HETATM   13  C   UNL     1     -16.994 -11.980  -3.186  1.00  0.00    -0.028 C 
HETATM   14  C   UNL     1     -16.667 -10.779  -2.261  1.00  0.00     0.011 C 
HETATM   15  C   UNL     1     -17.553  -9.519  -2.583  1.00  0.00     0.007 C 
HETATM   16  C   UNL     1     -19.106  -9.705  -2.585  1.00  0.00     0.007 C 
HETATM   17  C   UNL     1     -19.461 -11.196  -2.443  1.00  0.00    -0.033 C 
HETATM   18  C   UNL     1     -20.988 -11.563  -2.479  1.00  0.00     0.044 C 
HETATM   19  C   UNL     1     -21.935 -10.446  -2.864  1.00  0.00     0.148 C 
HETATM   20  C   UNL     1     -21.312  -9.634  -3.984  1.00  0.00     0.157 C 
HETATM   21  C   UNL     1     -19.994  -8.875  -3.610  1.00  0.00     0.010 C 
HETATM   22  C   UNL     1     -20.318  -7.501  -2.950  1.00  0.00     0.020 C 
HETATM   23  C   UNL     1     -19.184 -11.496  -0.885  1.00  0.00     0.016 C 
HETATM   24  C   UNL     1     -16.132 -11.454  -4.477  1.00  0.00     0.016 C 
HETATM   25  C   UNL     1     -15.022 -15.042  -4.374  1.00  0.00     0.038 C 
HETATM   26  C   UNL     1     -14.169 -15.202  -5.735  1.00  0.00    -0.005 C 
HETATM   27  C   UNL     1     -13.415 -13.960  -6.236  1.00  0.00     0.011 C 
HETATM   28  C   UNL     1     -17.793 -14.511  -2.252  1.00  0.00     0.021 C 
ENDROOT
BRANCH   5  29
HETATM   29  C   UNL     1     -12.921 -14.101  -2.755  1.00  0.00     0.149 C 
HETATM   30  O   UNL     1     -12.087 -14.283  -1.853  1.00  0.00    -0.649 OA
BRANCH  29  31
HETATM   31  O   UNL     1     -12.938 -12.936  -3.421  1.00  0.00    -0.776 OA
HETATM   32  H   UNL     1     -12.058 -12.614  -3.627  1.00  0.00     0.167 HD
ENDBRANCH  29  31
ENDBRANCH   5  29
BRANCH  21  33
HETATM   33  C   UNL     1     -19.281  -8.572  -4.951  1.00  0.00     0.176 C 
BRANCH  33  34
HETATM   34  O   UNL     1     -20.030  -7.704  -5.802  1.00  0.00    -0.400 OA
HETATM   35  H   UNL     1     -19.408  -7.107  -6.271  1.00  0.00     0.209 HD
ENDBRANCH  33  34
ENDBRANCH  21  33
BRANCH  19  36
HETATM   36  O   UNL     1     -22.316  -9.609  -1.772  1.00  0.00    -0.393 OA
HETATM   37  H   UNL     1     -21.964  -9.969  -0.941  1.00  0.00     0.210 HD
ENDBRANCH  19  36
BRANCH  20  38
HETATM   38  O   UNL     1     -22.292  -8.731  -4.512  1.00  0.00    -0.392 OA
HETATM   39  H   UNL     1     -22.172  -8.741  -5.485  1.00  0.00     0.210 HD
ENDBRANCH  20  38
TORSDOF 6
ENDMDL
MODEL 8
REMARK VINA RESULT:      -6.2      2.381      3.565
REMARK  6 active torsions:
REMARK  status: ('A' for Active; 'I' for Inactive)
REMARK    1  A    between atoms: C_5  and  C_33 
REMARK    2  A    between atoms: C_19  and  O_26 
REMARK    3  A    between atoms: C_20  and  O_25 
REMARK    4  A    between atoms: C_21  and  C_23 
REMARK    5  A    between atoms: C_23  and  O_24 
REMARK    6  A    between atoms: C_33  and  O_35 
ROOT
HETATM    1  C   UNL     1     -20.313  -7.092  -5.774  1.00  0.00     0.010 C 
HETATM    2  C   UNL     1     -20.237  -7.958  -4.509  1.00  0.00    -0.014 C 
HETATM    3  C   UNL     1     -21.575  -8.696  -4.403  1.00  0.00     0.006 C 
HETATM    4  C   UNL     1     -21.676  -9.371  -3.044  1.00  0.00     0.021 C 
HETATM    5  C   UNL     1     -20.657 -10.514  -2.981  1.00  0.00     0.053 C 
HETATM    6  C   UNL     1     -20.823 -11.295  -1.683  1.00  0.00     0.022 C 
HETATM    7  C   UNL     1     -19.838 -12.468  -1.697  1.00  0.00     0.016 C 
HETATM    8  C   UNL     1     -18.409 -11.966  -1.568  1.00  0.00    -0.013 C 
HETATM    9  C   UNL     1     -17.998 -10.667  -2.298  1.00  0.00    -0.069 C 
HETATM   10  C   UNL     1     -16.642 -10.401  -2.161  1.00  0.00    -0.022 C 
HETATM   11  C   UNL     1     -15.517 -11.470  -1.535  1.00  0.00     0.033 C 
HETATM   12  C   UNL     1     -16.170 -12.827  -1.046  1.00  0.00     0.007 C 
HETATM   13  C   UNL     1     -17.295 -13.057  -2.101  1.00  0.00    -0.028 C 
HETATM   14  C   UNL     1     -17.575 -14.569  -2.305  1.00  0.00     0.011 C 
HETATM   15  C   UNL     1     -16.255 -15.424  -2.318  1.00  0.00     0.007 C 
HETATM   16  C   UNL     1     -15.287 -15.283  -1.096  1.00  0.00     0.007 C 
HETATM   17  C   UNL     1     -15.760 -14.145  -0.175  1.00  0.00    -0.033 C 
HETATM   18  C   UNL     1     -14.866 -13.836   1.079  1.00  0.00     0.044 C 
HETATM   19  C   UNL     1     -13.526 -14.538   1.134  1.00  0.00     0.148 C 
HETATM   20  C   UNL     1     -12.921 -14.558  -0.257  1.00  0.00     0.157 C 
HETATM   21  C   UNL     1     -13.717 -15.383  -1.324  1.00  0.00     0.010 C 
HETATM   22  C   UNL     1     -13.325 -16.890  -1.258  1.00  0.00     0.020 C 
HETATM   23  C   UNL     1     -17.023 -14.789   0.591  1.00  0.00     0.016 C 
HETATM   24  C   UNL     1     -16.867 -12.742  -3.652  1.00  0.00     0.016 C 
HETATM   25  C   UNL     1     -19.182  -9.851  -3.018  1.00  0.00     0.038 C 
HETATM   26  C   UNL     1     -18.992  -8.933  -4.333  1.00  0.00    -0.005 C 
HETATM   27  C   UNL     1     -18.672  -9.659  -5.649  1.00  0.00     0.011 C 
HETATM   28  C   UNL     1     -18.390 -11.524  -0.011  1.00  0.00     0.021 C 
ENDROOT
BRANCH   5  29
HETATM   29  C   UNL     1     -21.186 -11.533  -4.053  1.00  0.00     0.149 C 
HETATM   30  O   UNL     1     -20.462 -12.003  -4.945  1.00  0.00    -0.649 OA
BRANCH  29  31
HETATM   31  O   UNL     1     -22.501 -11.802  -4.051  1.00  0.00    -0.776 OA
HETATM   32  H   UNL     1     -23.021 -11.111  -3.635  1.00  0.00     0.167 HD
ENDBRANCH  29  31
ENDBRANCH   5  29
BRANCH  21  33
HETATM   33  C   UNL     1     -13.251 -14.858  -2.705  1.00  0.00     0.176 C 
BRANCH  33  34
HETATM   34  O   UNL     1     -12.698 -13.544  -2.649  1.00  0.00    -0.400 OA
HETATM   35  H   UNL     1     -11.948 -13.489  -3.281  1.00  0.00     0.209 HD
ENDBRANCH  33  34
ENDBRANCH  21  33
BRANCH  19  36
HETATM   36  O   UNL     1     -13.585 -15.853   1.688  1.00  0.00    -0.393 OA
HETATM   37  H   UNL     1     -14.342 -15.924   2.292  1.00  0.00     0.210 HD
ENDBRANCH  19  36
BRANCH  20  38
HETATM   38  O   UNL     1     -11.562 -15.003  -0.173  1.00  0.00    -0.392 OA
HETATM   39  H   UNL     1     -11.087 -14.564  -0.910  1.00  0.00     0.210 HD
ENDBRANCH  20  38
TORSDOF 6
ENDMDL
MODEL 9
REMARK VINA RESULT:      -6.1     21.336     23.539
REMARK  6 active torsions:
REMARK  status: ('A' for Active; 'I' for Inactive)
REMARK    1  A    between atoms: C_5  and  C_33 
REMARK    2  A    between atoms: C_19  and  O_26 
REMARK    3  A    between atoms: C_20  and  O_25 
REMARK    4  A    between atoms: C_21  and  C_23 
REMARK    5  A    between atoms: C_23  and  O_24 
REMARK    6  A    between atoms: C_33  and  O_35 
ROOT
HETATM    1  C   UNL     1     -19.047   8.692   4.692  1.00  0.00     0.010 C 
HETATM    2  C   UNL     1     -20.532   8.749   4.304  1.00  0.00    -0.014 C 
HETATM    3  C   UNL     1     -21.175   9.821   5.190  1.00  0.00     0.006 C 
HETATM    4  C   UNL     1     -22.687   9.755   5.050  1.00  0.00     0.021 C 
HETATM    5  C   UNL     1     -23.075  10.210   3.638  1.00  0.00     0.053 C 
HETATM    6  C   UNL     1     -24.592  10.282   3.508  1.00  0.00     0.022 C 
HETATM    7  C   UNL     1     -24.929  10.810   2.110  1.00  0.00     0.016 C 
HETATM    8  C   UNL     1     -24.583   9.776   1.051  1.00  0.00    -0.013 C 
HETATM    9  C   UNL     1     -23.298   8.933   1.214  1.00  0.00    -0.069 C 
HETATM   10  C   UNL     1     -23.075   8.110   0.118  1.00  0.00    -0.022 C 
HETATM   11  C   UNL     1     -23.909   8.199  -1.330  1.00  0.00     0.033 C 
HETATM   12  C   UNL     1     -25.046   9.300  -1.313  1.00  0.00     0.007 C 
HETATM   13  C   UNL     1     -24.405  10.431  -0.451  1.00  0.00    -0.028 C 
HETATM   14  C   UNL     1     -24.938  11.827  -0.868  1.00  0.00     0.011 C 
HETATM   15  C   UNL     1     -25.082  11.969  -2.429  1.00  0.00     0.007 C 
HETATM   16  C   UNL     1     -25.935  10.894  -3.180  1.00  0.00     0.007 C 
HETATM   17  C   UNL     1     -26.327   9.761  -2.215  1.00  0.00    -0.033 C 
HETATM   18  C   UNL     1     -27.147   8.568  -2.825  1.00  0.00     0.044 C 
HETATM   19  C   UNL     1     -27.279   8.550  -4.334  1.00  0.00     0.148 C 
HETATM   20  C   UNL     1     -25.959   8.973  -4.951  1.00  0.00     0.157 C 
HETATM   21  C   UNL     1     -25.514  10.443  -4.645  1.00  0.00     0.010 C 
HETATM   22  C   UNL     1     -26.170  11.436  -5.651  1.00  0.00     0.020 C 
HETATM   23  C   UNL     1     -27.498  10.419  -1.326  1.00  0.00     0.016 C 
HETATM   24  C   UNL     1     -22.827  10.737  -0.771  1.00  0.00     0.016 C 
HETATM   25  C   UNL     1     -22.503   9.109   2.600  1.00  0.00     0.038 C 
HETATM   26  C   UNL     1     -20.907   8.927   2.769  1.00  0.00    -0.005 C 
HETATM   27  C   UNL     1     -20.012   9.984   2.103  1.00  0.00     0.011 C 
HETATM   28  C   UNL     1     -25.759   8.692   1.299  1.00  0.00     0.021 C 
ENDROOT
BRANCH   5  29
HETATM   29  C   UNL     1     -22.666  11.726   3.620  1.00  0.00     0.149 C 
HETATM   30  O   UNL     1     -21.954  12.217   2.729  1.00  0.00    -0.649 OA
BRANCH  29  31
HETATM   31  O   UNL     1     -23.019  12.473   4.678  1.00  0.00    -0.776 OA
HETATM   32  H   UNL     1     -23.823  12.974   4.526  1.00  0.00     0.167 HD
ENDBRANCH  29  31
ENDBRANCH   5  29
BRANCH  21  33
HETATM   33  C   UNL     1     -23.987  10.489  -4.899  1.00  0.00     0.176 C 
BRANCH  33  34
HETATM   34  O   UNL     1     -23.318   9.285  -4.524  1.00  0.00    -0.400 OA
HETATM   35  H   UNL     1     -22.385   9.334  -4.826  1.00  0.00     0.209 HD
ENDBRANCH  33  34
ENDBRANCH  21  33
BRANCH  19  36
HETATM   36  O   UNL     1     -28.356   9.347  -4.828  1.00  0.00    -0.393 OA
HETATM   37  H   UNL     1     -29.197   8.872  -4.718  1.00  0.00     0.210 HD
ENDBRANCH  19  36
BRANCH  20  38
HETATM   38  O   UNL     1     -26.001   8.731  -6.362  1.00  0.00    -0.392 OA
HETATM   39  H   UNL     1     -26.871   8.316  -6.540  1.00  0.00     0.210 HD
ENDBRANCH  20  38
TORSDOF 6
ENDMDL
