MODEL 1
REMARK VINA RESULT:      -6.0      0.000      0.000
REMARK  11 active torsions:
REMARK  status: ('A' for Active; 'I' for Inactive)
REMARK    1  A    between atoms: C_1  and  C_2 
REMARK    2  A    between atoms: C_1  and  C_9 
REMARK    3  A    between atoms: C_2  and  C_3 
REMARK    4  A    between atoms: C_3  and  C_4 
REMARK    5  A    between atoms: C_4  and  C_5 
REMARK    6  A    between atoms: C_5  and  C_6 
REMARK    7  A    between atoms: C_6  and  O_8 
REMARK    8  A    between atoms: C_9  and  C_10 
REMARK    9  A    between atoms: C_10  and  C_11 
REMARK   10  A    between atoms: C_11  and  C_12 
REMARK   11  A    between atoms: C_12  and  O_14 
ROOT
HETATM    1  C   UNL     1     -20.196  -4.548  -9.786  1.00  0.00     0.000 C 
ENDROOT
BRANCH   1   2
HETATM    2  C   UNL     1     -20.356  -3.641 -11.009  1.00  0.00     0.000 C 
BRANCH   2   3
HETATM    3  C   UNL     1     -21.537  -4.033 -11.898  1.00  0.00     0.001 C 
BRANCH   3   4
HETATM    4  C   UNL     1     -22.368  -2.813 -12.290  1.00  0.00     0.010 C 
BRANCH   4   5
HETATM    5  C   UNL     1     -23.438  -3.180 -13.317  1.00  0.00     0.110 C 
BRANCH   5   6
HETATM    6  C   UNL     1     -23.323  -2.341 -14.566  1.00  0.00     0.139 C 
HETATM    7  O   UNL     1     -24.063  -1.419 -14.871  1.00  0.00    -0.650 OA
BRANCH   6   8
HETATM    8  O   UNL     1     -22.281  -2.716 -15.343  1.00  0.00    -0.776 OA
HETATM    9  H   UNL     1     -21.692  -1.979 -15.592  1.00  0.00     0.167 HD
ENDBRANCH   6   8
ENDBRANCH   5   6
ENDBRANCH   4   5
ENDBRANCH   3   4
ENDBRANCH   2   3
ENDBRANCH   1   2
BRANCH   1  10
HETATM   10  C   UNL     1     -20.987  -4.064  -8.568  1.00  0.00     0.001 C 
BRANCH  10  11
HETATM   11  C   UNL     1     -22.400  -4.641  -8.558  1.00  0.00     0.010 C 
BRANCH  11  12
HETATM   12  C   UNL     1     -23.448  -3.531  -8.616  1.00  0.00     0.110 C 
BRANCH  12  13
HETATM   13  C   UNL     1     -24.545  -3.850  -9.605  1.00  0.00     0.139 C 
HETATM   14  O   UNL     1     -25.451  -3.097  -9.924  1.00  0.00    -0.650 OA
BRANCH  13  15
HETATM   15  O   UNL     1     -24.421  -5.094 -10.125  1.00  0.00    -0.776 OA
HETATM   16  H   UNL     1     -24.666  -5.805  -9.505  1.00  0.00     0.167 HD
ENDBRANCH  13  15
ENDBRANCH  12  13
ENDBRANCH  11  12
ENDBRANCH  10  11
ENDBRANCH   1  10
TORSDOF 11
ENDMDL
MODEL 2
REMARK VINA RESULT:      -5.9      0.659      4.668
REMARK  11 active torsions:
REMARK  status: ('A' for Active; 'I' for Inactive)
REMARK    1  A    between atoms: C_1  and  C_2 
REMARK    2  A    between atoms: C_1  and  C_9 
REMARK    3  A    between atoms: C_2  and  C_3 
REMARK    4  A    between atoms: C_3  and  C_4 
REMARK    5  A    between atoms: C_4  and  C_5 
REMARK    6  A    between atoms: C_5  and  C_6 
REMARK    7  A    between atoms: C_6  and  O_8 
REMARK    8  A    between atoms: C_9  and  C_10 
REMARK    9  A    between atoms: C_10  and  C_11 
REMARK   10  A    between atoms: C_11  and  C_12 
REMARK   11  A    between atoms: C_12  and  O_14 
ROOT
HETATM    1  C   UNL     1     -20.392  -3.948 -11.374  1.00  0.00     0.000 C 
ENDROOT
BRANCH   1   2
HETATM    2  C   UNL     1     -20.247  -4.462  -9.940  1.00  0.00     0.000 C 
BRANCH   2   3
HETATM    3  C   UNL     1     -21.206  -3.786  -8.958  1.00  0.00     0.001 C 
BRANCH   3   4
HETATM    4  C   UNL     1     -22.177  -4.794  -8.345  1.00  0.00     0.010 C 
BRANCH   4   5
HETATM    5  C   UNL     1     -23.550  -4.165  -8.113  1.00  0.00     0.110 C 
BRANCH   5   6
HETATM    6  C   UNL     1     -24.281  -3.929  -9.412  1.00  0.00     0.139 C 
HETATM    7  O   UNL     1     -24.868  -2.904  -9.719  1.00  0.00    -0.650 OA
BRANCH   6   8
HETATM    8  O   UNL     1     -24.217  -4.998 -10.239  1.00  0.00    -0.776 OA
HETATM    9  H   UNL     1     -23.396  -5.041 -10.763  1.00  0.00     0.167 HD
ENDBRANCH   6   8
ENDBRANCH   5   6
ENDBRANCH   4   5
ENDBRANCH   3   4
ENDBRANCH   2   3
ENDBRANCH   1   2
BRANCH   1  10
HETATM   10  C   UNL     1     -21.574  -2.992 -11.555  1.00  0.00     0.001 C 
BRANCH  10  11
HETATM   11  C   UNL     1     -22.427  -3.384 -12.759  1.00  0.00     0.010 C 
BRANCH  11  12
HETATM   12  C   UNL     1     -23.589  -2.411 -12.951  1.00  0.00     0.110 C 
BRANCH  12  13
HETATM   13  C   UNL     1     -23.649  -1.885 -14.365  1.00  0.00     0.139 C 
HETATM   14  O   UNL     1     -22.935  -2.247 -15.286  1.00  0.00    -0.650 OA
BRANCH  13  15
HETATM   15  O   UNL     1     -24.606  -0.940 -14.521  1.00  0.00    -0.776 OA
HETATM   16  H   UNL     1     -25.514  -1.279 -14.414  1.00  0.00     0.167 HD
ENDBRANCH  13  15
ENDBRANCH  12  13
ENDBRANCH  11  12
ENDBRANCH  10  11
ENDBRANCH   1  10
TORSDOF 11
ENDMDL
MODEL 3
REMARK VINA RESULT:      -5.9      2.235      6.199
REMARK  11 active torsions:
REMARK  status: ('A' for Active; 'I' for Inactive)
REMARK    1  A    between atoms: C_1  and  C_2 
REMARK    2  A    between atoms: C_1  and  C_9 
REMARK    3  A    between atoms: C_2  and  C_3 
REMARK    4  A    between atoms: C_3  and  C_4 
REMARK    5  A    between atoms: C_4  and  C_5 
REMARK    6  A    between atoms: C_5  and  C_6 
REMARK    7  A    between atoms: C_6  and  O_8 
REMARK    8  A    between atoms: C_9  and  C_10 
REMARK    9  A    between atoms: C_10  and  C_11 
REMARK   10  A    between atoms: C_11  and  C_12 
REMARK   11  A    between atoms: C_12  and  O_14 
ROOT
HETATM    1  C   UNL     1     -20.554  -3.947 -11.027  1.00  0.00     0.000 C 
ENDROOT
BRANCH   1   2
HETATM    2  C   UNL     1     -20.423  -4.407  -9.572  1.00  0.00     0.000 C 
BRANCH   2   3
HETATM    3  C   UNL     1     -21.731  -4.300  -8.787  1.00  0.00     0.001 C 
BRANCH   3   4
HETATM    4  C   UNL     1     -21.500  -3.709  -7.397  1.00  0.00     0.010 C 
BRANCH   4   5
HETATM    5  C   UNL     1     -20.646  -4.639  -6.538  1.00  0.00     0.110 C 
BRANCH   5   6
HETATM    6  C   UNL     1     -21.355  -5.940  -6.251  1.00  0.00     0.139 C 
HETATM    7  O   UNL     1     -20.972  -7.047  -6.595  1.00  0.00    -0.650 OA
BRANCH   6   8
HETATM    8  O   UNL     1     -22.494  -5.759  -5.543  1.00  0.00    -0.776 OA
HETATM    9  H   UNL     1     -23.175  -5.247  -6.018  1.00  0.00     0.167 HD
ENDBRANCH   6   8
ENDBRANCH   5   6
ENDBRANCH   4   5
ENDBRANCH   3   4
ENDBRANCH   2   3
ENDBRANCH   1   2
BRANCH   1  10
HETATM   10  C   UNL     1     -21.985  -4.037 -11.561  1.00  0.00     0.001 C 
BRANCH  10  11
HETATM   11  C   UNL     1     -22.478  -2.682 -12.061  1.00  0.00     0.010 C 
BRANCH  11  12
HETATM   12  C   UNL     1     -23.715  -2.838 -12.943  1.00  0.00     0.110 C 
BRANCH  12  13
HETATM   13  C   UNL     1     -23.505  -2.236 -14.312  1.00  0.00     0.139 C 
HETATM   14  O   UNL     1     -22.710  -2.637 -15.147  1.00  0.00    -0.650 OA
BRANCH  13  15
HETATM   15  O   UNL     1     -24.312  -1.172 -14.535  1.00  0.00    -0.776 OA
HETATM   16  H   UNL     1     -23.832  -0.352 -14.750  1.00  0.00     0.167 HD
ENDBRANCH  13  15
ENDBRANCH  12  13
ENDBRANCH  11  12
ENDBRANCH  10  11
ENDBRANCH   1  10
TORSDOF 11
ENDMDL
MODEL 4
REMARK VINA RESULT:      -5.9      1.525      5.768
REMARK  11 active torsions:
REMARK  status: ('A' for Active; 'I' for Inactive)
REMARK    1  A    between atoms: C_1  and  C_2 
REMARK    2  A    between atoms: C_1  and  C_9 
REMARK    3  A    between atoms: C_2  and  C_3 
REMARK    4  A    between atoms: C_3  and  C_4 
REMARK    5  A    between atoms: C_4  and  C_5 
REMARK    6  A    between atoms: C_5  and  C_6 
REMARK    7  A    between atoms: C_6  and  O_8 
REMARK    8  A    between atoms: C_9  and  C_10 
REMARK    9  A    between atoms: C_10  and  C_11 
REMARK   10  A    between atoms: C_11  and  C_12 
REMARK   11  A    between atoms: C_12  and  O_14 
ROOT
HETATM    1  C   UNL     1     -22.024  -3.883 -11.193  1.00  0.00     0.000 C 
ENDROOT
BRANCH   1   2
HETATM    2  C   UNL     1     -20.554  -4.238 -10.952  1.00  0.00     0.000 C 
BRANCH   2   3
HETATM    3  C   UNL     1     -20.139  -4.118  -9.484  1.00  0.00     0.001 C 
BRANCH   3   4
HETATM    4  C   UNL     1     -21.071  -4.919  -8.575  1.00  0.00     0.010 C 
BRANCH   4   5
HETATM    5  C   UNL     1     -21.698  -4.027  -7.506  1.00  0.00     0.110 C 
BRANCH   5   6
HETATM    6  C   UNL     1     -23.142  -4.386  -7.257  1.00  0.00     0.139 C 
HETATM    7  O   UNL     1     -23.562  -5.006  -6.292  1.00  0.00    -0.650 OA
BRANCH   6   8
HETATM    8  O   UNL     1     -23.960  -3.935  -8.236  1.00  0.00    -0.776 OA
HETATM    9  H   UNL     1     -23.861  -2.983  -8.423  1.00  0.00     0.167 HD
ENDBRANCH   6   8
ENDBRANCH   5   6
ENDBRANCH   4   5
ENDBRANCH   3   4
ENDBRANCH   2   3
ENDBRANCH   1   2
BRANCH   1  10
HETATM   10  C   UNL     1     -22.208  -2.635 -12.059  1.00  0.00     0.001 C 
BRANCH  10  11
HETATM   11  C   UNL     1     -23.452  -2.746 -12.938  1.00  0.00     0.010 C 
BRANCH  11  12
HETATM   12  C   UNL     1     -23.086  -2.683 -14.419  1.00  0.00     0.110 C 
BRANCH  12  13
HETATM   13  C   UNL     1     -23.550  -1.394 -15.054  1.00  0.00     0.139 C 
HETATM   14  O   UNL     1     -24.592  -0.812 -14.796  1.00  0.00    -0.650 OA
BRANCH  13  15
HETATM   15  O   UNL     1     -22.669  -0.925 -15.968  1.00  0.00    -0.776 OA
HETATM   16  H   UNL     1     -22.816   0.007 -16.215  1.00  0.00     0.167 HD
ENDBRANCH  13  15
ENDBRANCH  12  13
ENDBRANCH  11  12
ENDBRANCH  10  11
ENDBRANCH   1  10
TORSDOF 11
ENDMDL
MODEL 5
REMARK VINA RESULT:      -5.8      2.711      5.787
REMARK  11 active torsions:
REMARK  status: ('A' for Active; 'I' for Inactive)
REMARK    1  A    between atoms: C_1  and  C_2 
REMARK    2  A    between atoms: C_1  and  C_9 
REMARK    3  A    between atoms: C_2  and  C_3 
REMARK    4  A    between atoms: C_3  and  C_4 
REMARK    5  A    between atoms: C_4  and  C_5 
REMARK    6  A    between atoms: C_5  and  C_6 
REMARK    7  A    between atoms: C_6  and  O_8 
REMARK    8  A    between atoms: C_9  and  C_10 
REMARK    9  A    between atoms: C_10  and  C_11 
REMARK   10  A    between atoms: C_11  and  C_12 
REMARK   11  A    between atoms: C_12  and  O_14 
ROOT
HETATM    1  C   UNL     1     -20.485  -3.648 -10.636  1.00  0.00     0.000 C 
ENDROOT
BRANCH   1   2
HETATM    2  C   UNL     1     -20.163  -4.628  -9.504  1.00  0.00     0.000 C 
BRANCH   2   3
HETATM    3  C   UNL     1     -20.471  -4.065  -8.116  1.00  0.00     0.001 C 
BRANCH   3   4
HETATM    4  C   UNL     1     -19.663  -4.780  -7.034  1.00  0.00     0.010 C 
BRANCH   4   5
HETATM    5  C   UNL     1     -20.446  -4.859  -5.724  1.00  0.00     0.110 C 
BRANCH   5   6
HETATM    6  C   UNL     1     -21.452  -5.984  -5.743  1.00  0.00     0.139 C 
HETATM    7  O   UNL     1     -22.536  -5.975  -5.182  1.00  0.00    -0.650 OA
BRANCH   6   8
HETATM    8  O   UNL     1     -21.026  -7.042  -6.473  1.00  0.00    -0.776 OA
HETATM    9  H   UNL     1     -21.519  -7.168  -7.305  1.00  0.00     0.167 HD
ENDBRANCH   6   8
ENDBRANCH   5   6
ENDBRANCH   4   5
ENDBRANCH   3   4
ENDBRANCH   2   3
ENDBRANCH   1   2
BRANCH   1  10
HETATM   10  C   UNL     1     -21.532  -4.183 -11.617  1.00  0.00     0.001 C 
BRANCH  10  11
HETATM   11  C   UNL     1     -22.882  -3.499 -11.416  1.00  0.00     0.010 C 
BRANCH  11  12
HETATM   12  C   UNL     1     -23.864  -4.421 -10.697  1.00  0.00     0.110 C 
BRANCH  12  13
HETATM   13  C   UNL     1     -24.672  -3.677  -9.660  1.00  0.00     0.139 C 
HETATM   14  O   UNL     1     -25.745  -3.130  -9.857  1.00  0.00    -0.650 OA
BRANCH  13  15
HETATM   15  O   UNL     1     -24.073  -3.675  -8.446  1.00  0.00    -0.776 OA
HETATM   16  H   UNL     1     -23.249  -4.196  -8.414  1.00  0.00     0.167 HD
ENDBRANCH  13  15
ENDBRANCH  12  13
ENDBRANCH  11  12
ENDBRANCH  10  11
ENDBRANCH   1  10
TORSDOF 11
ENDMDL
MODEL 6
REMARK VINA RESULT:      -5.7      2.733      4.288
REMARK  11 active torsions:
REMARK  status: ('A' for Active; 'I' for Inactive)
REMARK    1  A    between atoms: C_1  and  C_2 
REMARK    2  A    between atoms: C_1  and  C_9 
REMARK    3  A    between atoms: C_2  and  C_3 
REMARK    4  A    between atoms: C_3  and  C_4 
REMARK    5  A    between atoms: C_4  and  C_5 
REMARK    6  A    between atoms: C_5  and  C_6 
REMARK    7  A    between atoms: C_6  and  O_8 
REMARK    8  A    between atoms: C_9  and  C_10 
REMARK    9  A    between atoms: C_10  and  C_11 
REMARK   10  A    between atoms: C_11  and  C_12 
REMARK   11  A    between atoms: C_12  and  O_14 
ROOT
HETATM    1  C   UNL     1     -20.333  -3.928  -9.348  1.00  0.00     0.000 C 
ENDROOT
BRANCH   1   2
HETATM    2  C   UNL     1     -20.860  -4.341 -10.725  1.00  0.00     0.000 C 
BRANCH   2   3
HETATM    3  C   UNL     1     -21.663  -3.239 -11.418  1.00  0.00     0.001 C 
BRANCH   3   4
HETATM    4  C   UNL     1     -23.072  -3.715 -11.769  1.00  0.00     0.010 C 
BRANCH   4   5
HETATM    5  C   UNL     1     -23.657  -4.578 -10.653  1.00  0.00     0.110 C 
BRANCH   5   6
HETATM    6  C   UNL     1     -24.533  -3.771  -9.726  1.00  0.00     0.139 C 
HETATM    7  O   UNL     1     -25.534  -3.155 -10.055  1.00  0.00    -0.650 OA
BRANCH   6   8
HETATM    8  O   UNL     1     -24.093  -3.801  -8.447  1.00  0.00    -0.776 OA
HETATM    9  H   UNL     1     -24.755  -4.129  -7.811  1.00  0.00     0.167 HD
ENDBRANCH   6   8
ENDBRANCH   5   6
ENDBRANCH   4   5
ENDBRANCH   3   4
ENDBRANCH   2   3
ENDBRANCH   1   2
BRANCH   1  10
HETATM   10  C   UNL     1     -20.545  -4.999  -8.275  1.00  0.00     0.001 C 
BRANCH  10  11
HETATM   11  C   UNL     1     -20.882  -4.372  -6.924  1.00  0.00     0.010 C 
BRANCH  11  12
HETATM   12  C   UNL     1     -20.435  -5.273  -5.774  1.00  0.00     0.110 C 
BRANCH  12  13
HETATM   13  C   UNL     1     -21.476  -6.316  -5.446  1.00  0.00     0.139 C 
HETATM   14  O   UNL     1     -22.453  -6.143  -4.735  1.00  0.00    -0.650 OA
BRANCH  13  15
HETATM   15  O   UNL     1     -21.216  -7.505  -6.039  1.00  0.00    -0.776 OA
HETATM   16  H   UNL     1     -20.346  -7.879  -5.807  1.00  0.00     0.167 HD
ENDBRANCH  13  15
ENDBRANCH  12  13
ENDBRANCH  11  12
ENDBRANCH  10  11
ENDBRANCH   1  10
TORSDOF 11
ENDMDL
MODEL 7
REMARK VINA RESULT:      -5.7      2.337      3.152
REMARK  11 active torsions:
REMARK  status: ('A' for Active; 'I' for Inactive)
REMARK    1  A    between atoms: C_1  and  C_2 
REMARK    2  A    between atoms: C_1  and  C_9 
REMARK    3  A    between atoms: C_2  and  C_3 
REMARK    4  A    between atoms: C_3  and  C_4 
REMARK    5  A    between atoms: C_4  and  C_5 
REMARK    6  A    between atoms: C_5  and  C_6 
REMARK    7  A    between atoms: C_6  and  O_8 
REMARK    8  A    between atoms: C_9  and  C_10 
REMARK    9  A    between atoms: C_10  and  C_11 
REMARK   10  A    between atoms: C_11  and  C_12 
REMARK   11  A    between atoms: C_12  and  O_14 
ROOT
HETATM    1  C   UNL     1     -20.099  -4.802  -9.839  1.00  0.00     0.000 C 
ENDROOT
BRANCH   1   2
HETATM    2  C   UNL     1     -20.641  -4.100 -11.087  1.00  0.00     0.000 C 
BRANCH   2   3
HETATM    3  C   UNL     1     -22.097  -3.654 -10.943  1.00  0.00     0.001 C 
BRANCH   3   4
HETATM    4  C   UNL     1     -22.460  -2.594 -11.981  1.00  0.00     0.010 C 
BRANCH   4   5
HETATM    5  C   UNL     1     -23.472  -3.134 -12.990  1.00  0.00     0.110 C 
BRANCH   5   6
HETATM    6  C   UNL     1     -23.388  -2.404 -14.308  1.00  0.00     0.139 C 
HETATM    7  O   UNL     1     -22.632  -2.682 -15.226  1.00  0.00    -0.650 OA
BRANCH   6   8
HETATM    8  O   UNL     1     -24.267  -1.378 -14.384  1.00  0.00    -0.776 OA
HETATM    9  H   UNL     1     -24.408  -0.918 -13.536  1.00  0.00     0.167 HD
ENDBRANCH   6   8
ENDBRANCH   5   6
ENDBRANCH   4   5
ENDBRANCH   3   4
ENDBRANCH   2   3
ENDBRANCH   1   2
BRANCH   1  10
HETATM   10  C   UNL     1     -20.255  -3.970  -8.564  1.00  0.00     0.001 C 
BRANCH  10  11
HETATM   11  C   UNL     1     -19.525  -4.614  -7.387  1.00  0.00     0.010 C 
BRANCH  11  12
HETATM   12  C   UNL     1     -20.422  -4.679  -6.153  1.00  0.00     0.110 C 
BRANCH  12  13
HETATM   13  C   UNL     1     -21.252  -5.940  -6.131  1.00  0.00     0.139 C 
HETATM   14  O   UNL     1     -20.943  -7.000  -6.652  1.00  0.00    -0.650 OA
BRANCH  13  15
HETATM   15  O   UNL     1     -22.413  -5.780  -5.453  1.00  0.00    -0.776 OA
HETATM   16  H   UNL     1     -23.196  -5.698  -6.028  1.00  0.00     0.167 HD
ENDBRANCH  13  15
ENDBRANCH  12  13
ENDBRANCH  11  12
ENDBRANCH  10  11
ENDBRANCH   1  10
TORSDOF 11
ENDMDL
MODEL 8
REMARK VINA RESULT:      -5.4      2.681      3.415
REMARK  11 active torsions:
REMARK  status: ('A' for Active; 'I' for Inactive)
REMARK    1  A    between atoms: C_1  and  C_2 
REMARK    2  A    between atoms: C_1  and  C_9 
REMARK    3  A    between atoms: C_2  and  C_3 
REMARK    4  A    between atoms: C_3  and  C_4 
REMARK    5  A    between atoms: C_4  and  C_5 
REMARK    6  A    between atoms: C_5  and  C_6 
REMARK    7  A    between atoms: C_6  and  O_8 
REMARK    8  A    between atoms: C_9  and  C_10 
REMARK    9  A    between atoms: C_10  and  C_11 
REMARK   10  A    between atoms: C_11  and  C_12 
REMARK   11  A    between atoms: C_12  and  O_14 
ROOT
HETATM    1  C   UNL     1     -20.146  -4.624  -9.281  1.00  0.00     0.000 C 
ENDROOT
BRANCH   1   2
HETATM    2  C   UNL     1     -21.144  -4.059 -10.296  1.00  0.00     0.000 C 
BRANCH   2   3
HETATM    3  C   UNL     1     -22.560  -3.919  -9.733  1.00  0.00     0.001 C 
BRANCH   3   4
HETATM    4  C   UNL     1     -23.551  -3.502 -10.819  1.00  0.00     0.010 C 
BRANCH   4   5
HETATM    5  C   UNL     1     -22.900  -3.531 -12.200  1.00  0.00     0.110 C 
BRANCH   5   6
HETATM    6  C   UNL     1     -23.906  -3.275 -13.296  1.00  0.00     0.139 C 
HETATM    7  O   UNL     1     -24.430  -2.200 -13.540  1.00  0.00    -0.650 OA
BRANCH   6   8
HETATM    8  O   UNL     1     -24.179  -4.389 -14.014  1.00  0.00    -0.776 OA
HETATM    9  H   UNL     1     -24.674  -4.215 -14.836  1.00  0.00     0.167 HD
ENDBRANCH   6   8
ENDBRANCH   5   6
ENDBRANCH   4   5
ENDBRANCH   3   4
ENDBRANCH   2   3
ENDBRANCH   1   2
BRANCH   1  10
HETATM   10  C   UNL     1     -20.201  -3.918  -7.924  1.00  0.00     0.001 C 
BRANCH  10  11
HETATM   11  C   UNL     1     -19.479  -4.725  -6.848  1.00  0.00     0.010 C 
BRANCH  11  12
HETATM   12  C   UNL     1     -20.384  -4.968  -5.642  1.00  0.00     0.110 C 
BRANCH  12  13
HETATM   13  C   UNL     1     -21.332  -6.120  -5.878  1.00  0.00     0.139 C 
HETATM   14  O   UNL     1     -21.059  -7.150  -6.473  1.00  0.00    -0.650 OA
BRANCH  13  15
HETATM   15  O   UNL     1     -22.556  -5.895  -5.345  1.00  0.00    -0.776 OA
HETATM   16  H   UNL     1     -22.533  -5.636  -4.405  1.00  0.00     0.167 HD
ENDBRANCH  13  15
ENDBRANCH  12  13
ENDBRANCH  11  12
ENDBRANCH  10  11
ENDBRANCH   1  10
TORSDOF 11
ENDMDL
MODEL 9
REMARK VINA RESULT:      -5.3      2.646      3.474
REMARK  11 active torsions:
REMARK  status: ('A' for Active; 'I' for Inactive)
REMARK    1  A    between atoms: C_1  and  C_2 
REMARK    2  A    between atoms: C_1  and  C_9 
REMARK    3  A    between atoms: C_2  and  C_3 
REMARK    4  A    between atoms: C_3  and  C_4 
REMARK    5  A    between atoms: C_4  and  C_5 
REMARK    6  A    between atoms: C_5  and  C_6 
REMARK    7  A    between atoms: C_6  and  O_8 
REMARK    8  A    between atoms: C_9  and  C_10 
REMARK    9  A    between atoms: C_10  and  C_11 
REMARK   10  A    between atoms: C_11  and  C_12 
REMARK   11  A    between atoms: C_12  and  O_14 
ROOT
HETATM    1  C   UNL     1     -22.576  -3.829  -9.307  1.00  0.00     0.000 C 
ENDROOT
BRANCH   1   2
HETATM    2  C   UNL     1     -23.406  -4.837 -10.106  1.00  0.00     0.000 C 
BRANCH   2   3
HETATM    3  C   UNL     1     -23.126  -4.790 -11.609  1.00  0.00     0.001 C 
BRANCH   3   4
HETATM    4  C   UNL     1     -23.817  -3.597 -12.267  1.00  0.00     0.010 C 
BRANCH   4   5
HETATM    5  C   UNL     1     -22.803  -2.672 -12.937  1.00  0.00     0.110 C 
BRANCH   5   6
HETATM    6  C   UNL     1     -23.117  -2.467 -14.399  1.00  0.00     0.139 C 
HETATM    7  O   UNL     1     -24.060  -1.828 -14.838  1.00  0.00    -0.650 OA
BRANCH   6   8
HETATM    8  O   UNL     1     -22.218  -3.074 -15.208  1.00  0.00    -0.776 OA
HETATM    9  H   UNL     1     -21.960  -2.538 -15.980  1.00  0.00     0.167 HD
ENDBRANCH   6   8
ENDBRANCH   5   6
ENDBRANCH   4   5
ENDBRANCH   3   4
ENDBRANCH   2   3
ENDBRANCH   1   2
BRANCH   1  10
HETATM   10  C   UNL     1     -22.550  -4.125  -7.805  1.00  0.00     0.001 C 
BRANCH  10  11
HETATM   11  C   UNL     1     -21.370  -3.437  -7.123  1.00  0.00     0.010 C 
BRANCH  11  12
HETATM   12  C   UNL     1     -20.575  -4.424  -6.272  1.00  0.00     0.110 C 
BRANCH  12  13
HETATM   13  C   UNL     1     -19.493  -5.108  -7.074  1.00  0.00     0.139 C 
HETATM   14  O   UNL     1     -18.483  -4.573  -7.500  1.00  0.00    -0.650 OA
BRANCH  13  15
HETATM   15  O   UNL     1     -19.759  -6.420  -7.279  1.00  0.00    -0.776 OA
HETATM   16  H   UNL     1     -20.420  -6.582  -7.978  1.00  0.00     0.167 HD
ENDBRANCH  13  15
ENDBRANCH  12  13
ENDBRANCH  11  12
ENDBRANCH  10  11
ENDBRANCH   1  10
TORSDOF 11
ENDMDL
