MODEL 1
REMARK VINA RESULT:      -8.4      0.000      0.000
REMARK  7 active torsions:
REMARK  status: ('A' for Active; 'I' for Inactive)
REMARK    1  A    between atoms: C_3  and  C_4 
REMARK    2  A    between atoms: C_4  and  C_5 
REMARK    3  A    between atoms: C_5  and  C_6 
REMARK    4  A    between atoms: C_6  and  C_8 
REMARK    5  A    between atoms: C_6  and  C_10 
REMARK    6  A    between atoms: C_11  and  C_12 
REMARK    7  A    between atoms: C_15  and  O_18 
ROOT
HETATM    1  C   UNL     1     -21.021  -5.847  -5.526  1.00  0.00    -0.009 C 
HETATM    2  C   UNL     1     -20.050  -4.722  -5.107  1.00  0.00     0.024 C 
ENDROOT
BRANCH   1   3
HETATM    3  C   UNL     1     -21.927  -6.244  -4.310  1.00  0.00     0.021 C 
BRANCH   3   4
HETATM    4  C   UNL     1     -21.369  -5.862  -2.927  1.00  0.00     0.028 C 
BRANCH   4   5
HETATM    5  C   UNL     1     -22.198  -6.342  -1.769  1.00  0.00    -0.025 C 
HETATM    6  C   UNL     1     -21.950  -7.426  -1.007  1.00  0.00    -0.091 C 
HETATM    7  C   UNL     1     -20.708  -8.265  -1.089  1.00  0.00     0.042 C 
HETATM    8  C   UNL     1     -22.976  -7.885  -0.003  1.00  0.00     0.042 C 
ENDBRANCH   4   5
ENDBRANCH   3   4
ENDBRANCH   1   3
BRANCH   1   9
HETATM    9  C   UNL     1     -20.282  -7.120  -5.961  1.00  0.00    -0.024 C 
HETATM   10  C   UNL     1     -19.800  -8.106  -5.191  1.00  0.00     0.008 C 
ENDBRANCH   1   9
BRANCH   1  11
HETATM   11  C   UNL     1     -21.875  -5.320  -6.684  1.00  0.00    -0.013 C 
HETATM   12  C   UNL     1     -21.429  -4.710  -7.795  1.00  0.00     0.008 C 
BRANCH  12  13
HETATM   13  C   UNL     1     -22.348  -4.283  -8.849  1.00  0.00    -0.036 A 
HETATM   14  C   UNL     1     -23.696  -4.039  -8.569  1.00  0.00     0.014 A 
HETATM   15  C   UNL     1     -24.557  -3.614  -9.586  1.00  0.00     0.037 A 
HETATM   16  C   UNL     1     -24.063  -3.445 -10.876  1.00  0.00     0.065 A 
HETATM   17  C   UNL     1     -22.731  -3.703 -11.169  1.00  0.00     0.037 A 
HETATM   18  C   UNL     1     -21.871  -4.123 -10.155  1.00  0.00     0.014 A 
BRANCH  16  19
HETATM   19  O   UNL     1     -24.865  -3.025 -11.896  1.00  0.00    -0.361 OA
HETATM   20  H   UNL     1     -24.680  -2.087 -12.069  1.00  0.00     0.217 HD
ENDBRANCH  16  19
ENDBRANCH  12  13
ENDBRANCH   1  11
TORSDOF 7
ENDMDL
MODEL 2
REMARK VINA RESULT:      -8.1     12.583     15.699
REMARK  7 active torsions:
REMARK  status: ('A' for Active; 'I' for Inactive)
REMARK    1  A    between atoms: C_3  and  C_4 
REMARK    2  A    between atoms: C_4  and  C_5 
REMARK    3  A    between atoms: C_5  and  C_6 
REMARK    4  A    between atoms: C_6  and  C_8 
REMARK    5  A    between atoms: C_6  and  C_10 
REMARK    6  A    between atoms: C_11  and  C_12 
REMARK    7  A    between atoms: C_15  and  O_18 
ROOT
HETATM    1  C   UNL     1     -35.975  -0.256 -12.547  1.00  0.00    -0.009 C 
HETATM    2  C   UNL     1     -37.072  -0.323 -13.632  1.00  0.00     0.024 C 
ENDROOT
BRANCH   1   3
HETATM    3  C   UNL     1     -36.553   0.410 -11.251  1.00  0.00     0.021 C 
BRANCH   3   4
HETATM    4  C   UNL     1     -37.372  -0.526 -10.344  1.00  0.00     0.028 C 
BRANCH   4   5
HETATM    5  C   UNL     1     -37.082  -0.379  -8.876  1.00  0.00    -0.025 C 
HETATM    6  C   UNL     1     -37.325   0.711  -8.122  1.00  0.00    -0.091 C 
HETATM    7  C   UNL     1     -38.074   1.926  -8.586  1.00  0.00     0.042 C 
HETATM    8  C   UNL     1     -36.805   0.773  -6.709  1.00  0.00     0.042 C 
ENDBRANCH   4   5
ENDBRANCH   3   4
ENDBRANCH   1   3
BRANCH   1   9
HETATM    9  C   UNL     1     -34.777   0.596 -12.985  1.00  0.00    -0.024 C 
HETATM   10  C   UNL     1     -34.601   1.252 -14.141  1.00  0.00     0.008 C 
ENDBRANCH   1   9
BRANCH   1  11
HETATM   11  C   UNL     1     -35.517  -1.688 -12.257  1.00  0.00    -0.013 C 
HETATM   12  C   UNL     1     -34.380  -2.056 -11.642  1.00  0.00     0.008 C 
BRANCH  12  13
HETATM   13  C   UNL     1     -34.071  -3.463 -11.392  1.00  0.00    -0.036 A 
HETATM   14  C   UNL     1     -34.956  -4.273 -10.673  1.00  0.00     0.014 A 
HETATM   15  C   UNL     1     -34.654  -5.622 -10.457  1.00  0.00     0.037 A 
HETATM   16  C   UNL     1     -33.465  -6.146 -10.956  1.00  0.00     0.065 A 
HETATM   17  C   UNL     1     -32.571  -5.346 -11.655  1.00  0.00     0.037 A 
HETATM   18  C   UNL     1     -32.873  -4.002 -11.873  1.00  0.00     0.014 A 
BRANCH  16  19
HETATM   19  O   UNL     1     -33.134  -7.457 -10.776  1.00  0.00    -0.361 OA
HETATM   20  H   UNL     1     -33.492  -7.752  -9.922  1.00  0.00     0.217 HD
ENDBRANCH  16  19
ENDBRANCH  12  13
ENDBRANCH   1  11
TORSDOF 7
ENDMDL
MODEL 3
REMARK VINA RESULT:      -7.6     12.963     16.371
REMARK  7 active torsions:
REMARK  status: ('A' for Active; 'I' for Inactive)
REMARK    1  A    between atoms: C_3  and  C_4 
REMARK    2  A    between atoms: C_4  and  C_5 
REMARK    3  A    between atoms: C_5  and  C_6 
REMARK    4  A    between atoms: C_6  and  C_8 
REMARK    5  A    between atoms: C_6  and  C_10 
REMARK    6  A    between atoms: C_11  and  C_12 
REMARK    7  A    between atoms: C_15  and  O_18 
ROOT
HETATM    1  C   UNL     1     -35.726  -0.238 -12.633  1.00  0.00    -0.009 C 
HETATM    2  C   UNL     1     -34.778   0.845 -13.193  1.00  0.00     0.024 C 
ENDROOT
BRANCH   1   3
HETATM    3  C   UNL     1     -35.041  -1.644 -12.735  1.00  0.00     0.021 C 
BRANCH   3   4
HETATM    4  C   UNL     1     -34.060  -1.978 -11.597  1.00  0.00     0.028 C 
BRANCH   4   5
HETATM    5  C   UNL     1     -34.317  -3.295 -10.920  1.00  0.00    -0.025 C 
HETATM    6  C   UNL     1     -33.662  -4.450 -11.153  1.00  0.00    -0.091 C 
HETATM    7  C   UNL     1     -32.448  -4.588 -12.026  1.00  0.00     0.042 C 
HETATM    8  C   UNL     1     -34.161  -5.730 -10.533  1.00  0.00     0.042 C 
ENDBRANCH   4   5
ENDBRANCH   3   4
ENDBRANCH   1   3
BRANCH   1   9
HETATM    9  C   UNL     1     -37.037  -0.326 -13.425  1.00  0.00    -0.024 C 
HETATM   10  C   UNL     1     -37.244  -0.063 -14.723  1.00  0.00     0.008 C 
ENDBRANCH   1   9
BRANCH   1  11
HETATM   11  C   UNL     1     -36.023   0.111 -11.171  1.00  0.00    -0.013 C 
HETATM   12  C   UNL     1     -37.113  -0.241 -10.470  1.00  0.00     0.008 C 
BRANCH  12  13
HETATM   13  C   UNL     1     -37.264   0.126  -9.062  1.00  0.00    -0.036 A 
HETATM   14  C   UNL     1     -37.938  -0.715  -8.171  1.00  0.00     0.014 A 
HETATM   15  C   UNL     1     -38.058  -0.356  -6.825  1.00  0.00     0.037 A 
HETATM   16  C   UNL     1     -37.510   0.844  -6.383  1.00  0.00     0.065 A 
HETATM   17  C   UNL     1     -36.854   1.695  -7.263  1.00  0.00     0.037 A 
HETATM   18  C   UNL     1     -36.731   1.337  -8.606  1.00  0.00     0.014 A 
BRANCH  16  19
HETATM   19  O   UNL     1     -37.596   1.229  -5.077  1.00  0.00    -0.361 OA
HETATM   20  H   UNL     1     -36.767   0.992  -4.630  1.00  0.00     0.217 HD
ENDBRANCH  16  19
ENDBRANCH  12  13
ENDBRANCH   1  11
TORSDOF 7
ENDMDL
MODEL 4
REMARK VINA RESULT:      -7.5      1.386      2.411
REMARK  7 active torsions:
REMARK  status: ('A' for Active; 'I' for Inactive)
REMARK    1  A    between atoms: C_3  and  C_4 
REMARK    2  A    between atoms: C_4  and  C_5 
REMARK    3  A    between atoms: C_5  and  C_6 
REMARK    4  A    between atoms: C_6  and  C_8 
REMARK    5  A    between atoms: C_6  and  C_10 
REMARK    6  A    between atoms: C_11  and  C_12 
REMARK    7  A    between atoms: C_15  and  O_18 
ROOT
HETATM    1  C   UNL     1     -21.509  -6.292  -5.736  1.00  0.00    -0.009 C 
HETATM    2  C   UNL     1     -22.977  -6.300  -5.258  1.00  0.00     0.024 C 
ENDROOT
BRANCH   1   3
HETATM    3  C   UNL     1     -20.893  -7.726  -5.579  1.00  0.00     0.021 C 
BRANCH   3   4
HETATM    4  C   UNL     1     -20.177  -7.987  -4.242  1.00  0.00     0.028 C 
BRANCH   4   5
HETATM    5  C   UNL     1     -20.968  -8.811  -3.264  1.00  0.00    -0.025 C 
HETATM    6  C   UNL     1     -21.580  -8.357  -2.153  1.00  0.00    -0.091 C 
HETATM    7  C   UNL     1     -21.708  -6.909  -1.775  1.00  0.00     0.042 C 
HETATM    8  C   UNL     1     -22.173  -9.335  -1.172  1.00  0.00     0.042 C 
ENDBRANCH   4   5
ENDBRANCH   3   4
ENDBRANCH   1   3
BRANCH   1   9
HETATM    9  C   UNL     1     -20.634  -5.343  -4.906  1.00  0.00    -0.024 C 
HETATM   10  C   UNL     1     -19.705  -4.478  -5.337  1.00  0.00     0.008 C 
ENDBRANCH   1   9
BRANCH   1  11
HETATM   11  C   UNL     1     -21.498  -5.859  -7.205  1.00  0.00    -0.013 C 
HETATM   12  C   UNL     1     -22.110  -4.784  -7.727  1.00  0.00     0.008 C 
BRANCH  12  13
HETATM   13  C   UNL     1     -21.994  -4.457  -9.148  1.00  0.00    -0.036 A 
HETATM   14  C   UNL     1     -20.739  -4.313  -9.749  1.00  0.00     0.014 A 
HETATM   15  C   UNL     1     -20.646  -4.018 -11.113  1.00  0.00     0.037 A 
HETATM   16  C   UNL     1     -21.809  -3.860 -11.862  1.00  0.00     0.065 A 
HETATM   17  C   UNL     1     -23.059  -3.982 -11.270  1.00  0.00     0.037 A 
HETATM   18  C   UNL     1     -23.153  -4.280  -9.911  1.00  0.00     0.014 A 
BRANCH  16  19
HETATM   19  O   UNL     1     -21.764  -3.580 -13.195  1.00  0.00    -0.361 OA
HETATM   20  H   UNL     1     -20.957  -3.071 -13.378  1.00  0.00     0.217 HD
ENDBRANCH  16  19
ENDBRANCH  12  13
ENDBRANCH   1  11
TORSDOF 7
ENDMDL
MODEL 5
REMARK VINA RESULT:      -7.4      1.680      2.857
REMARK  7 active torsions:
REMARK  status: ('A' for Active; 'I' for Inactive)
REMARK    1  A    between atoms: C_3  and  C_4 
REMARK    2  A    between atoms: C_4  and  C_5 
REMARK    3  A    between atoms: C_5  and  C_6 
REMARK    4  A    between atoms: C_6  and  C_8 
REMARK    5  A    between atoms: C_6  and  C_10 
REMARK    6  A    between atoms: C_11  and  C_12 
REMARK    7  A    between atoms: C_15  and  O_18 
ROOT
HETATM    1  C   UNL     1     -20.787  -7.714  -4.215  1.00  0.00    -0.009 C 
HETATM    2  C   UNL     1     -19.423  -8.430  -4.111  1.00  0.00     0.024 C 
ENDROOT
BRANCH   1   3
HETATM    3  C   UNL     1     -20.944  -6.700  -3.029  1.00  0.00     0.021 C 
BRANCH   3   4
HETATM    4  C   UNL     1     -21.892  -7.153  -1.905  1.00  0.00     0.028 C 
BRANCH   4   5
HETATM    5  C   UNL     1     -21.211  -7.854  -0.762  1.00  0.00    -0.025 C 
HETATM    6  C   UNL     1     -21.789  -8.244   0.391  1.00  0.00    -0.091 C 
HETATM    7  C   UNL     1     -23.262  -8.181   0.677  1.00  0.00     0.042 C 
HETATM    8  C   UNL     1     -20.935  -8.764   1.518  1.00  0.00     0.042 C 
ENDBRANCH   4   5
ENDBRANCH   3   4
ENDBRANCH   1   3
BRANCH   1   9
HETATM    9  C   UNL     1     -21.964  -8.693  -4.119  1.00  0.00    -0.024 C 
HETATM   10  C   UNL     1     -21.929 -10.031  -4.046  1.00  0.00     0.008 C 
ENDBRANCH   1   9
BRANCH   1  11
HETATM   11  C   UNL     1     -20.828  -6.980  -5.559  1.00  0.00    -0.013 C 
HETATM   12  C   UNL     1     -21.357  -5.768  -5.794  1.00  0.00     0.008 C 
BRANCH  12  13
HETATM   13  C   UNL     1     -21.302  -5.157  -7.121  1.00  0.00    -0.036 A 
HETATM   14  C   UNL     1     -20.181  -5.325  -7.940  1.00  0.00     0.014 A 
HETATM   15  C   UNL     1     -20.153  -4.748  -9.214  1.00  0.00     0.037 A 
HETATM   16  C   UNL     1     -21.242  -4.002  -9.654  1.00  0.00     0.065 A 
HETATM   17  C   UNL     1     -22.352  -3.815  -8.842  1.00  0.00     0.037 A 
HETATM   18  C   UNL     1     -22.383  -4.392  -7.572  1.00  0.00     0.014 A 
BRANCH  16  19
HETATM   19  O   UNL     1     -21.259  -3.430 -10.892  1.00  0.00    -0.361 OA
HETATM   20  H   UNL     1     -20.533  -3.804 -11.417  1.00  0.00     0.217 HD
ENDBRANCH  16  19
ENDBRANCH  12  13
ENDBRANCH   1  11
TORSDOF 7
ENDMDL
MODEL 6
REMARK VINA RESULT:      -7.4      3.424      8.053
REMARK  7 active torsions:
REMARK  status: ('A' for Active; 'I' for Inactive)
REMARK    1  A    between atoms: C_3  and  C_4 
REMARK    2  A    between atoms: C_4  and  C_5 
REMARK    3  A    between atoms: C_5  and  C_6 
REMARK    4  A    between atoms: C_6  and  C_8 
REMARK    5  A    between atoms: C_6  and  C_10 
REMARK    6  A    between atoms: C_11  and  C_12 
REMARK    7  A    between atoms: C_15  and  O_18 
ROOT
HETATM    1  C   UNL     1     -21.210  -5.393  -6.493  1.00  0.00    -0.009 C 
HETATM    2  C   UNL     1     -20.954  -6.422  -7.616  1.00  0.00     0.024 C 
ENDROOT
BRANCH   1   3
HETATM    3  C   UNL     1     -22.466  -4.524  -6.847  1.00  0.00     0.021 C 
BRANCH   3   4
HETATM    4  C   UNL     1     -22.297  -3.600  -8.067  1.00  0.00     0.028 C 
BRANCH   4   5
HETATM    5  C   UNL     1     -23.004  -4.073  -9.307  1.00  0.00    -0.025 C 
HETATM    6  C   UNL     1     -22.437  -4.300 -10.508  1.00  0.00    -0.091 C 
HETATM    7  C   UNL     1     -20.960  -4.267 -10.780  1.00  0.00     0.042 C 
HETATM    8  C   UNL     1     -23.308  -4.589 -11.704  1.00  0.00     0.042 C 
ENDBRANCH   4   5
ENDBRANCH   3   4
ENDBRANCH   1   3
BRANCH   1   9
HETATM    9  C   UNL     1     -20.035  -4.422  -6.317  1.00  0.00    -0.024 C 
HETATM   10  C   UNL     1     -18.920  -4.324  -7.055  1.00  0.00     0.008 C 
ENDBRANCH   1   9
BRANCH   1  11
HETATM   11  C   UNL     1     -21.443  -6.168  -5.193  1.00  0.00    -0.013 C 
HETATM   12  C   UNL     1     -20.966  -5.854  -3.976  1.00  0.00     0.008 C 
BRANCH  12  13
HETATM   13  C   UNL     1     -21.291  -6.660  -2.800  1.00  0.00    -0.036 A 
HETATM   14  C   UNL     1     -22.185  -6.189  -1.834  1.00  0.00     0.014 A 
HETATM   15  C   UNL     1     -22.498  -6.980  -0.724  1.00  0.00     0.037 A 
HETATM   16  C   UNL     1     -21.906  -8.232  -0.585  1.00  0.00     0.065 A 
HETATM   17  C   UNL     1     -21.002  -8.701  -1.529  1.00  0.00     0.037 A 
HETATM   18  C   UNL     1     -20.692  -7.914  -2.638  1.00  0.00     0.014 A 
BRANCH  16  19
HETATM   19  O   UNL     1     -22.188  -9.040   0.477  1.00  0.00    -0.361 OA
HETATM   20  H   UNL     1     -22.088  -8.523   1.293  1.00  0.00     0.217 HD
ENDBRANCH  16  19
ENDBRANCH  12  13
ENDBRANCH   1  11
TORSDOF 7
ENDMDL
MODEL 7
REMARK VINA RESULT:      -7.3      4.842      7.797
REMARK  7 active torsions:
REMARK  status: ('A' for Active; 'I' for Inactive)
REMARK    1  A    between atoms: C_3  and  C_4 
REMARK    2  A    between atoms: C_4  and  C_5 
REMARK    3  A    between atoms: C_5  and  C_6 
REMARK    4  A    between atoms: C_6  and  C_8 
REMARK    5  A    between atoms: C_6  and  C_10 
REMARK    6  A    between atoms: C_11  and  C_12 
REMARK    7  A    between atoms: C_15  and  O_18 
ROOT
HETATM    1  C   UNL     1     -21.281  -9.375  -0.667  1.00  0.00    -0.009 C 
HETATM    2  C   UNL     1     -20.839 -10.077   0.635  1.00  0.00     0.024 C 
ENDROOT
BRANCH   1   3
HETATM    3  C   UNL     1     -21.366  -7.827  -0.431  1.00  0.00     0.021 C 
BRANCH   3   4
HETATM    4  C   UNL     1     -22.403  -7.090  -1.297  1.00  0.00     0.028 C 
BRANCH   4   5
HETATM    5  C   UNL     1     -21.810  -6.210  -2.361  1.00  0.00    -0.025 C 
HETATM    6  C   UNL     1     -21.611  -6.545  -3.652  1.00  0.00    -0.091 C 
HETATM    7  C   UNL     1     -22.091  -7.815  -4.292  1.00  0.00     0.042 C 
HETATM    8  C   UNL     1     -20.832  -5.621  -4.553  1.00  0.00     0.042 C 
ENDBRANCH   4   5
ENDBRANCH   3   4
ENDBRANCH   1   3
BRANCH   1   9
HETATM    9  C   UNL     1     -22.673  -9.829  -1.127  1.00  0.00    -0.024 C 
HETATM   10  C   UNL     1     -23.563 -10.582  -0.466  1.00  0.00     0.008 C 
ENDBRANCH   1   9
BRANCH   1  11
HETATM   11  C   UNL     1     -20.245  -9.698  -1.747  1.00  0.00    -0.013 C 
HETATM   12  C   UNL     1     -19.283  -8.879  -2.205  1.00  0.00     0.008 C 
BRANCH  12  13
HETATM   13  C   UNL     1     -18.327  -9.320  -3.219  1.00  0.00    -0.036 A 
HETATM   14  C   UNL     1     -18.714  -9.462  -4.555  1.00  0.00     0.014 A 
HETATM   15  C   UNL     1     -17.782  -9.869  -5.516  1.00  0.00     0.037 A 
HETATM   16  C   UNL     1     -16.473 -10.138  -5.130  1.00  0.00     0.065 A 
HETATM   17  C   UNL     1     -16.082 -10.018  -3.803  1.00  0.00     0.037 A 
HETATM   18  C   UNL     1     -17.010  -9.610  -2.845  1.00  0.00     0.014 A 
BRANCH  16  19
HETATM   19  O   UNL     1     -15.530 -10.528  -6.034  1.00  0.00    -0.361 OA
HETATM   20  H   UNL     1     -14.651 -10.338  -5.667  1.00  0.00     0.217 HD
ENDBRANCH  16  19
ENDBRANCH  12  13
ENDBRANCH   1  11
TORSDOF 7
ENDMDL
MODEL 8
REMARK VINA RESULT:      -7.1      3.199      8.065
REMARK  7 active torsions:
REMARK  status: ('A' for Active; 'I' for Inactive)
REMARK    1  A    between atoms: C_3  and  C_4 
REMARK    2  A    between atoms: C_4  and  C_5 
REMARK    3  A    between atoms: C_5  and  C_6 
REMARK    4  A    between atoms: C_6  and  C_8 
REMARK    5  A    between atoms: C_6  and  C_10 
REMARK    6  A    between atoms: C_11  and  C_12 
REMARK    7  A    between atoms: C_15  and  O_18 
ROOT
HETATM    1  C   UNL     1     -20.691  -4.712  -7.845  1.00  0.00    -0.009 C 
HETATM    2  C   UNL     1     -19.300  -4.054  -7.707  1.00  0.00     0.024 C 
ENDROOT
BRANCH   1   3
HETATM    3  C   UNL     1     -20.814  -5.398  -9.249  1.00  0.00     0.021 C 
BRANCH   3   4
HETATM    4  C   UNL     1     -20.089  -4.675 -10.397  1.00  0.00     0.028 C 
BRANCH   4   5
HETATM    5  C   UNL     1     -20.869  -3.547 -11.012  1.00  0.00    -0.025 C 
HETATM    6  C   UNL     1     -22.091  -3.638 -11.575  1.00  0.00    -0.091 C 
HETATM    7  C   UNL     1     -22.958  -4.864 -11.549  1.00  0.00     0.042 C 
HETATM    8  C   UNL     1     -22.662  -2.458 -12.318  1.00  0.00     0.042 C 
ENDBRANCH   4   5
ENDBRANCH   3   4
ENDBRANCH   1   3
BRANCH   1   9
HETATM    9  C   UNL     1     -21.829  -3.686  -7.753  1.00  0.00    -0.024 C 
HETATM   10  C   UNL     1     -23.130  -3.860  -8.025  1.00  0.00     0.008 C 
ENDBRANCH   1   9
BRANCH   1  11
HETATM   11  C   UNL     1     -20.832  -5.747  -6.725  1.00  0.00    -0.013 C 
HETATM   12  C   UNL     1     -20.999  -5.493  -5.416  1.00  0.00     0.008 C 
BRANCH  12  13
HETATM   13  C   UNL     1     -21.158  -6.575  -4.446  1.00  0.00    -0.036 A 
HETATM   14  C   UNL     1     -21.106  -7.913  -4.849  1.00  0.00     0.014 A 
HETATM   15  C   UNL     1     -21.242  -8.935  -3.905  1.00  0.00     0.037 A 
HETATM   16  C   UNL     1     -21.437  -8.611  -2.566  1.00  0.00     0.065 A 
HETATM   17  C   UNL     1     -21.508  -7.286  -2.157  1.00  0.00     0.037 A 
HETATM   18  C   UNL     1     -21.370  -6.265  -3.098  1.00  0.00     0.014 A 
BRANCH  16  19
HETATM   19  O   UNL     1     -21.566  -9.575  -1.610  1.00  0.00    -0.361 OA
HETATM   20  H   UNL     1     -20.792 -10.160  -1.654  1.00  0.00     0.217 HD
ENDBRANCH  16  19
ENDBRANCH  12  13
ENDBRANCH   1  11
TORSDOF 7
ENDMDL
MODEL 9
REMARK VINA RESULT:      -7.0      6.230      7.849
REMARK  7 active torsions:
REMARK  status: ('A' for Active; 'I' for Inactive)
REMARK    1  A    between atoms: C_3  and  C_4 
REMARK    2  A    between atoms: C_4  and  C_5 
REMARK    3  A    between atoms: C_5  and  C_6 
REMARK    4  A    between atoms: C_6  and  C_8 
REMARK    5  A    between atoms: C_6  and  C_10 
REMARK    6  A    between atoms: C_11  and  C_12 
REMARK    7  A    between atoms: C_15  and  O_18 
ROOT
HETATM    1  C   UNL     1     -22.053  -8.347  -0.244  1.00  0.00    -0.009 C 
HETATM    2  C   UNL     1     -22.485  -6.934  -0.690  1.00  0.00     0.024 C 
ENDROOT
BRANCH   1   3
HETATM    3  C   UNL     1     -23.320  -9.239  -0.007  1.00  0.00     0.021 C 
BRANCH   3   4
HETATM    4  C   UNL     1     -23.255 -10.646  -0.628  1.00  0.00     0.028 C 
BRANCH   4   5
HETATM    5  C   UNL     1     -23.640 -11.756   0.310  1.00  0.00    -0.025 C 
HETATM    6  C   UNL     1     -22.811 -12.687   0.824  1.00  0.00    -0.091 C 
HETATM    7  C   UNL     1     -21.318 -12.685   0.670  1.00  0.00     0.042 C 
HETATM    8  C   UNL     1     -23.379 -13.849   1.597  1.00  0.00     0.042 C 
ENDBRANCH   4   5
ENDBRANCH   3   4
ENDBRANCH   1   3
BRANCH   1   9
HETATM    9  C   UNL     1     -21.274  -8.325   1.078  1.00  0.00    -0.024 C 
HETATM   10  C   UNL     1     -20.603  -9.327   1.665  1.00  0.00     0.008 C 
ENDBRANCH   1   9
BRANCH   1  11
HETATM   11  C   UNL     1     -21.178  -8.940  -1.353  1.00  0.00    -0.013 C 
HETATM   12  C   UNL     1     -20.128  -8.348  -1.947  1.00  0.00     0.008 C 
BRANCH  12  13
HETATM   13  C   UNL     1     -19.347  -9.037  -2.974  1.00  0.00    -0.036 A 
HETATM   14  C   UNL     1     -18.024  -9.417  -2.732  1.00  0.00     0.014 A 
HETATM   15  C   UNL     1     -17.297 -10.091  -3.720  1.00  0.00     0.037 A 
HETATM   16  C   UNL     1     -17.898 -10.370  -4.943  1.00  0.00     0.065 A 
HETATM   17  C   UNL     1     -19.206  -9.980  -5.200  1.00  0.00     0.037 A 
HETATM   18  C   UNL     1     -19.932  -9.311  -4.215  1.00  0.00     0.014 A 
BRANCH  16  19
HETATM   19  O   UNL     1     -17.229 -11.031  -5.931  1.00  0.00    -0.361 OA
HETATM   20  H   UNL     1     -17.627 -11.911  -6.038  1.00  0.00     0.217 HD
ENDBRANCH  16  19
ENDBRANCH  12  13
ENDBRANCH   1  11
TORSDOF 7
ENDMDL
