MODEL 1
REMARK VINA RESULT:      -4.0      0.000      0.000
REMARK  4 active torsions:
REMARK  status: ('A' for Active; 'I' for Inactive)
REMARK    1  A    between atoms: C_2  and  C_3 
REMARK    2  A    between atoms: C_2  and  O_6 
REMARK    3  A    between atoms: C_3  and  C_4 
REMARK    4  A    between atoms: C_4  and  O_5 
ROOT
HETATM    1  C   UNL     1     -29.009 -14.936 -17.834  1.00  0.00     0.039 C 
HETATM    2  C   UNL     1     -29.400 -14.399 -19.205  1.00  0.00     0.116 C 
ENDROOT
BRANCH   2   3
HETATM    3  C   UNL     1     -29.711 -15.524 -20.190  1.00  0.00     0.057 C 
BRANCH   3   4
HETATM    4  C   UNL     1     -29.483 -15.101 -21.637  1.00  0.00     0.166 C 
BRANCH   4   5
HETATM    5  O   UNL     1     -28.924 -13.792 -21.667  1.00  0.00    -0.401 OA
HETATM    6  H   UNL     1     -28.197 -13.799 -22.313  1.00  0.00     0.209 HD
ENDBRANCH   4   5
ENDBRANCH   3   4
ENDBRANCH   2   3
BRANCH   2   7
HETATM    7  O   UNL     1     -30.536 -13.552 -19.053  1.00  0.00    -0.396 OA
HETATM    8  H   UNL     1     -30.356 -12.720 -19.525  1.00  0.00     0.210 HD
ENDBRANCH   2   7
TORSDOF 4
ENDMDL
MODEL 2
REMARK VINA RESULT:      -3.8     15.016     15.610
REMARK  4 active torsions:
REMARK  status: ('A' for Active; 'I' for Inactive)
REMARK    1  A    between atoms: C_2  and  C_3 
REMARK    2  A    between atoms: C_2  and  O_6 
REMARK    3  A    between atoms: C_3  and  C_4 
REMARK    4  A    between atoms: C_4  and  O_5 
ROOT
HETATM    1  C   UNL     1     -22.042  -2.988 -11.632  1.00  0.00     0.039 C 
HETATM    2  C   UNL     1     -23.421  -3.593 -11.863  1.00  0.00     0.116 C 
ENDROOT
BRANCH   2   3
HETATM    3  C   UNL     1     -23.927  -4.342 -10.631  1.00  0.00     0.057 C 
BRANCH   3   4
HETATM    4  C   UNL     1     -24.488  -3.397  -9.574  1.00  0.00     0.166 C 
BRANCH   4   5
HETATM    5  O   UNL     1     -25.889  -3.244  -9.768  1.00  0.00    -0.401 OA
HETATM    6  H   UNL     1     -26.039  -2.355 -10.133  1.00  0.00     0.209 HD
ENDBRANCH   4   5
ENDBRANCH   3   4
ENDBRANCH   2   3
BRANCH   2   7
HETATM    7  O   UNL     1     -24.325  -2.546 -12.205  1.00  0.00    -0.396 OA
HETATM    8  H   UNL     1     -23.971  -1.713 -11.847  1.00  0.00     0.210 HD
ENDBRANCH   2   7
TORSDOF 4
ENDMDL
MODEL 3
REMARK VINA RESULT:      -3.8     14.218     14.613
REMARK  4 active torsions:
REMARK  status: ('A' for Active; 'I' for Inactive)
REMARK    1  A    between atoms: C_2  and  C_3 
REMARK    2  A    between atoms: C_2  and  O_6 
REMARK    3  A    between atoms: C_3  and  C_4 
REMARK    4  A    between atoms: C_4  and  O_5 
ROOT
HETATM    1  C   UNL     1     -23.539  -4.707 -11.092  1.00  0.00     0.039 C 
HETATM    2  C   UNL     1     -24.134  -3.307 -11.182  1.00  0.00     0.116 C 
ENDROOT
BRANCH   2   3
HETATM    3  C   UNL     1     -24.473  -2.925 -12.622  1.00  0.00     0.057 C 
BRANCH   3   4
HETATM    4  C   UNL     1     -23.243  -2.935 -13.525  1.00  0.00     0.166 C 
BRANCH   4   5
HETATM    5  O   UNL     1     -23.570  -3.549 -14.766  1.00  0.00    -0.401 OA
HETATM    6  H   UNL     1     -23.177  -3.009 -15.473  1.00  0.00     0.209 HD
ENDBRANCH   4   5
ENDBRANCH   3   4
ENDBRANCH   2   3
BRANCH   2   7
HETATM    7  O   UNL     1     -25.305  -3.258 -10.374  1.00  0.00    -0.396 OA
HETATM    8  H   UNL     1     -25.564  -4.172 -10.162  1.00  0.00     0.210 HD
ENDBRANCH   2   7
TORSDOF 4
ENDMDL
MODEL 4
REMARK VINA RESULT:      -3.8     15.503     16.224
REMARK  4 active torsions:
REMARK  status: ('A' for Active; 'I' for Inactive)
REMARK    1  A    between atoms: C_2  and  C_3 
REMARK    2  A    between atoms: C_2  and  O_6 
REMARK    3  A    between atoms: C_3  and  C_4 
REMARK    4  A    between atoms: C_4  and  O_5 
ROOT
HETATM    1  C   UNL     1     -21.652  -4.793  -8.436  1.00  0.00     0.039 C 
HETATM    2  C   UNL     1     -22.941  -4.026  -8.704  1.00  0.00     0.116 C 
ENDROOT
BRANCH   2   3
HETATM    3  C   UNL     1     -23.634  -4.506  -9.978  1.00  0.00     0.057 C 
BRANCH   3   4
HETATM    4  C   UNL     1     -24.540  -3.435 -10.578  1.00  0.00     0.166 C 
BRANCH   4   5
HETATM    5  O   UNL     1     -25.666  -3.236  -9.732  1.00  0.00    -0.401 OA
HETATM    6  H   UNL     1     -25.361  -2.750  -8.947  1.00  0.00     0.209 HD
ENDBRANCH   4   5
ENDBRANCH   3   4
ENDBRANCH   2   3
BRANCH   2   7
HETATM    7  O   UNL     1     -23.807  -4.186  -7.585  1.00  0.00    -0.396 OA
HETATM    8  H   UNL     1     -24.627  -3.694  -7.765  1.00  0.00     0.210 HD
ENDBRANCH   2   7
TORSDOF 4
ENDMDL
MODEL 5
REMARK VINA RESULT:      -3.8     14.654     15.251
REMARK  4 active torsions:
REMARK  status: ('A' for Active; 'I' for Inactive)
REMARK    1  A    between atoms: C_2  and  C_3 
REMARK    2  A    between atoms: C_2  and  O_6 
REMARK    3  A    between atoms: C_3  and  C_4 
REMARK    4  A    between atoms: C_4  and  O_5 
ROOT
HETATM    1  C   UNL     1     -23.658  -4.072  -8.770  1.00  0.00     0.039 C 
HETATM    2  C   UNL     1     -24.286  -3.326  -9.941  1.00  0.00     0.116 C 
ENDROOT
BRANCH   2   3
HETATM    3  C   UNL     1     -23.930  -3.967 -11.281  1.00  0.00     0.057 C 
BRANCH   3   4
HETATM    4  C   UNL     1     -24.104  -2.999 -12.447  1.00  0.00     0.166 C 
BRANCH   4   5
HETATM    5  O   UNL     1     -25.490  -2.843 -12.731  1.00  0.00    -0.401 OA
HETATM    6  H   UNL     1     -25.672  -3.312 -13.564  1.00  0.00     0.209 HD
ENDBRANCH   4   5
ENDBRANCH   3   4
ENDBRANCH   2   3
BRANCH   2   7
HETATM    7  O   UNL     1     -25.700  -3.312  -9.765  1.00  0.00    -0.396 OA
HETATM    8  H   UNL     1     -25.930  -4.004  -9.120  1.00  0.00     0.210 HD
ENDBRANCH   2   7
TORSDOF 4
ENDMDL
MODEL 6
REMARK VINA RESULT:      -3.7     14.361     14.587
REMARK  4 active torsions:
REMARK  status: ('A' for Active; 'I' for Inactive)
REMARK    1  A    between atoms: C_2  and  C_3 
REMARK    2  A    between atoms: C_2  and  O_6 
REMARK    3  A    between atoms: C_3  and  C_4 
REMARK    4  A    between atoms: C_4  and  O_5 
ROOT
HETATM    1  C   UNL     1     -21.800  -3.600 -11.485  1.00  0.00     0.039 C 
HETATM    2  C   UNL     1     -23.289  -3.825 -11.716  1.00  0.00     0.116 C 
ENDROOT
BRANCH   2   3
HETATM    3  C   UNL     1     -23.888  -2.766 -12.640  1.00  0.00     0.057 C 
BRANCH   3   4
HETATM    4  C   UNL     1     -23.145  -2.676 -13.969  1.00  0.00     0.166 C 
BRANCH   4   5
HETATM    5  O   UNL     1     -23.662  -3.648 -14.870  1.00  0.00    -0.401 OA
HETATM    6  H   UNL     1     -23.177  -3.558 -15.708  1.00  0.00     0.209 HD
ENDBRANCH   4   5
ENDBRANCH   3   4
ENDBRANCH   2   3
BRANCH   2   7
HETATM    7  O   UNL     1     -23.471  -5.123 -12.276  1.00  0.00    -0.396 OA
HETATM    8  H   UNL     1     -23.387  -5.775 -11.558  1.00  0.00     0.210 HD
ENDBRANCH   2   7
TORSDOF 4
ENDMDL
MODEL 7
REMARK VINA RESULT:      -3.6     13.061     13.914
REMARK  4 active torsions:
REMARK  status: ('A' for Active; 'I' for Inactive)
REMARK    1  A    between atoms: C_2  and  C_3 
REMARK    2  A    between atoms: C_2  and  O_6 
REMARK    3  A    between atoms: C_3  and  C_4 
REMARK    4  A    between atoms: C_4  and  O_5 
ROOT
HETATM    1  C   UNL     1     -33.314  -2.546 -11.012  1.00  0.00     0.039 C 
HETATM    2  C   UNL     1     -33.226  -4.043 -11.280  1.00  0.00     0.116 C 
ENDROOT
BRANCH   2   3
HETATM    3  C   UNL     1     -34.440  -4.791 -10.730  1.00  0.00     0.057 C 
BRANCH   3   4
HETATM    4  C   UNL     1     -34.213  -6.298 -10.682  1.00  0.00     0.166 C 
BRANCH   4   5
HETATM    5  O   UNL     1     -32.915  -6.600 -11.182  1.00  0.00    -0.401 OA
HETATM    6  H   UNL     1     -32.544  -7.307 -10.626  1.00  0.00     0.209 HD
ENDBRANCH   4   5
ENDBRANCH   3   4
ENDBRANCH   2   3
BRANCH   2   7
HETATM    7  O   UNL     1     -33.121  -4.248 -12.686  1.00  0.00    -0.396 OA
HETATM    8  H   UNL     1     -33.980  -4.031 -13.088  1.00  0.00     0.210 HD
ENDBRANCH   2   7
TORSDOF 4
ENDMDL
MODEL 8
REMARK VINA RESULT:      -3.6     14.866     15.773
REMARK  4 active torsions:
REMARK  status: ('A' for Active; 'I' for Inactive)
REMARK    1  A    between atoms: C_2  and  C_3 
REMARK    2  A    between atoms: C_2  and  O_6 
REMARK    3  A    between atoms: C_3  and  C_4 
REMARK    4  A    between atoms: C_4  and  O_5 
ROOT
HETATM    1  C   UNL     1     -24.327  -2.994 -12.509  1.00  0.00     0.039 C 
HETATM    2  C   UNL     1     -22.814  -2.969 -12.334  1.00  0.00     0.116 C 
ENDROOT
BRANCH   2   3
HETATM    3  C   UNL     1     -22.355  -3.906 -11.217  1.00  0.00     0.057 C 
BRANCH   3   4
HETATM    4  C   UNL     1     -20.837  -4.052 -11.177  1.00  0.00     0.166 C 
BRANCH   4   5
HETATM    5  O   UNL     1     -20.231  -2.810 -11.517  1.00  0.00    -0.401 OA
HETATM    6  H   UNL     1     -19.380  -2.762 -11.048  1.00  0.00     0.209 HD
ENDBRANCH   4   5
ENDBRANCH   3   4
ENDBRANCH   2   3
BRANCH   2   7
HETATM    7  O   UNL     1     -22.208  -3.345 -13.567  1.00  0.00    -0.396 OA
HETATM    8  H   UNL     1     -21.956  -4.283 -13.506  1.00  0.00     0.210 HD
ENDBRANCH   2   7
TORSDOF 4
ENDMDL
MODEL 9
REMARK VINA RESULT:      -3.6     15.163     15.655
REMARK  4 active torsions:
REMARK  status: ('A' for Active; 'I' for Inactive)
REMARK    1  A    between atoms: C_2  and  C_3 
REMARK    2  A    between atoms: C_2  and  O_6 
REMARK    3  A    between atoms: C_3  and  C_4 
REMARK    4  A    between atoms: C_4  and  O_5 
ROOT
HETATM    1  C   UNL     1     -21.232  -3.911 -10.654  1.00  0.00     0.039 C 
HETATM    2  C   UNL     1     -22.406  -4.078 -11.610  1.00  0.00     0.116 C 
ENDROOT
BRANCH   2   3
HETATM    3  C   UNL     1     -23.626  -3.278 -11.157  1.00  0.00     0.057 C 
BRANCH   3   4
HETATM    4  C   UNL     1     -24.384  -3.973 -10.031  1.00  0.00     0.166 C 
BRANCH   4   5
HETATM    5  O   UNL     1     -25.614  -3.296  -9.797  1.00  0.00    -0.401 OA
HETATM    6  H   UNL     1     -26.040  -3.156 -10.660  1.00  0.00     0.209 HD
ENDBRANCH   4   5
ENDBRANCH   3   4
ENDBRANCH   2   3
BRANCH   2   7
HETATM    7  O   UNL     1     -21.998  -3.656 -12.908  1.00  0.00    -0.396 OA
HETATM    8  H   UNL     1     -22.078  -2.687 -12.949  1.00  0.00     0.210 HD
ENDBRANCH   2   7
TORSDOF 4
ENDMDL
