MODEL 1
REMARK VINA RESULT:      -6.7      0.000      0.000
REMARK  9 active torsions:
REMARK  status: ('A' for Active; 'I' for Inactive)
REMARK    1  A    between atoms: C_2  and  C_3 
REMARK    2  A    between atoms: C_3  and  C_4 
REMARK    3  A    between atoms: C_4  and  C_5 
REMARK    4  A    between atoms: C_5  and  C_6 
REMARK    5  A    between atoms: C_6  and  C_7 
REMARK    6  A    between atoms: C_7  and  C_8 
REMARK       I    between atoms: C_8  and  N_10 
REMARK    7  A    between atoms: N_10  and  C_11 
REMARK    8  A    between atoms: C_11  and  C_12 
REMARK    9  A    between atoms: C_12  and  O_14 
ROOT
HETATM    1  C   UNL     1     -35.513  -0.779 -13.073  1.00  0.00     0.217 C 
HETATM    2  O   UNL     1     -36.704  -1.084 -13.033  1.00  0.00    -0.274 OA
HETATM    3  N   UNL     1     -34.971  -0.174 -14.182  1.00  0.00    -0.351 N 
HETATM    4  H   UNL     1     -33.987   0.080 -14.221  1.00  0.00     0.163 HD
ENDROOT
BRANCH   1   5
HETATM    5  C   UNL     1     -34.550  -1.041 -11.920  1.00  0.00     0.103 C 
BRANCH   5   6
HETATM    6  C   UNL     1     -34.529  -2.532 -11.563  1.00  0.00     0.009 C 
BRANCH   6   7
HETATM    7  C   UNL     1     -33.123  -3.052 -11.280  1.00  0.00     0.000 C 
BRANCH   7   8
HETATM    8  C   UNL     1     -33.098  -4.580 -11.309  1.00  0.00     0.000 C 
BRANCH   8   9
HETATM    9  C   UNL     1     -34.277  -5.152 -10.530  1.00  0.00    -0.000 C 
BRANCH   9  10
HETATM   10  C   UNL     1     -34.501  -6.620 -10.878  1.00  0.00    -0.005 C 
HETATM   11  C   UNL     1     -34.886  -7.407  -9.639  1.00  0.00     0.005 C 
ENDBRANCH   9  10
ENDBRANCH   8   9
ENDBRANCH   7   8
ENDBRANCH   6   7
ENDBRANCH   5   6
ENDBRANCH   1   5
BRANCH   3  12
HETATM   12  C   UNL     1     -35.799   0.124 -15.350  1.00  0.00     0.232 C 
BRANCH  12  13
HETATM   13  C   UNL     1     -35.728  -1.000 -16.376  1.00  0.00     0.158 C 
HETATM   14  O   UNL     1     -35.075  -2.018 -16.215  1.00  0.00    -0.649 OA
BRANCH  13  15
HETATM   15  O   UNL     1     -36.453  -0.789 -17.504  1.00  0.00    -0.775 OA
HETATM   16  H   UNL     1     -36.079  -0.168 -18.155  1.00  0.00     0.167 HD
ENDBRANCH  13  15
ENDBRANCH  12  13
ENDBRANCH   3  12
TORSDOF 9
ENDMDL
MODEL 2
REMARK VINA RESULT:      -6.6      1.750      2.053
REMARK  9 active torsions:
REMARK  status: ('A' for Active; 'I' for Inactive)
REMARK    1  A    between atoms: C_2  and  C_3 
REMARK    2  A    between atoms: C_3  and  C_4 
REMARK    3  A    between atoms: C_4  and  C_5 
REMARK    4  A    between atoms: C_5  and  C_6 
REMARK    5  A    between atoms: C_6  and  C_7 
REMARK    6  A    between atoms: C_7  and  C_8 
REMARK       I    between atoms: C_8  and  N_10 
REMARK    7  A    between atoms: N_10  and  C_11 
REMARK    8  A    between atoms: C_11  and  C_12 
REMARK    9  A    between atoms: C_12  and  O_14 
ROOT
HETATM    1  C   UNL     1     -34.756  -1.662 -11.901  1.00  0.00     0.217 C 
HETATM    2  O   UNL     1     -35.530  -2.444 -12.451  1.00  0.00    -0.274 OA
HETATM    3  N   UNL     1     -34.879  -0.304 -12.069  1.00  0.00    -0.351 N 
HETATM    4  H   UNL     1     -34.242   0.348 -11.617  1.00  0.00     0.163 HD
ENDROOT
BRANCH   1   5
HETATM    5  C   UNL     1     -33.611  -2.121 -11.003  1.00  0.00     0.103 C 
BRANCH   5   6
HETATM    6  C   UNL     1     -33.805  -3.584 -10.588  1.00  0.00     0.009 C 
BRANCH   6   7
HETATM    7  C   UNL     1     -33.083  -4.560 -11.513  1.00  0.00     0.000 C 
BRANCH   7   8
HETATM    8  C   UNL     1     -33.443  -6.003 -11.160  1.00  0.00     0.000 C 
BRANCH   8   9
HETATM    9  C   UNL     1     -34.515  -6.040 -10.076  1.00  0.00    -0.000 C 
BRANCH   9  10
HETATM   10  C   UNL     1     -35.062  -7.453  -9.897  1.00  0.00    -0.005 C 
HETATM   11  C   UNL     1     -33.926  -8.457  -9.820  1.00  0.00     0.005 C 
ENDBRANCH   9  10
ENDBRANCH   8   9
ENDBRANCH   7   8
ENDBRANCH   6   7
ENDBRANCH   5   6
ENDBRANCH   1   5
BRANCH   3  12
HETATM   12  C   UNL     1     -35.939   0.251 -12.910  1.00  0.00     0.232 C 
BRANCH  12  13
HETATM   13  C   UNL     1     -35.394   0.683 -14.267  1.00  0.00     0.158 C 
HETATM   14  O   UNL     1     -34.222   0.574 -14.587  1.00  0.00    -0.649 OA
BRANCH  13  15
HETATM   15  O   UNL     1     -36.319   1.205 -15.113  1.00  0.00    -0.775 OA
HETATM   16  H   UNL     1     -37.251   0.986 -14.931  1.00  0.00     0.167 HD
ENDBRANCH  13  15
ENDBRANCH  12  13
ENDBRANCH   3  12
TORSDOF 9
ENDMDL
MODEL 3
REMARK VINA RESULT:      -6.6     11.896     13.120
REMARK  9 active torsions:
REMARK  status: ('A' for Active; 'I' for Inactive)
REMARK    1  A    between atoms: C_2  and  C_3 
REMARK    2  A    between atoms: C_3  and  C_4 
REMARK    3  A    between atoms: C_4  and  C_5 
REMARK    4  A    between atoms: C_5  and  C_6 
REMARK    5  A    between atoms: C_6  and  C_7 
REMARK    6  A    between atoms: C_7  and  C_8 
REMARK       I    between atoms: C_8  and  N_10 
REMARK    7  A    between atoms: N_10  and  C_11 
REMARK    8  A    between atoms: C_11  and  C_12 
REMARK    9  A    between atoms: C_12  and  O_14 
ROOT
HETATM    1  C   UNL     1     -24.303  -3.679 -10.255  1.00  0.00     0.217 C 
HETATM    2  O   UNL     1     -25.379  -3.112 -10.069  1.00  0.00    -0.274 OA
HETATM    3  N   UNL     1     -23.686  -3.646 -11.482  1.00  0.00    -0.351 N 
HETATM    4  H   UNL     1     -22.797  -4.114 -11.643  1.00  0.00     0.163 HD
ENDROOT
BRANCH   1   5
HETATM    5  C   UNL     1     -23.574  -4.455  -9.163  1.00  0.00     0.103 C 
BRANCH   5   6
HETATM    6  C   UNL     1     -22.338  -3.684  -8.688  1.00  0.00     0.009 C 
BRANCH   6   7
HETATM    7  C   UNL     1     -21.031  -4.315  -9.159  1.00  0.00     0.000 C 
BRANCH   7   8
HETATM    8  C   UNL     1     -19.893  -3.982  -8.195  1.00  0.00     0.000 C 
BRANCH   8   9
HETATM    9  C   UNL     1     -19.689  -5.110  -7.191  1.00  0.00    -0.000 C 
BRANCH   9  10
HETATM   10  C   UNL     1     -20.136  -4.690  -5.795  1.00  0.00    -0.005 C 
HETATM   11  C   UNL     1     -21.071  -5.728  -5.201  1.00  0.00     0.005 C 
ENDBRANCH   9  10
ENDBRANCH   8   9
ENDBRANCH   7   8
ENDBRANCH   6   7
ENDBRANCH   5   6
ENDBRANCH   1   5
BRANCH   3  12
HETATM   12  C   UNL     1     -24.294  -2.934 -12.606  1.00  0.00     0.232 C 
BRANCH  12  13
HETATM   13  C   UNL     1     -23.358  -2.904 -13.809  1.00  0.00     0.158 C 
HETATM   14  O   UNL     1     -23.691  -2.497 -14.910  1.00  0.00    -0.649 OA
BRANCH  13  15
HETATM   15  O   UNL     1     -22.105  -3.368 -13.569  1.00  0.00    -0.775 OA
HETATM   16  H   UNL     1     -21.823  -4.149 -14.079  1.00  0.00     0.167 HD
ENDBRANCH  13  15
ENDBRANCH  12  13
ENDBRANCH   3  12
TORSDOF 9
ENDMDL
MODEL 4
REMARK VINA RESULT:      -6.3     12.576     13.749
REMARK  9 active torsions:
REMARK  status: ('A' for Active; 'I' for Inactive)
REMARK    1  A    between atoms: C_2  and  C_3 
REMARK    2  A    between atoms: C_3  and  C_4 
REMARK    3  A    between atoms: C_4  and  C_5 
REMARK    4  A    between atoms: C_5  and  C_6 
REMARK    5  A    between atoms: C_6  and  C_7 
REMARK    6  A    between atoms: C_7  and  C_8 
REMARK       I    between atoms: C_8  and  N_10 
REMARK    7  A    between atoms: N_10  and  C_11 
REMARK    8  A    between atoms: C_11  and  C_12 
REMARK    9  A    between atoms: C_12  and  O_14 
ROOT
HETATM    1  C   UNL     1     -21.807  -3.550 -11.197  1.00  0.00     0.217 C 
HETATM    2  O   UNL     1     -22.739  -3.549 -10.394  1.00  0.00    -0.274 OA
HETATM    3  N   UNL     1     -21.990  -3.148 -12.498  1.00  0.00    -0.351 N 
HETATM    4  H   UNL     1     -21.224  -3.146 -13.167  1.00  0.00     0.163 HD
ENDROOT
BRANCH   1   5
HETATM    5  C   UNL     1     -20.394  -3.989 -10.828  1.00  0.00     0.103 C 
BRANCH   5   6
HETATM    6  C   UNL     1     -20.395  -4.747  -9.496  1.00  0.00     0.009 C 
BRANCH   6   7
HETATM    7  C   UNL     1     -19.897  -3.894  -8.332  1.00  0.00     0.000 C 
BRANCH   7   8
HETATM    8  C   UNL     1     -20.999  -3.710  -7.290  1.00  0.00     0.000 C 
BRANCH   8   9
HETATM    9  C   UNL     1     -21.415  -5.053  -6.702  1.00  0.00    -0.000 C 
BRANCH   9  10
HETATM   10  C   UNL     1     -20.273  -5.682  -5.911  1.00  0.00    -0.005 C 
HETATM   11  C   UNL     1     -20.729  -6.971  -5.251  1.00  0.00     0.005 C 
ENDBRANCH   9  10
ENDBRANCH   8   9
ENDBRANCH   7   8
ENDBRANCH   6   7
ENDBRANCH   5   6
ENDBRANCH   1   5
BRANCH   3  12
HETATM   12  C   UNL     1     -23.304  -2.707 -12.966  1.00  0.00     0.232 C 
BRANCH  12  13
HETATM   13  C   UNL     1     -23.268  -2.349 -14.447  1.00  0.00     0.158 C 
HETATM   14  O   UNL     1     -23.993  -1.508 -14.954  1.00  0.00    -0.649 OA
BRANCH  13  15
HETATM   15  O   UNL     1     -22.359  -3.041 -15.180  1.00  0.00    -0.775 OA
HETATM   16  H   UNL     1     -22.348  -2.870 -16.139  1.00  0.00     0.167 HD
ENDBRANCH  13  15
ENDBRANCH  12  13
ENDBRANCH   3  12
TORSDOF 9
ENDMDL
MODEL 5
REMARK VINA RESULT:      -5.9     12.487     13.776
REMARK  9 active torsions:
REMARK  status: ('A' for Active; 'I' for Inactive)
REMARK    1  A    between atoms: C_2  and  C_3 
REMARK    2  A    between atoms: C_3  and  C_4 
REMARK    3  A    between atoms: C_4  and  C_5 
REMARK    4  A    between atoms: C_5  and  C_6 
REMARK    5  A    between atoms: C_6  and  C_7 
REMARK    6  A    between atoms: C_7  and  C_8 
REMARK       I    between atoms: C_8  and  N_10 
REMARK    7  A    between atoms: N_10  and  C_11 
REMARK    8  A    between atoms: C_11  and  C_12 
REMARK    9  A    between atoms: C_12  and  O_14 
ROOT
HETATM    1  C   UNL     1     -20.961  -4.004 -10.820  1.00  0.00     0.217 C 
HETATM    2  O   UNL     1     -20.081  -3.733 -11.635  1.00  0.00    -0.274 OA
HETATM    3  N   UNL     1     -22.291  -3.872 -11.140  1.00  0.00    -0.351 N 
HETATM    4  H   UNL     1     -23.023  -4.094 -10.470  1.00  0.00     0.163 HD
ENDROOT
BRANCH   1   5
HETATM    5  C   UNL     1     -20.661  -4.498  -9.408  1.00  0.00     0.103 C 
BRANCH   5   6
HETATM    6  C   UNL     1     -21.947  -4.569  -8.577  1.00  0.00     0.009 C 
BRANCH   6   7
HETATM    7  C   UNL     1     -21.757  -4.062  -7.150  1.00  0.00     0.000 C 
BRANCH   7   8
HETATM    8  C   UNL     1     -20.368  -4.432  -6.629  1.00  0.00     0.000 C 
BRANCH   8   9
HETATM    9  C   UNL     1     -20.471  -5.173  -5.301  1.00  0.00    -0.000 C 
BRANCH   9  10
HETATM   10  C   UNL     1     -21.716  -6.054  -5.261  1.00  0.00    -0.005 C 
HETATM   11  C   UNL     1     -21.353  -7.500  -5.543  1.00  0.00     0.005 C 
ENDBRANCH   9  10
ENDBRANCH   8   9
ENDBRANCH   7   8
ENDBRANCH   6   7
ENDBRANCH   5   6
ENDBRANCH   1   5
BRANCH   3  12
HETATM   12  C   UNL     1     -22.698  -3.404 -12.464  1.00  0.00     0.232 C 
BRANCH  12  13
HETATM   13  C   UNL     1     -24.126  -2.872 -12.445  1.00  0.00     0.158 C 
HETATM   14  O   UNL     1     -24.932  -3.142 -11.569  1.00  0.00    -0.649 OA
BRANCH  13  15
HETATM   15  O   UNL     1     -24.448  -2.063 -13.487  1.00  0.00    -0.775 OA
HETATM   16  H   UNL     1     -24.328  -1.106 -13.350  1.00  0.00     0.167 HD
ENDBRANCH  13  15
ENDBRANCH  12  13
ENDBRANCH   3  12
TORSDOF 9
ENDMDL
MODEL 6
REMARK VINA RESULT:      -5.9     12.897     14.196
REMARK  9 active torsions:
REMARK  status: ('A' for Active; 'I' for Inactive)
REMARK    1  A    between atoms: C_2  and  C_3 
REMARK    2  A    between atoms: C_3  and  C_4 
REMARK    3  A    between atoms: C_4  and  C_5 
REMARK    4  A    between atoms: C_5  and  C_6 
REMARK    5  A    between atoms: C_6  and  C_7 
REMARK    6  A    between atoms: C_7  and  C_8 
REMARK       I    between atoms: C_8  and  N_10 
REMARK    7  A    between atoms: N_10  and  C_11 
REMARK    8  A    between atoms: C_11  and  C_12 
REMARK    9  A    between atoms: C_12  and  O_14 
ROOT
HETATM    1  C   UNL     1     -22.173  -4.267  -8.369  1.00  0.00     0.217 C 
HETATM    2  O   UNL     1     -23.024  -4.328  -7.483  1.00  0.00    -0.274 OA
HETATM    3  N   UNL     1     -22.503  -4.476  -9.686  1.00  0.00    -0.351 N 
HETATM    4  H   UNL     1     -21.804  -4.426 -10.424  1.00  0.00     0.163 HD
ENDROOT
BRANCH   1   5
HETATM    5  C   UNL     1     -20.705  -3.960  -8.090  1.00  0.00     0.103 C 
BRANCH   5   6
HETATM    6  C   UNL     1     -20.058  -5.100  -7.295  1.00  0.00     0.009 C 
BRANCH   6   7
HETATM    7  C   UNL     1     -19.968  -4.800  -5.801  1.00  0.00     0.000 C 
BRANCH   7   8
HETATM    8  C   UNL     1     -20.959  -5.662  -5.020  1.00  0.00     0.000 C 
BRANCH   8   9
HETATM    9  C   UNL     1     -21.257  -6.956  -5.769  1.00  0.00    -0.000 C 
BRANCH   9  10
HETATM   10  C   UNL     1     -20.835  -8.172  -4.951  1.00  0.00    -0.005 C 
HETATM   11  C   UNL     1     -20.828  -7.839  -3.470  1.00  0.00     0.005 C 
ENDBRANCH   9  10
ENDBRANCH   8   9
ENDBRANCH   7   8
ENDBRANCH   6   7
ENDBRANCH   5   6
ENDBRANCH   1   5
BRANCH   3  12
HETATM   12  C   UNL     1     -23.880  -4.779 -10.073  1.00  0.00     0.232 C 
BRANCH  12  13
HETATM   13  C   UNL     1     -24.668  -3.503 -10.347  1.00  0.00     0.158 C 
HETATM   14  O   UNL     1     -24.902  -3.086 -11.470  1.00  0.00    -0.649 OA
BRANCH  13  15
HETATM   15  O   UNL     1     -25.101  -2.851  -9.239  1.00  0.00    -0.775 OA
HETATM   16  H   UNL     1     -25.951  -3.144  -8.862  1.00  0.00     0.167 HD
ENDBRANCH  13  15
ENDBRANCH  12  13
ENDBRANCH   3  12
TORSDOF 9
ENDMDL
MODEL 7
REMARK VINA RESULT:      -5.7      3.636      4.315
REMARK  9 active torsions:
REMARK  status: ('A' for Active; 'I' for Inactive)
REMARK    1  A    between atoms: C_2  and  C_3 
REMARK    2  A    between atoms: C_3  and  C_4 
REMARK    3  A    between atoms: C_4  and  C_5 
REMARK    4  A    between atoms: C_5  and  C_6 
REMARK    5  A    between atoms: C_6  and  C_7 
REMARK    6  A    between atoms: C_7  and  C_8 
REMARK       I    between atoms: C_8  and  N_10 
REMARK    7  A    between atoms: N_10  and  C_11 
REMARK    8  A    between atoms: C_11  and  C_12 
REMARK    9  A    between atoms: C_12  and  O_14 
ROOT
HETATM    1  C   UNL     1     -33.943  -3.849 -15.122  1.00  0.00     0.217 C 
HETATM    2  O   UNL     1     -34.662  -3.406 -16.017  1.00  0.00    -0.274 OA
HETATM    3  N   UNL     1     -32.737  -4.443 -15.408  1.00  0.00    -0.351 N 
HETATM    4  H   UNL     1     -32.139  -4.811 -14.672  1.00  0.00     0.163 HD
ENDROOT
BRANCH   1   5
HETATM    5  C   UNL     1     -34.319  -3.781 -13.645  1.00  0.00     0.103 C 
BRANCH   5   6
HETATM    6  C   UNL     1     -33.132  -4.193 -12.767  1.00  0.00     0.009 C 
BRANCH   6   7
HETATM    7  C   UNL     1     -33.209  -3.610 -11.359  1.00  0.00     0.000 C 
BRANCH   7   8
HETATM    8  C   UNL     1     -34.066  -4.495 -10.456  1.00  0.00     0.000 C 
BRANCH   8   9
HETATM    9  C   UNL     1     -33.891  -5.965 -10.817  1.00  0.00    -0.000 C 
BRANCH   9  10
HETATM   10  C   UNL     1     -34.787  -6.850  -9.959  1.00  0.00    -0.005 C 
HETATM   11  C   UNL     1     -34.313  -8.292 -10.006  1.00  0.00     0.005 C 
ENDBRANCH   9  10
ENDBRANCH   8   9
ENDBRANCH   7   8
ENDBRANCH   6   7
ENDBRANCH   5   6
ENDBRANCH   1   5
BRANCH   3  12
HETATM   12  C   UNL     1     -32.274  -4.566 -16.790  1.00  0.00     0.232 C 
BRANCH  12  13
HETATM   13  C   UNL     1     -30.987  -5.380 -16.868  1.00  0.00     0.158 C 
HETATM   14  O   UNL     1     -30.598  -5.927 -17.886  1.00  0.00    -0.649 OA
BRANCH  13  15
HETATM   15  O   UNL     1     -30.289  -5.457 -15.706  1.00  0.00    -0.775 OA
HETATM   16  H   UNL     1     -29.333  -5.276 -15.757  1.00  0.00     0.167 HD
ENDBRANCH  13  15
ENDBRANCH  12  13
ENDBRANCH   3  12
TORSDOF 9
ENDMDL
MODEL 8
REMARK VINA RESULT:      -5.6     14.703     16.700
REMARK  9 active torsions:
REMARK  status: ('A' for Active; 'I' for Inactive)
REMARK    1  A    between atoms: C_2  and  C_3 
REMARK    2  A    between atoms: C_3  and  C_4 
REMARK    3  A    between atoms: C_4  and  C_5 
REMARK    4  A    between atoms: C_5  and  C_6 
REMARK    5  A    between atoms: C_6  and  C_7 
REMARK    6  A    between atoms: C_7  and  C_8 
REMARK       I    between atoms: C_8  and  N_10 
REMARK    7  A    between atoms: N_10  and  C_11 
REMARK    8  A    between atoms: C_11  and  C_12 
REMARK    9  A    between atoms: C_12  and  O_14 
ROOT
HETATM    1  C   UNL     1     -20.397  -5.916  -6.049  1.00  0.00     0.217 C 
HETATM    2  O   UNL     1     -20.023  -7.082  -6.167  1.00  0.00    -0.274 OA
HETATM    3  N   UNL     1     -21.453  -5.587  -5.233  1.00  0.00    -0.351 N 
HETATM    4  H   UNL     1     -21.767  -4.625  -5.132  1.00  0.00     0.163 HD
ENDROOT
BRANCH   1   5
HETATM    5  C   UNL     1     -19.736  -4.754  -6.784  1.00  0.00     0.103 C 
BRANCH   5   6
HETATM    6  C   UNL     1     -20.789  -3.899  -7.497  1.00  0.00     0.009 C 
BRANCH   6   7
HETATM    7  C   UNL     1     -21.295  -4.539  -8.787  1.00  0.00     0.000 C 
BRANCH   7   8
HETATM    8  C   UNL     1     -20.173  -4.624  -9.822  1.00  0.00     0.000 C 
BRANCH   8   9
HETATM    9  C   UNL     1     -20.534  -3.832 -11.073  1.00  0.00    -0.000 C 
BRANCH   9  10
HETATM   10  C   UNL     1     -22.016  -3.975 -11.403  1.00  0.00    -0.005 C 
HETATM   11  C   UNL     1     -22.515  -2.752 -12.151  1.00  0.00     0.005 C 
ENDBRANCH   9  10
ENDBRANCH   8   9
ENDBRANCH   7   8
ENDBRANCH   6   7
ENDBRANCH   5   6
ENDBRANCH   1   5
BRANCH   3  12
HETATM   12  C   UNL     1     -22.165  -6.620  -4.481  1.00  0.00     0.232 C 
BRANCH  12  13
HETATM   13  C   UNL     1     -21.736  -6.627  -3.017  1.00  0.00     0.158 C 
HETATM   14  O   UNL     1     -20.815  -7.303  -2.589  1.00  0.00    -0.649 OA
BRANCH  13  15
HETATM   15  O   UNL     1     -22.462  -5.815  -2.207  1.00  0.00    -0.775 OA
HETATM   16  H   UNL     1     -22.994  -5.125  -2.642  1.00  0.00     0.167 HD
ENDBRANCH  13  15
ENDBRANCH  12  13
ENDBRANCH   3  12
TORSDOF 9
ENDMDL
MODEL 9
REMARK VINA RESULT:      -5.3     14.576     15.929
REMARK  9 active torsions:
REMARK  status: ('A' for Active; 'I' for Inactive)
REMARK    1  A    between atoms: C_2  and  C_3 
REMARK    2  A    between atoms: C_3  and  C_4 
REMARK    3  A    between atoms: C_4  and  C_5 
REMARK    4  A    between atoms: C_5  and  C_6 
REMARK    5  A    between atoms: C_6  and  C_7 
REMARK    6  A    between atoms: C_7  and  C_8 
REMARK       I    between atoms: C_8  and  N_10 
REMARK    7  A    between atoms: N_10  and  C_11 
REMARK    8  A    between atoms: C_11  and  C_12 
REMARK    9  A    between atoms: C_12  and  O_14 
ROOT
HETATM    1  C   UNL     1     -20.670  -5.596  -6.529  1.00  0.00     0.217 C 
HETATM    2  O   UNL     1     -19.984  -6.413  -7.142  1.00  0.00    -0.274 OA
HETATM    3  N   UNL     1     -21.416  -4.654  -7.194  1.00  0.00    -0.351 N 
HETATM    4  H   UNL     1     -21.985  -3.975  -6.693  1.00  0.00     0.163 HD
ENDROOT
BRANCH   1   5
HETATM    5  C   UNL     1     -20.751  -5.556  -5.006  1.00  0.00     0.103 C 
BRANCH   5   6
HETATM    6  C   UNL     1     -21.644  -6.687  -4.484  1.00  0.00     0.009 C 
BRANCH   6   7
HETATM    7  C   UNL     1     -21.350  -7.047  -3.030  1.00  0.00     0.000 C 
BRANCH   7   8
HETATM    8  C   UNL     1     -22.178  -6.178  -2.083  1.00  0.00     0.000 C 
BRANCH   8   9
HETATM    9  C   UNL     1     -22.394  -6.887  -0.751  1.00  0.00    -0.000 C 
BRANCH   9  10
HETATM   10  C   UNL     1     -21.440  -8.068  -0.599  1.00  0.00    -0.005 C 
HETATM   11  C   UNL     1     -21.550  -8.664   0.793  1.00  0.00     0.005 C 
ENDBRANCH   9  10
ENDBRANCH   8   9
ENDBRANCH   7   8
ENDBRANCH   6   7
ENDBRANCH   5   6
ENDBRANCH   1   5
BRANCH   3  12
HETATM   12  C   UNL     1     -21.415  -4.596  -8.656  1.00  0.00     0.232 C 
BRANCH  12  13
HETATM   13  C   UNL     1     -22.719  -4.010  -9.184  1.00  0.00     0.158 C 
HETATM   14  O   UNL     1     -23.761  -4.006  -8.549  1.00  0.00    -0.649 OA
BRANCH  13  15
HETATM   15  O   UNL     1     -22.643  -3.481 -10.432  1.00  0.00    -0.775 OA
HETATM   16  H   UNL     1     -21.949  -3.836 -11.016  1.00  0.00     0.167 HD
ENDBRANCH  13  15
ENDBRANCH  12  13
ENDBRANCH   3  12
TORSDOF 9
ENDMDL
