MODEL 1
REMARK VINA RESULT:      -6.4      0.000      0.000
REMARK  6 active torsions:
REMARK  status: ('A' for Active; 'I' for Inactive)
REMARK    1  A    between atoms: C_2  and  C_3 
REMARK    2  A    between atoms: C_3  and  C_4 
REMARK    3  A    between atoms: C_4  and  O_5 
REMARK    4  A    between atoms: O_5  and  C_6 
REMARK    5  A    between atoms: C_6  and  C_8 
REMARK    6  A    between atoms: C_11  and  O_14 
ROOT
HETATM    1  C   UNL     1     -22.104  -4.132  -9.186  1.00  0.00     0.039 A 
HETATM    2  C   UNL     1     -23.272  -3.825  -9.903  1.00  0.00     0.020 A 
HETATM    3  C   UNL     1     -23.213  -3.608 -11.282  1.00  0.00     0.037 A 
HETATM    4  C   UNL     1     -21.987  -3.692 -11.939  1.00  0.00     0.065 A 
HETATM    5  C   UNL     1     -20.826  -4.011 -11.248  1.00  0.00     0.037 A 
HETATM    6  C   UNL     1     -20.882  -4.235  -9.872  1.00  0.00     0.020 A 
ENDROOT
BRANCH   1   7
HETATM    7  C   UNL     1     -22.173  -4.193  -7.701  1.00  0.00     0.293 C 
HETATM    8  O   UNL     1     -23.180  -4.456  -7.069  1.00  0.00    -0.259 OA
BRANCH   7   9
HETATM    9  O   UNL     1     -21.002  -3.747  -7.184  1.00  0.00    -0.318 OA
BRANCH   9  10
HETATM   10  C   UNL     1     -20.498  -4.547  -6.114  1.00  0.00     0.179 C 
BRANCH  10  11
HETATM   11  C   UNL     1     -20.008  -5.896  -6.612  1.00  0.00     0.026 C 
BRANCH  11  12
HETATM   12  C   UNL     1     -20.444  -6.992  -5.640  1.00  0.00    -0.002 C 
HETATM   13  C   UNL     1     -21.585  -6.543  -4.748  1.00  0.00     0.005 C 
ENDBRANCH  11  12
ENDBRANCH  10  11
ENDBRANCH   9  10
ENDBRANCH   7   9
ENDBRANCH   1   7
BRANCH   4  14
HETATM   14  O   UNL     1     -21.875  -3.452 -13.275  1.00  0.00    -0.361 OA
HETATM   15  H   UNL     1     -21.566  -4.261 -13.714  1.00  0.00     0.217 HD
ENDBRANCH   4  14
TORSDOF 6
ENDMDL
MODEL 2
REMARK VINA RESULT:      -6.4      1.827      3.024
REMARK  6 active torsions:
REMARK  status: ('A' for Active; 'I' for Inactive)
REMARK    1  A    between atoms: C_2  and  C_3 
REMARK    2  A    between atoms: C_3  and  C_4 
REMARK    3  A    between atoms: C_4  and  O_5 
REMARK    4  A    between atoms: O_5  and  C_6 
REMARK    5  A    between atoms: C_6  and  C_8 
REMARK    6  A    between atoms: C_11  and  O_14 
ROOT
HETATM    1  C   UNL     1     -21.991  -4.139 -10.226  1.00  0.00     0.039 A 
HETATM    2  C   UNL     1     -22.639  -4.442  -9.018  1.00  0.00     0.020 A 
HETATM    3  C   UNL     1     -23.991  -4.133  -8.850  1.00  0.00     0.037 A 
HETATM    4  C   UNL     1     -24.689  -3.515  -9.886  1.00  0.00     0.065 A 
HETATM    5  C   UNL     1     -24.067  -3.224 -11.093  1.00  0.00     0.037 A 
HETATM    6  C   UNL     1     -22.719  -3.538 -11.267  1.00  0.00     0.020 A 
ENDROOT
BRANCH   1   7
HETATM    7  C   UNL     1     -20.517  -4.328 -10.314  1.00  0.00     0.293 C 
HETATM    8  O   UNL     1     -19.850  -4.082 -11.302  1.00  0.00    -0.259 OA
BRANCH   7   9
HETATM    9  O   UNL     1     -20.086  -4.967  -9.199  1.00  0.00    -0.318 OA
BRANCH   9  10
HETATM   10  C   UNL     1     -19.484  -4.105  -8.233  1.00  0.00     0.179 C 
BRANCH  10  11
HETATM   11  C   UNL     1     -19.262  -4.822  -6.912  1.00  0.00     0.026 C 
BRANCH  11  12
HETATM   12  C   UNL     1     -20.433  -4.541  -5.971  1.00  0.00    -0.002 C 
HETATM   13  C   UNL     1     -21.333  -5.750  -5.805  1.00  0.00     0.005 C 
ENDBRANCH  11  12
ENDBRANCH  10  11
ENDBRANCH   9  10
ENDBRANCH   7   9
ENDBRANCH   1   7
BRANCH   4  14
HETATM   14  O   UNL     1     -25.998  -3.162  -9.754  1.00  0.00    -0.361 OA
HETATM   15  H   UNL     1     -26.047  -2.215  -9.541  1.00  0.00     0.217 HD
ENDBRANCH   4  14
TORSDOF 6
ENDMDL
MODEL 3
REMARK VINA RESULT:      -6.3      1.436      2.220
REMARK  6 active torsions:
REMARK  status: ('A' for Active; 'I' for Inactive)
REMARK    1  A    between atoms: C_2  and  C_3 
REMARK    2  A    between atoms: C_3  and  C_4 
REMARK    3  A    between atoms: C_4  and  O_5 
REMARK    4  A    between atoms: O_5  and  C_6 
REMARK    5  A    between atoms: C_6  and  C_8 
REMARK    6  A    between atoms: C_11  and  O_14 
ROOT
HETATM    1  C   UNL     1     -22.016  -3.821 -10.155  1.00  0.00     0.039 A 
HETATM    2  C   UNL     1     -21.594  -3.330 -11.401  1.00  0.00     0.020 A 
HETATM    3  C   UNL     1     -22.531  -2.872 -12.330  1.00  0.00     0.037 A 
HETATM    4  C   UNL     1     -23.888  -2.911 -12.013  1.00  0.00     0.065 A 
HETATM    5  C   UNL     1     -24.321  -3.378 -10.779  1.00  0.00     0.037 A 
HETATM    6  C   UNL     1     -23.387  -3.829  -9.846  1.00  0.00     0.020 A 
ENDROOT
BRANCH   1   7
HETATM    7  C   UNL     1     -21.011  -4.452  -9.258  1.00  0.00     0.293 C 
HETATM    8  O   UNL     1     -19.905  -4.819  -9.614  1.00  0.00    -0.259 OA
BRANCH   7   9
HETATM    9  O   UNL     1     -21.584  -4.702  -8.056  1.00  0.00    -0.318 OA
BRANCH   9  10
HETATM   10  C   UNL     1     -21.037  -3.936  -6.982  1.00  0.00     0.179 C 
BRANCH  10  11
HETATM   11  C   UNL     1     -20.264  -4.813  -6.012  1.00  0.00     0.026 C 
BRANCH  11  12
HETATM   12  C   UNL     1     -20.855  -6.223  -6.011  1.00  0.00    -0.002 C 
HETATM   13  C   UNL     1     -21.888  -6.407  -4.916  1.00  0.00     0.005 C 
ENDBRANCH  11  12
ENDBRANCH  10  11
ENDBRANCH   9  10
ENDBRANCH   7   9
ENDBRANCH   1   7
BRANCH   4  14
HETATM   14  O   UNL     1     -24.840  -2.510 -12.901  1.00  0.00    -0.361 OA
HETATM   15  H   UNL     1     -25.341  -1.774 -12.513  1.00  0.00     0.217 HD
ENDBRANCH   4  14
TORSDOF 6
ENDMDL
MODEL 4
REMARK VINA RESULT:      -6.2      2.227      6.125
REMARK  6 active torsions:
REMARK  status: ('A' for Active; 'I' for Inactive)
REMARK    1  A    between atoms: C_2  and  C_3 
REMARK    2  A    between atoms: C_3  and  C_4 
REMARK    3  A    between atoms: C_4  and  O_5 
REMARK    4  A    between atoms: O_5  and  C_6 
REMARK    5  A    between atoms: C_6  and  C_8 
REMARK    6  A    between atoms: C_11  and  O_14 
ROOT
HETATM    1  C   UNL     1     -22.956  -4.042  -9.598  1.00  0.00     0.039 A 
HETATM    2  C   UNL     1     -21.743  -4.214 -10.285  1.00  0.00     0.020 A 
HETATM    3  C   UNL     1     -20.548  -4.360  -9.577  1.00  0.00     0.037 A 
HETATM    4  C   UNL     1     -20.567  -4.326  -8.183  1.00  0.00     0.065 A 
HETATM    5  C   UNL     1     -21.759  -4.174  -7.488  1.00  0.00     0.037 A 
HETATM    6  C   UNL     1     -22.956  -4.035  -8.193  1.00  0.00     0.020 A 
ENDROOT
BRANCH   1   7
HETATM    7  C   UNL     1     -24.182  -3.725 -10.379  1.00  0.00     0.293 C 
HETATM    8  O   UNL     1     -25.207  -3.276  -9.898  1.00  0.00    -0.259 OA
BRANCH   7   9
HETATM    9  O   UNL     1     -24.027  -4.173 -11.648  1.00  0.00    -0.318 OA
BRANCH   9  10
HETATM   10  C   UNL     1     -24.396  -3.222 -12.648  1.00  0.00     0.179 C 
BRANCH  10  11
HETATM   11  C   UNL     1     -23.202  -2.400 -13.101  1.00  0.00     0.026 C 
BRANCH  11  12
HETATM   12  C   UNL     1     -23.167  -2.342 -14.628  1.00  0.00    -0.002 C 
HETATM   13  C   UNL     1     -23.671  -1.015 -15.160  1.00  0.00     0.005 C 
ENDBRANCH  11  12
ENDBRANCH  10  11
ENDBRANCH   9  10
ENDBRANCH   7   9
ENDBRANCH   1   7
BRANCH   4  14
HETATM   14  O   UNL     1     -19.423  -4.427  -7.452  1.00  0.00    -0.361 OA
HETATM   15  H   UNL     1     -19.011  -3.549  -7.393  1.00  0.00     0.217 HD
ENDBRANCH   4  14
TORSDOF 6
ENDMDL
MODEL 5
REMARK VINA RESULT:      -6.1      1.906      2.899
REMARK  6 active torsions:
REMARK  status: ('A' for Active; 'I' for Inactive)
REMARK    1  A    between atoms: C_2  and  C_3 
REMARK    2  A    between atoms: C_3  and  C_4 
REMARK    3  A    between atoms: C_4  and  O_5 
REMARK    4  A    between atoms: O_5  and  C_6 
REMARK    5  A    between atoms: C_6  and  C_8 
REMARK    6  A    between atoms: C_11  and  O_14 
ROOT
HETATM    1  C   UNL     1     -23.682  -3.488 -11.318  1.00  0.00     0.039 A 
HETATM    2  C   UNL     1     -24.591  -2.997 -12.269  1.00  0.00     0.020 A 
HETATM    3  C   UNL     1     -24.165  -2.720 -13.571  1.00  0.00     0.037 A 
HETATM    4  C   UNL     1     -22.831  -2.929 -13.916  1.00  0.00     0.065 A 
HETATM    5  C   UNL     1     -21.923  -3.429 -12.992  1.00  0.00     0.037 A 
HETATM    6  C   UNL     1     -22.347  -3.713 -11.693  1.00  0.00     0.020 A 
ENDROOT
BRANCH   1   7
HETATM    7  C   UNL     1     -24.126  -3.615  -9.904  1.00  0.00     0.293 C 
HETATM    8  O   UNL     1     -24.976  -2.914  -9.385  1.00  0.00    -0.259 OA
BRANCH   7   9
HETATM    9  O   UNL     1     -23.322  -4.499  -9.264  1.00  0.00    -0.318 OA
BRANCH   9  10
HETATM   10  C   UNL     1     -23.116  -4.200  -7.883  1.00  0.00     0.179 C 
BRANCH  10  11
HETATM   11  C   UNL     1     -21.724  -3.644  -7.637  1.00  0.00     0.026 C 
BRANCH  11  12
HETATM   12  C   UNL     1     -20.701  -4.444  -8.442  1.00  0.00    -0.002 C 
HETATM   13  C   UNL     1     -20.126  -5.600  -7.647  1.00  0.00     0.005 C 
ENDBRANCH  11  12
ENDBRANCH  10  11
ENDBRANCH   9  10
ENDBRANCH   7   9
ENDBRANCH   1   7
BRANCH   4  14
HETATM   14  O   UNL     1     -22.362  -2.638 -15.161  1.00  0.00    -0.361 OA
HETATM   15  H   UNL     1     -21.985  -3.444 -15.550  1.00  0.00     0.217 HD
ENDBRANCH   4  14
TORSDOF 6
ENDMDL
MODEL 6
REMARK VINA RESULT:      -6.0      1.590      2.156
REMARK  6 active torsions:
REMARK  status: ('A' for Active; 'I' for Inactive)
REMARK    1  A    between atoms: C_2  and  C_3 
REMARK    2  A    between atoms: C_3  and  C_4 
REMARK    3  A    between atoms: C_4  and  O_5 
REMARK    4  A    between atoms: O_5  and  C_6 
REMARK    5  A    between atoms: C_6  and  C_8 
REMARK    6  A    between atoms: C_11  and  O_14 
ROOT
HETATM    1  C   UNL     1     -21.638  -4.438  -9.127  1.00  0.00     0.039 A 
HETATM    2  C   UNL     1     -22.865  -4.187  -8.491  1.00  0.00     0.020 A 
HETATM    3  C   UNL     1     -23.972  -3.773  -9.238  1.00  0.00     0.037 A 
HETATM    4  C   UNL     1     -23.847  -3.605 -10.616  1.00  0.00     0.065 A 
HETATM    5  C   UNL     1     -22.646  -3.865 -11.262  1.00  0.00     0.037 A 
HETATM    6  C   UNL     1     -21.541  -4.285 -10.521  1.00  0.00     0.020 A 
ENDROOT
BRANCH   1   7
HETATM    7  C   UNL     1     -20.442  -4.715  -8.287  1.00  0.00     0.293 C 
HETATM    8  O   UNL     1     -19.506  -3.948  -8.150  1.00  0.00    -0.259 OA
BRANCH   7   9
HETATM    9  O   UNL     1     -20.490  -5.999  -7.857  1.00  0.00    -0.318 OA
BRANCH   9  10
HETATM   10  C   UNL     1     -20.004  -6.183  -6.526  1.00  0.00     0.179 C 
BRANCH  10  11
HETATM   11  C   UNL     1     -20.921  -7.087  -5.721  1.00  0.00     0.026 C 
BRANCH  11  12
HETATM   12  C   UNL     1     -21.871  -6.236  -4.878  1.00  0.00    -0.002 C 
HETATM   13  C   UNL     1     -21.583  -6.359  -3.394  1.00  0.00     0.005 C 
ENDBRANCH  11  12
ENDBRANCH  10  11
ENDBRANCH   9  10
ENDBRANCH   7   9
ENDBRANCH   1   7
BRANCH   4  14
HETATM   14  O   UNL     1     -24.887  -3.168 -11.378  1.00  0.00    -0.361 OA
HETATM   15  H   UNL     1     -24.537  -2.637 -12.112  1.00  0.00     0.217 HD
ENDBRANCH   4  14
TORSDOF 6
ENDMDL
MODEL 7
REMARK VINA RESULT:      -6.0      1.813      5.404
REMARK  6 active torsions:
REMARK  status: ('A' for Active; 'I' for Inactive)
REMARK    1  A    between atoms: C_2  and  C_3 
REMARK    2  A    between atoms: C_3  and  C_4 
REMARK    3  A    between atoms: C_4  and  O_5 
REMARK    4  A    between atoms: O_5  and  C_6 
REMARK    5  A    between atoms: C_6  and  C_8 
REMARK    6  A    between atoms: C_11  and  O_14 
ROOT
HETATM    1  C   UNL     1     -20.570  -4.470  -8.699  1.00  0.00     0.039 A 
HETATM    2  C   UNL     1     -21.821  -4.776  -8.138  1.00  0.00     0.020 A 
HETATM    3  C   UNL     1     -21.929  -5.062  -6.774  1.00  0.00     0.037 A 
HETATM    4  C   UNL     1     -20.785  -5.048  -5.978  1.00  0.00     0.065 A 
HETATM    5  C   UNL     1     -19.544  -4.731  -6.513  1.00  0.00     0.037 A 
HETATM    6  C   UNL     1     -19.434  -4.438  -7.873  1.00  0.00     0.020 A 
ENDROOT
BRANCH   1   7
HETATM    7  C   UNL     1     -20.464  -4.335 -10.177  1.00  0.00     0.293 C 
HETATM    8  O   UNL     1     -19.618  -4.885 -10.859  1.00  0.00    -0.259 OA
BRANCH   7   9
HETATM    9  O   UNL     1     -21.333  -3.385 -10.599  1.00  0.00    -0.318 OA
BRANCH   9  10
HETATM   10  C   UNL     1     -21.985  -3.700 -11.830  1.00  0.00     0.179 C 
BRANCH  10  11
HETATM   11  C   UNL     1     -23.325  -4.374 -11.591  1.00  0.00     0.026 C 
BRANCH  11  12
HETATM   12  C   UNL     1     -24.374  -3.321 -11.233  1.00  0.00    -0.002 C 
HETATM   13  C   UNL     1     -24.764  -3.381  -9.768  1.00  0.00     0.005 C 
ENDBRANCH  11  12
ENDBRANCH  10  11
ENDBRANCH   9  10
ENDBRANCH   7   9
ENDBRANCH   1   7
BRANCH   4  14
HETATM   14  O   UNL     1     -20.836  -5.356  -4.652  1.00  0.00    -0.361 OA
HETATM   15  H   UNL     1     -20.711  -4.542  -4.136  1.00  0.00     0.217 HD
ENDBRANCH   4  14
TORSDOF 6
ENDMDL
MODEL 8
REMARK VINA RESULT:      -5.9      1.527      2.286
REMARK  6 active torsions:
REMARK  status: ('A' for Active; 'I' for Inactive)
REMARK    1  A    between atoms: C_2  and  C_3 
REMARK    2  A    between atoms: C_3  and  C_4 
REMARK    3  A    between atoms: C_4  and  O_5 
REMARK    4  A    between atoms: O_5  and  C_6 
REMARK    5  A    between atoms: C_6  and  C_8 
REMARK    6  A    between atoms: C_11  and  O_14 
ROOT
HETATM    1  C   UNL     1     -21.013  -4.877  -8.337  1.00  0.00     0.039 A 
HETATM    2  C   UNL     1     -22.334  -4.399  -8.312  1.00  0.00     0.020 A 
HETATM    3  C   UNL     1     -22.856  -3.721  -9.417  1.00  0.00     0.037 A 
HETATM    4  C   UNL     1     -22.055  -3.517 -10.539  1.00  0.00     0.065 A 
HETATM    5  C   UNL     1     -20.753  -3.998 -10.586  1.00  0.00     0.037 A 
HETATM    6  C   UNL     1     -20.231  -4.682  -9.488  1.00  0.00     0.020 A 
ENDROOT
BRANCH   1   7
HETATM    7  C   UNL     1     -20.436  -5.446  -7.089  1.00  0.00     0.293 C 
HETATM    8  O   UNL     1     -19.536  -4.931  -6.451  1.00  0.00    -0.259 OA
BRANCH   7   9
HETATM    9  O   UNL     1     -20.947  -6.685  -6.888  1.00  0.00    -0.318 OA
BRANCH   9  10
HETATM   10  C   UNL     1     -20.773  -7.176  -5.559  1.00  0.00     0.179 C 
BRANCH  10  11
HETATM   11  C   UNL     1     -21.889  -6.703  -4.642  1.00  0.00     0.026 C 
BRANCH  11  12
HETATM   12  C   UNL     1     -21.289  -6.056  -3.394  1.00  0.00    -0.002 C 
HETATM   13  C   UNL     1     -22.143  -6.292  -2.163  1.00  0.00     0.005 C 
ENDBRANCH  11  12
ENDBRANCH  10  11
ENDBRANCH   9  10
ENDBRANCH   7   9
ENDBRANCH   1   7
BRANCH   4  14
HETATM   14  O   UNL     1     -22.509  -2.829 -11.623  1.00  0.00    -0.361 OA
HETATM   15  H   UNL     1     -23.210  -2.221 -11.338  1.00  0.00     0.217 HD
ENDBRANCH   4  14
TORSDOF 6
ENDMDL
MODEL 9
REMARK VINA RESULT:      -5.8      1.063      2.091
REMARK  6 active torsions:
REMARK  status: ('A' for Active; 'I' for Inactive)
REMARK    1  A    between atoms: C_2  and  C_3 
REMARK    2  A    between atoms: C_3  and  C_4 
REMARK    3  A    between atoms: C_4  and  O_5 
REMARK    4  A    between atoms: O_5  and  C_6 
REMARK    5  A    between atoms: C_6  and  C_8 
REMARK    6  A    between atoms: C_11  and  O_14 
ROOT
HETATM    1  C   UNL     1     -22.655  -4.054  -9.561  1.00  0.00     0.039 A 
HETATM    2  C   UNL     1     -21.394  -4.261 -10.143  1.00  0.00     0.020 A 
HETATM    3  C   UNL     1     -21.190  -3.977 -11.496  1.00  0.00     0.037 A 
HETATM    4  C   UNL     1     -22.248  -3.493 -12.263  1.00  0.00     0.065 A 
HETATM    5  C   UNL     1     -23.496  -3.268 -11.699  1.00  0.00     0.037 A 
HETATM    6  C   UNL     1     -23.702  -3.544 -10.347  1.00  0.00     0.020 A 
ENDROOT
BRANCH   1   7
HETATM    7  C   UNL     1     -22.884  -4.520  -8.166  1.00  0.00     0.293 C 
HETATM    8  O   UNL     1     -23.833  -4.191  -7.478  1.00  0.00    -0.259 OA
BRANCH   7   9
HETATM    9  O   UNL     1     -21.798  -5.214  -7.747  1.00  0.00    -0.318 OA
BRANCH   9  10
HETATM   10  C   UNL     1     -21.685  -5.311  -6.326  1.00  0.00     0.179 C 
BRANCH  10  11
HETATM   11  C   UNL     1     -20.243  -5.162  -5.873  1.00  0.00     0.026 C 
BRANCH  11  12
HETATM   12  C   UNL     1     -19.304  -5.414  -7.052  1.00  0.00    -0.002 C 
HETATM   13  C   UNL     1     -18.599  -4.148  -7.500  1.00  0.00     0.005 C 
ENDBRANCH  11  12
ENDBRANCH  10  11
ENDBRANCH   9  10
ENDBRANCH   7   9
ENDBRANCH   1   7
BRANCH   4  14
HETATM   14  O   UNL     1     -22.105  -3.238 -13.594  1.00  0.00    -0.361 OA
HETATM   15  H   UNL     1     -21.158  -3.220 -13.810  1.00  0.00     0.217 HD
ENDBRANCH   4  14
TORSDOF 6
ENDMDL
