MODEL 1
REMARK VINA RESULT:      -6.7      0.000      0.000
REMARK  16 active torsions:
REMARK  status: ('A' for Active; 'I' for Inactive)
REMARK    1  A    between atoms: C_2  and  C_3 
REMARK    2  A    between atoms: C_3  and  C_4 
REMARK    3  A    between atoms: C_4  and  C_5 
REMARK    4  A    between atoms: C_5  and  C_6 
REMARK    5  A    between atoms: C_5  and  C_8 
REMARK    6  A    between atoms: C_8  and  O_10 
REMARK    7  A    between atoms: O_10  and  C_11 
REMARK    8  A    between atoms: C_11  and  C_12 
REMARK    9  A    between atoms: C_12  and  C_15 
REMARK   10  A    between atoms: C_15  and  O_16 
REMARK   11  A    between atoms: O_16  and  C_17 
REMARK   12  A    between atoms: C_17  and  C_19 
REMARK   13  A    between atoms: C_19  and  C_20 
REMARK   14  A    between atoms: C_19  and  C_22 
REMARK   15  A    between atoms: C_22  and  C_23 
REMARK   16  A    between atoms: C_23  and  C_24 
ROOT
HETATM    1  C   UNL     1     -21.374  -6.777  -5.071  1.00  0.00    -0.004 C 
HETATM    2  C   UNL     1     -21.324  -8.286  -5.368  1.00  0.00     0.019 C 
HETATM    3  C   UNL     1     -22.751  -6.235  -5.505  1.00  0.00     0.019 C 
ENDROOT
BRANCH   1   4
HETATM    4  C   UNL     1     -21.164  -6.523  -3.559  1.00  0.00     0.189 C 
BRANCH   4   5
HETATM    5  O   UNL     1     -21.661  -7.629  -2.775  1.00  0.00    -0.320 OA
BRANCH   5   6
HETATM    6  C   UNL     1     -21.836  -7.396  -1.445  1.00  0.00     0.263 C 
HETATM    7  O   UNL     1     -22.439  -6.438  -0.975  1.00  0.00    -0.265 OA
BRANCH   6   8
HETATM    8  C   UNL     1     -21.185  -8.487  -0.607  1.00  0.00     0.085 C 
BRANCH   8   9
HETATM    9  C   UNL     1     -22.198  -8.983   0.449  1.00  0.00     0.014 C 
BRANCH   9  10
HETATM   10  C   UNL     1     -23.443  -9.647  -0.145  1.00  0.00     0.000 C 
BRANCH  10  11
HETATM   11  C   UNL     1     -23.463 -11.156   0.114  1.00  0.00    -0.005 C 
HETATM   12  C   UNL     1     -23.974 -11.908  -1.106  1.00  0.00     0.005 C 
ENDBRANCH  10  11
ENDBRANCH   9  10
ENDBRANCH   8   9
BRANCH   8  13
HETATM   13  C   UNL     1     -20.599  -9.585  -1.511  1.00  0.00     0.010 C 
HETATM   14  C   UNL     1     -19.980 -10.768  -0.773  1.00  0.00     0.006 C 
ENDBRANCH   8  13
ENDBRANCH   6   8
ENDBRANCH   5   6
ENDBRANCH   4   5
ENDBRANCH   1   4
BRANCH   1  15
HETATM   15  C   UNL     1     -20.275  -6.045  -5.880  1.00  0.00     0.189 C 
BRANCH  15  16
HETATM   16  O   UNL     1     -20.516  -6.131  -7.301  1.00  0.00    -0.320 OA
BRANCH  16  17
HETATM   17  C   UNL     1     -20.078  -5.083  -8.059  1.00  0.00     0.263 C 
HETATM   18  O   UNL     1     -19.041  -4.466  -7.866  1.00  0.00    -0.265 OA
BRANCH  17  19
HETATM   19  C   UNL     1     -21.068  -4.767  -9.173  1.00  0.00     0.085 C 
BRANCH  19  20
HETATM   20  C   UNL     1     -22.046  -3.671  -8.715  1.00  0.00     0.010 C 
HETATM   21  C   UNL     1     -23.500  -4.118  -8.595  1.00  0.00     0.006 C 
ENDBRANCH  19  20
BRANCH  19  22
HETATM   22  C   UNL     1     -20.339  -4.383 -10.476  1.00  0.00     0.014 C 
BRANCH  22  23
HETATM   23  C   UNL     1     -20.996  -3.209 -11.211  1.00  0.00     0.000 C 
BRANCH  23  24
HETATM   24  C   UNL     1     -22.074  -3.697 -12.180  1.00  0.00    -0.005 C 
HETATM   25  C   UNL     1     -23.264  -2.752 -12.203  1.00  0.00     0.005 C 
ENDBRANCH  23  24
ENDBRANCH  22  23
ENDBRANCH  19  22
ENDBRANCH  17  19
ENDBRANCH  16  17
ENDBRANCH  15  16
ENDBRANCH   1  15
TORSDOF 16
ENDMDL
MODEL 2
REMARK VINA RESULT:      -6.6      1.068      9.710
REMARK  16 active torsions:
REMARK  status: ('A' for Active; 'I' for Inactive)
REMARK    1  A    between atoms: C_2  and  C_3 
REMARK    2  A    between atoms: C_3  and  C_4 
REMARK    3  A    between atoms: C_4  and  C_5 
REMARK    4  A    between atoms: C_5  and  C_6 
REMARK    5  A    between atoms: C_5  and  C_8 
REMARK    6  A    between atoms: C_8  and  O_10 
REMARK    7  A    between atoms: O_10  and  C_11 
REMARK    8  A    between atoms: C_11  and  C_12 
REMARK    9  A    between atoms: C_12  and  C_15 
REMARK   10  A    between atoms: C_15  and  O_16 
REMARK   11  A    between atoms: O_16  and  C_17 
REMARK   12  A    between atoms: C_17  and  C_19 
REMARK   13  A    between atoms: C_19  and  C_20 
REMARK   14  A    between atoms: C_19  and  C_22 
REMARK   15  A    between atoms: C_22  and  C_23 
REMARK   16  A    between atoms: C_23  and  C_24 
ROOT
HETATM    1  C   UNL     1     -21.350  -6.709  -4.141  1.00  0.00    -0.004 C 
HETATM    2  C   UNL     1     -22.811  -6.798  -4.617  1.00  0.00     0.019 C 
HETATM    3  C   UNL     1     -20.673  -8.076  -4.373  1.00  0.00     0.019 C 
ENDROOT
BRANCH   1   4
HETATM    4  C   UNL     1     -20.596  -5.612  -4.930  1.00  0.00     0.189 C 
BRANCH   4   5
HETATM    5  O   UNL     1     -21.394  -5.129  -6.033  1.00  0.00    -0.320 OA
BRANCH   5   6
HETATM    6  C   UNL     1     -20.887  -5.335  -7.280  1.00  0.00     0.263 C 
HETATM    7  O   UNL     1     -20.106  -6.231  -7.580  1.00  0.00    -0.265 OA
BRANCH   6   8
HETATM    8  C   UNL     1     -21.421  -4.305  -8.266  1.00  0.00     0.085 C 
BRANCH   8   9
HETATM    9  C   UNL     1     -20.293  -3.918  -9.249  1.00  0.00     0.014 C 
BRANCH   9  10
HETATM   10  C   UNL     1     -20.546  -4.357 -10.693  1.00  0.00     0.000 C 
BRANCH  10  11
HETATM   11  C   UNL     1     -20.833  -3.166 -11.610  1.00  0.00    -0.005 C 
HETATM   12  C   UNL     1     -22.152  -3.353 -12.344  1.00  0.00     0.005 C 
ENDBRANCH  10  11
ENDBRANCH   9  10
ENDBRANCH   8   9
BRANCH   8  13
HETATM   13  C   UNL     1     -22.714  -4.811  -8.927  1.00  0.00     0.010 C 
HETATM   14  C   UNL     1     -23.799  -3.755  -9.112  1.00  0.00     0.006 C 
ENDBRANCH   8  13
ENDBRANCH   6   8
ENDBRANCH   5   6
ENDBRANCH   4   5
ENDBRANCH   1   4
BRANCH   1  15
HETATM   15  C   UNL     1     -21.308  -6.385  -2.628  1.00  0.00     0.189 C 
BRANCH  15  16
HETATM   16  O   UNL     1     -21.213  -7.584  -1.829  1.00  0.00    -0.320 OA
BRANCH  16  17
HETATM   17  C   UNL     1     -22.193  -7.777  -0.899  1.00  0.00     0.263 C 
HETATM   18  O   UNL     1     -22.962  -6.913  -0.503  1.00  0.00    -0.265 OA
BRANCH  17  19
HETATM   19  C   UNL     1     -22.194  -9.216  -0.399  1.00  0.00     0.085 C 
BRANCH  19  20
HETATM   20  C   UNL     1     -21.129  -9.394   0.697  1.00  0.00     0.010 C 
HETATM   21  C   UNL     1     -20.469 -10.769   0.735  1.00  0.00     0.006 C 
ENDBRANCH  19  20
BRANCH  19  22
HETATM   22  C   UNL     1     -23.595  -9.641   0.081  1.00  0.00     0.014 C 
BRANCH  22  23
HETATM   23  C   UNL     1     -23.996 -11.043  -0.393  1.00  0.00     0.000 C 
BRANCH  23  24
HETATM   24  C   UNL     1     -23.354 -11.376  -1.741  1.00  0.00    -0.005 C 
HETATM   25  C   UNL     1     -22.891 -12.823  -1.790  1.00  0.00     0.005 C 
ENDBRANCH  23  24
ENDBRANCH  22  23
ENDBRANCH  19  22
ENDBRANCH  17  19
ENDBRANCH  16  17
ENDBRANCH  15  16
ENDBRANCH   1  15
TORSDOF 16
ENDMDL
MODEL 3
REMARK VINA RESULT:      -6.5      2.141      3.629
REMARK  16 active torsions:
REMARK  status: ('A' for Active; 'I' for Inactive)
REMARK    1  A    between atoms: C_2  and  C_3 
REMARK    2  A    between atoms: C_3  and  C_4 
REMARK    3  A    between atoms: C_4  and  C_5 
REMARK    4  A    between atoms: C_5  and  C_6 
REMARK    5  A    between atoms: C_5  and  C_8 
REMARK    6  A    between atoms: C_8  and  O_10 
REMARK    7  A    between atoms: O_10  and  C_11 
REMARK    8  A    between atoms: C_11  and  C_12 
REMARK    9  A    between atoms: C_12  and  C_15 
REMARK   10  A    between atoms: C_15  and  O_16 
REMARK   11  A    between atoms: O_16  and  C_17 
REMARK   12  A    between atoms: C_17  and  C_19 
REMARK   13  A    between atoms: C_19  and  C_20 
REMARK   14  A    between atoms: C_19  and  C_22 
REMARK   15  A    between atoms: C_22  and  C_23 
REMARK   16  A    between atoms: C_23  and  C_24 
ROOT
HETATM    1  C   UNL     1     -20.476  -4.654  -7.741  1.00  0.00    -0.004 C 
HETATM    2  C   UNL     1     -21.341  -3.484  -7.238  1.00  0.00     0.019 C 
HETATM    3  C   UNL     1     -19.041  -4.468  -7.209  1.00  0.00     0.019 C 
ENDROOT
BRANCH   1   4
HETATM    4  C   UNL     1     -21.051  -5.998  -7.236  1.00  0.00     0.189 C 
BRANCH   4   5
HETATM    5  O   UNL     1     -20.562  -6.305  -5.912  1.00  0.00    -0.320 OA
BRANCH   5   6
HETATM    6  C   UNL     1     -21.503  -6.442  -4.938  1.00  0.00     0.263 C 
HETATM    7  O   UNL     1     -22.670  -6.081  -5.035  1.00  0.00    -0.265 OA
BRANCH   6   8
HETATM    8  C   UNL     1     -20.919  -7.112  -3.701  1.00  0.00     0.085 C 
BRANCH   8   9
HETATM    9  C   UNL     1     -21.793  -6.757  -2.477  1.00  0.00     0.014 C 
BRANCH   9  10
HETATM   10  C   UNL     1     -21.883  -7.872  -1.432  1.00  0.00     0.000 C 
BRANCH  10  11
HETATM   11  C   UNL     1     -22.420  -7.358  -0.094  1.00  0.00    -0.005 C 
HETATM   12  C   UNL     1     -21.807  -8.127   1.067  1.00  0.00     0.005 C 
ENDBRANCH  10  11
ENDBRANCH   9  10
ENDBRANCH   8   9
BRANCH   8  13
HETATM   13  C   UNL     1     -20.722  -8.618  -3.945  1.00  0.00     0.010 C 
HETATM   14  C   UNL     1     -19.304  -9.129  -3.712  1.00  0.00     0.006 C 
ENDBRANCH   8  13
ENDBRANCH   6   8
ENDBRANCH   5   6
ENDBRANCH   4   5
ENDBRANCH   1   4
BRANCH   1  15
HETATM   15  C   UNL     1     -20.438  -4.652  -9.289  1.00  0.00     0.189 C 
BRANCH  15  16
HETATM   16  O   UNL     1     -21.584  -3.976  -9.848  1.00  0.00    -0.320 OA
BRANCH  16  17
HETATM   17  C   UNL     1     -21.978  -4.371 -11.094  1.00  0.00     0.263 C 
HETATM   18  O   UNL     1     -21.227  -4.541 -12.043  1.00  0.00    -0.265 OA
BRANCH  17  19
HETATM   19  C   UNL     1     -23.489  -4.556 -11.154  1.00  0.00     0.085 C 
BRANCH  19  20
HETATM   20  C   UNL     1     -24.083  -4.503  -9.736  1.00  0.00     0.010 C 
HETATM   21  C   UNL     1     -24.926  -3.267  -9.439  1.00  0.00     0.006 C 
ENDBRANCH  19  20
BRANCH  19  22
HETATM   22  C   UNL     1     -24.142  -3.523 -12.093  1.00  0.00     0.014 C 
BRANCH  22  23
HETATM   23  C   UNL     1     -23.134  -2.540 -12.702  1.00  0.00     0.000 C 
BRANCH  23  24
HETATM   24  C   UNL     1     -23.597  -2.052 -14.075  1.00  0.00    -0.005 C 
HETATM   25  C   UNL     1     -22.686  -2.563 -15.179  1.00  0.00     0.005 C 
ENDBRANCH  23  24
ENDBRANCH  22  23
ENDBRANCH  19  22
ENDBRANCH  17  19
ENDBRANCH  16  17
ENDBRANCH  15  16
ENDBRANCH   1  15
TORSDOF 16
ENDMDL
MODEL 4
REMARK VINA RESULT:      -6.5      1.602      2.849
REMARK  16 active torsions:
REMARK  status: ('A' for Active; 'I' for Inactive)
REMARK    1  A    between atoms: C_2  and  C_3 
REMARK    2  A    between atoms: C_3  and  C_4 
REMARK    3  A    between atoms: C_4  and  C_5 
REMARK    4  A    between atoms: C_5  and  C_6 
REMARK    5  A    between atoms: C_5  and  C_8 
REMARK    6  A    between atoms: C_8  and  O_10 
REMARK    7  A    between atoms: O_10  and  C_11 
REMARK    8  A    between atoms: C_11  and  C_12 
REMARK    9  A    between atoms: C_12  and  C_15 
REMARK   10  A    between atoms: C_15  and  O_16 
REMARK   11  A    between atoms: O_16  and  C_17 
REMARK   12  A    between atoms: C_17  and  C_19 
REMARK   13  A    between atoms: C_19  and  C_20 
REMARK   14  A    between atoms: C_19  and  C_22 
REMARK   15  A    between atoms: C_22  and  C_23 
REMARK   16  A    between atoms: C_23  and  C_24 
ROOT
HETATM    1  C   UNL     1     -20.187  -9.093  -4.480  1.00  0.00    -0.004 C 
HETATM    2  C   UNL     1     -18.914  -9.134  -5.345  1.00  0.00     0.019 C 
HETATM    3  C   UNL     1     -20.550 -10.535  -4.071  1.00  0.00     0.019 C 
ENDROOT
BRANCH   1   4
HETATM    4  C   UNL     1     -19.946  -8.235  -3.215  1.00  0.00     0.189 C 
BRANCH   4   5
HETATM    5  O   UNL     1     -20.686  -8.755  -2.089  1.00  0.00    -0.320 OA
BRANCH   5   6
HETATM    6  C   UNL     1     -21.647  -7.942  -1.571  1.00  0.00     0.263 C 
HETATM    7  O   UNL     1     -21.870  -6.796  -1.942  1.00  0.00    -0.265 OA
BRANCH   6   8
HETATM    8  C   UNL     1     -22.421  -8.644  -0.464  1.00  0.00     0.085 C 
BRANCH   8   9
HETATM    9  C   UNL     1     -22.211 -10.170  -0.593  1.00  0.00     0.014 C 
BRANCH   9  10
HETATM   10  C   UNL     1     -23.245 -10.869  -1.478  1.00  0.00     0.000 C 
BRANCH  10  11
HETATM   11  C   UNL     1     -24.155 -11.798  -0.669  1.00  0.00    -0.005 C 
HETATM   12  C   UNL     1     -23.405 -12.396   0.512  1.00  0.00     0.005 C 
ENDBRANCH  10  11
ENDBRANCH   9  10
ENDBRANCH   8   9
BRANCH   8  13
HETATM   13  C   UNL     1     -22.058  -8.052   0.909  1.00  0.00     0.010 C 
HETATM   14  C   UNL     1     -20.897  -8.737   1.621  1.00  0.00     0.006 C 
ENDBRANCH   8  13
ENDBRANCH   6   8
ENDBRANCH   5   6
ENDBRANCH   4   5
ENDBRANCH   1   4
BRANCH   1  15
HETATM   15  C   UNL     1     -21.360  -8.499  -5.298  1.00  0.00     0.189 C 
BRANCH  15  16
HETATM   16  O   UNL     1     -20.980  -7.271  -5.954  1.00  0.00    -0.320 OA
BRANCH  16  17
HETATM   17  C   UNL     1     -21.788  -6.190  -5.744  1.00  0.00     0.263 C 
HETATM   18  O   UNL     1     -22.803  -6.199  -5.062  1.00  0.00    -0.265 OA
BRANCH  17  19
HETATM   19  C   UNL     1     -21.269  -4.968  -6.490  1.00  0.00     0.085 C 
BRANCH  19  20
HETATM   20  C   UNL     1     -19.776  -4.757  -6.181  1.00  0.00     0.010 C 
HETATM   21  C   UNL     1     -18.893  -4.531  -7.404  1.00  0.00     0.006 C 
ENDBRANCH  19  20
BRANCH  19  22
HETATM   22  C   UNL     1     -21.535  -5.083  -8.004  1.00  0.00     0.014 C 
BRANCH  22  23
HETATM   23  C   UNL     1     -22.469  -3.990  -8.536  1.00  0.00     0.000 C 
BRANCH  23  24
HETATM   24  C   UNL     1     -22.237  -3.741 -10.027  1.00  0.00    -0.005 C 
HETATM   25  C   UNL     1     -20.855  -4.206 -10.456  1.00  0.00     0.005 C 
ENDBRANCH  23  24
ENDBRANCH  22  23
ENDBRANCH  19  22
ENDBRANCH  17  19
ENDBRANCH  16  17
ENDBRANCH  15  16
ENDBRANCH   1  15
TORSDOF 16
ENDMDL
MODEL 5
REMARK VINA RESULT:      -6.4      1.054      2.085
REMARK  16 active torsions:
REMARK  status: ('A' for Active; 'I' for Inactive)
REMARK    1  A    between atoms: C_2  and  C_3 
REMARK    2  A    between atoms: C_3  and  C_4 
REMARK    3  A    between atoms: C_4  and  C_5 
REMARK    4  A    between atoms: C_5  and  C_6 
REMARK    5  A    between atoms: C_5  and  C_8 
REMARK    6  A    between atoms: C_8  and  O_10 
REMARK    7  A    between atoms: O_10  and  C_11 
REMARK    8  A    between atoms: C_11  and  C_12 
REMARK    9  A    between atoms: C_12  and  C_15 
REMARK   10  A    between atoms: C_15  and  O_16 
REMARK   11  A    between atoms: O_16  and  C_17 
REMARK   12  A    between atoms: C_17  and  C_19 
REMARK   13  A    between atoms: C_19  and  C_20 
REMARK   14  A    between atoms: C_19  and  C_22 
REMARK   15  A    between atoms: C_22  and  C_23 
REMARK   16  A    between atoms: C_23  and  C_24 
ROOT
HETATM    1  C   UNL     1     -21.234  -6.888  -4.358  1.00  0.00    -0.004 C 
HETATM    2  C   UNL     1     -22.660  -6.706  -4.909  1.00  0.00     0.019 C 
HETATM    3  C   UNL     1     -20.826  -5.600  -3.616  1.00  0.00     0.019 C 
ENDROOT
BRANCH   1   4
HETATM    4  C   UNL     1     -21.188  -8.090  -3.383  1.00  0.00     0.189 C 
BRANCH   4   5
HETATM    5  O   UNL     1     -20.966  -7.647  -2.026  1.00  0.00    -0.320 OA
BRANCH   5   6
HETATM    6  C   UNL     1     -21.997  -7.830  -1.156  1.00  0.00     0.263 C 
HETATM    7  O   UNL     1     -22.737  -6.943  -0.749  1.00  0.00    -0.265 OA
BRANCH   6   8
HETATM    8  C   UNL     1     -22.118  -9.293  -0.751  1.00  0.00     0.085 C 
BRANCH   8   9
HETATM    9  C   UNL     1     -20.839  -9.713   0.009  1.00  0.00     0.014 C 
BRANCH   9  10
HETATM   10  C   UNL     1     -20.095 -10.890  -0.625  1.00  0.00     0.000 C 
BRANCH  10  11
HETATM   11  C   UNL     1     -20.394 -12.208   0.093  1.00  0.00    -0.005 C 
HETATM   12  C   UNL     1     -19.210 -13.159  -0.005  1.00  0.00     0.005 C 
ENDBRANCH  10  11
ENDBRANCH   9  10
ENDBRANCH   8   9
BRANCH   8  13
HETATM   13  C   UNL     1     -23.434  -9.537   0.007  1.00  0.00     0.010 C 
HETATM   14  C   UNL     1     -24.020 -10.936  -0.151  1.00  0.00     0.006 C 
ENDBRANCH   8  13
ENDBRANCH   6   8
ENDBRANCH   5   6
ENDBRANCH   4   5
ENDBRANCH   1   4
BRANCH   1  15
HETATM   15  C   UNL     1     -20.245  -7.125  -5.524  1.00  0.00     0.189 C 
BRANCH  15  16
HETATM   16  O   UNL     1     -20.788  -6.671  -6.782  1.00  0.00    -0.320 OA
BRANCH  16  17
HETATM   17  C   UNL     1     -20.211  -5.564  -7.333  1.00  0.00     0.263 C 
HETATM   18  O   UNL     1     -19.131  -5.099  -6.999  1.00  0.00    -0.265 OA
BRANCH  17  19
HETATM   19  C   UNL     1     -21.102  -4.966  -8.414  1.00  0.00     0.085 C 
BRANCH  19  20
HETATM   20  C   UNL     1     -22.304  -4.252  -7.771  1.00  0.00     0.010 C 
HETATM   21  C   UNL     1     -23.516  -4.089  -8.683  1.00  0.00     0.006 C 
ENDBRANCH  19  20
BRANCH  19  22
HETATM   22  C   UNL     1     -20.303  -4.030  -9.343  1.00  0.00     0.014 C 
BRANCH  22  23
HETATM   23  C   UNL     1     -20.578  -4.279 -10.831  1.00  0.00     0.000 C 
BRANCH  23  24
HETATM   24  C   UNL     1     -21.200  -3.048 -11.492  1.00  0.00    -0.005 C 
HETATM   25  C   UNL     1     -22.385  -3.429 -12.364  1.00  0.00     0.005 C 
ENDBRANCH  23  24
ENDBRANCH  22  23
ENDBRANCH  19  22
ENDBRANCH  17  19
ENDBRANCH  16  17
ENDBRANCH  15  16
ENDBRANCH   1  15
TORSDOF 16
ENDMDL
MODEL 6
REMARK VINA RESULT:      -6.2      2.001      9.019
REMARK  16 active torsions:
REMARK  status: ('A' for Active; 'I' for Inactive)
REMARK    1  A    between atoms: C_2  and  C_3 
REMARK    2  A    between atoms: C_3  and  C_4 
REMARK    3  A    between atoms: C_4  and  C_5 
REMARK    4  A    between atoms: C_5  and  C_6 
REMARK    5  A    between atoms: C_5  and  C_8 
REMARK    6  A    between atoms: C_8  and  O_10 
REMARK    7  A    between atoms: O_10  and  C_11 
REMARK    8  A    between atoms: C_11  and  C_12 
REMARK    9  A    between atoms: C_12  and  C_15 
REMARK   10  A    between atoms: C_15  and  O_16 
REMARK   11  A    between atoms: O_16  and  C_17 
REMARK   12  A    between atoms: C_17  and  C_19 
REMARK   13  A    between atoms: C_19  and  C_20 
REMARK   14  A    between atoms: C_19  and  C_22 
REMARK   15  A    between atoms: C_22  and  C_23 
REMARK   16  A    between atoms: C_23  and  C_24 
ROOT
HETATM    1  C   UNL     1     -20.483  -9.031  -4.240  1.00  0.00    -0.004 C 
HETATM    2  C   UNL     1     -19.328  -9.039  -5.258  1.00  0.00     0.019 C 
HETATM    3  C   UNL     1     -19.942  -8.529  -2.886  1.00  0.00     0.019 C 
ENDROOT
BRANCH   1   4
HETATM    4  C   UNL     1     -21.618  -8.098  -4.728  1.00  0.00     0.189 C 
BRANCH   4   5
HETATM    5  O   UNL     1     -21.241  -7.419  -5.946  1.00  0.00    -0.320 OA
BRANCH   5   6
HETATM    6  C   UNL     1     -21.733  -6.160  -6.111  1.00  0.00     0.263 C 
HETATM    7  O   UNL     1     -22.718  -5.712  -5.537  1.00  0.00    -0.265 OA
BRANCH   6   8
HETATM    8  C   UNL     1     -20.893  -5.370  -7.105  1.00  0.00     0.085 C 
BRANCH   8   9
HETATM    9  C   UNL     1     -21.804  -4.364  -7.845  1.00  0.00     0.014 C 
BRANCH   9  10
HETATM   10  C   UNL     1     -21.645  -4.382  -9.367  1.00  0.00     0.000 C 
BRANCH  10  11
HETATM   11  C   UNL     1     -22.899  -3.867 -10.078  1.00  0.00    -0.005 C 
HETATM   12  C   UNL     1     -23.862  -5.007 -10.372  1.00  0.00     0.005 C 
ENDBRANCH  10  11
ENDBRANCH   9  10
ENDBRANCH   8   9
BRANCH   8  13
HETATM   13  C   UNL     1     -19.672  -4.748  -6.406  1.00  0.00     0.010 C 
HETATM   14  C   UNL     1     -18.533  -4.345  -7.337  1.00  0.00     0.006 C 
ENDBRANCH   8  13
ENDBRANCH   6   8
ENDBRANCH   5   6
ENDBRANCH   4   5
ENDBRANCH   1   4
BRANCH   1  15
HETATM   15  C   UNL     1     -21.032 -10.466  -4.055  1.00  0.00     0.189 C 
BRANCH  15  16
HETATM   16  O   UNL     1     -22.201 -10.484  -3.208  1.00  0.00    -0.320 OA
BRANCH  16  17
HETATM   17  C   UNL     1     -22.109 -11.208  -2.055  1.00  0.00     0.263 C 
HETATM   18  O   UNL     1     -21.608 -12.320  -1.966  1.00  0.00    -0.265 OA
BRANCH  17  19
HETATM   19  C   UNL     1     -22.732 -10.455  -0.887  1.00  0.00     0.085 C 
BRANCH  19  20
HETATM   20  C   UNL     1     -23.896 -11.269  -0.295  1.00  0.00     0.010 C 
HETATM   21  C   UNL     1     -23.486 -12.325   0.726  1.00  0.00     0.006 C 
ENDBRANCH  19  20
BRANCH  19  22
HETATM   22  C   UNL     1     -21.675 -10.099   0.177  1.00  0.00     0.014 C 
BRANCH  22  23
HETATM   23  C   UNL     1     -21.752  -8.639   0.639  1.00  0.00     0.000 C 
BRANCH  23  24
HETATM   24  C   UNL     1     -22.878  -7.891  -0.077  1.00  0.00    -0.005 C 
HETATM   25  C   UNL     1     -22.330  -6.775  -0.952  1.00  0.00     0.005 C 
ENDBRANCH  23  24
ENDBRANCH  22  23
ENDBRANCH  19  22
ENDBRANCH  17  19
ENDBRANCH  16  17
ENDBRANCH  15  16
ENDBRANCH   1  15
TORSDOF 16
ENDMDL
MODEL 7
REMARK VINA RESULT:      -6.1      2.099      3.188
REMARK  16 active torsions:
REMARK  status: ('A' for Active; 'I' for Inactive)
REMARK    1  A    between atoms: C_2  and  C_3 
REMARK    2  A    between atoms: C_3  and  C_4 
REMARK    3  A    between atoms: C_4  and  C_5 
REMARK    4  A    between atoms: C_5  and  C_6 
REMARK    5  A    between atoms: C_5  and  C_8 
REMARK    6  A    between atoms: C_8  and  O_10 
REMARK    7  A    between atoms: O_10  and  C_11 
REMARK    8  A    between atoms: C_11  and  C_12 
REMARK    9  A    between atoms: C_12  and  C_15 
REMARK   10  A    between atoms: C_15  and  O_16 
REMARK   11  A    between atoms: O_16  and  C_17 
REMARK   12  A    between atoms: C_17  and  C_19 
REMARK   13  A    between atoms: C_19  and  C_20 
REMARK   14  A    between atoms: C_19  and  C_22 
REMARK   15  A    between atoms: C_22  and  C_23 
REMARK   16  A    between atoms: C_23  and  C_24 
ROOT
HETATM    1  C   UNL     1     -20.883  -5.239  -6.615  1.00  0.00    -0.004 C 
HETATM    2  C   UNL     1     -22.322  -4.705  -6.499  1.00  0.00     0.019 C 
HETATM    3  C   UNL     1     -20.052  -4.671  -5.446  1.00  0.00     0.019 C 
ENDROOT
BRANCH   1   4
HETATM    4  C   UNL     1     -20.882  -6.785  -6.554  1.00  0.00     0.189 C 
BRANCH   4   5
HETATM    5  O   UNL     1     -19.741  -7.273  -5.814  1.00  0.00    -0.320 OA
BRANCH   5   6
HETATM    6  C   UNL     1     -19.953  -8.367  -5.032  1.00  0.00     0.263 C 
HETATM    7  O   UNL     1     -19.220  -9.348  -4.985  1.00  0.00    -0.265 OA
BRANCH   6   8
HETATM    8  C   UNL     1     -21.226  -8.216  -4.210  1.00  0.00     0.085 C 
BRANCH   8   9
HETATM    9  C   UNL     1     -21.880  -9.605  -4.036  1.00  0.00     0.014 C 
BRANCH   9  10
HETATM   10  C   UNL     1     -22.072 -10.025  -2.577  1.00  0.00     0.000 C 
BRANCH  10  11
HETATM   11  C   UNL     1     -23.026 -11.215  -2.446  1.00  0.00    -0.005 C 
HETATM   12  C   UNL     1     -23.743 -11.188  -1.104  1.00  0.00     0.005 C 
ENDBRANCH  10  11
ENDBRANCH   9  10
ENDBRANCH   8   9
BRANCH   8  13
HETATM   13  C   UNL     1     -20.937  -7.464  -2.900  1.00  0.00     0.010 C 
HETATM   14  C   UNL     1     -21.900  -6.325  -2.583  1.00  0.00     0.006 C 
ENDBRANCH   8  13
ENDBRANCH   6   8
ENDBRANCH   5   6
ENDBRANCH   4   5
ENDBRANCH   1   4
BRANCH   1  15
HETATM   15  C   UNL     1     -20.253  -4.769  -7.948  1.00  0.00     0.189 C 
BRANCH  15  16
HETATM   16  O   UNL     1     -21.192  -4.013  -8.742  1.00  0.00    -0.320 OA
BRANCH  16  17
HETATM   17  C   UNL     1     -21.401  -4.448 -10.020  1.00  0.00     0.263 C 
HETATM   18  O   UNL     1     -20.520  -4.637 -10.846  1.00  0.00    -0.265 OA
BRANCH  17  19
HETATM   19  C   UNL     1     -22.887  -4.650 -10.290  1.00  0.00     0.085 C 
BRANCH  19  20
HETATM   20  C   UNL     1     -23.721  -3.865  -9.263  1.00  0.00     0.010 C 
HETATM   21  C   UNL     1     -25.060  -3.351  -9.781  1.00  0.00     0.006 C 
ENDBRANCH  19  20
BRANCH  19  22
HETATM   22  C   UNL     1     -23.247  -4.269 -11.739  1.00  0.00     0.014 C 
BRANCH  22  23
HETATM   23  C   UNL     1     -22.745  -2.877 -12.140  1.00  0.00     0.000 C 
BRANCH  23  24
HETATM   24  C   UNL     1     -23.512  -2.338 -13.348  1.00  0.00    -0.005 C 
HETATM   25  C   UNL     1     -22.838  -2.731 -14.652  1.00  0.00     0.005 C 
ENDBRANCH  23  24
ENDBRANCH  22  23
ENDBRANCH  19  22
ENDBRANCH  17  19
ENDBRANCH  16  17
ENDBRANCH  15  16
ENDBRANCH   1  15
TORSDOF 16
ENDMDL
MODEL 8
REMARK VINA RESULT:      -6.1      1.497      2.529
REMARK  16 active torsions:
REMARK  status: ('A' for Active; 'I' for Inactive)
REMARK    1  A    between atoms: C_2  and  C_3 
REMARK    2  A    between atoms: C_3  and  C_4 
REMARK    3  A    between atoms: C_4  and  C_5 
REMARK    4  A    between atoms: C_5  and  C_6 
REMARK    5  A    between atoms: C_5  and  C_8 
REMARK    6  A    between atoms: C_8  and  O_10 
REMARK    7  A    between atoms: O_10  and  C_11 
REMARK    8  A    between atoms: C_11  and  C_12 
REMARK    9  A    between atoms: C_12  and  C_15 
REMARK   10  A    between atoms: C_15  and  O_16 
REMARK   11  A    between atoms: O_16  and  C_17 
REMARK   12  A    between atoms: C_17  and  C_19 
REMARK   13  A    between atoms: C_19  and  C_20 
REMARK   14  A    between atoms: C_19  and  C_22 
REMARK   15  A    between atoms: C_22  and  C_23 
REMARK   16  A    between atoms: C_23  and  C_24 
ROOT
HETATM    1  C   UNL     1     -21.574  -6.583  -4.143  1.00  0.00    -0.004 C 
HETATM    2  C   UNL     1     -22.896  -6.456  -4.922  1.00  0.00     0.019 C 
HETATM    3  C   UNL     1     -21.781  -6.010  -2.727  1.00  0.00     0.019 C 
ENDROOT
BRANCH   1   4
HETATM    4  C   UNL     1     -21.150  -8.068  -4.050  1.00  0.00     0.189 C 
BRANCH   4   5
HETATM    5  O   UNL     1     -20.331  -8.300  -2.883  1.00  0.00    -0.320 OA
BRANCH   5   6
HETATM    6  C   UNL     1     -20.559  -9.460  -2.207  1.00  0.00     0.263 C 
HETATM    7  O   UNL     1     -19.802 -10.423  -2.194  1.00  0.00    -0.265 OA
BRANCH   6   8
HETATM    8  C   UNL     1     -21.884  -9.407  -1.459  1.00  0.00     0.085 C 
BRANCH   8   9
HETATM    9  C   UNL     1     -22.497 -10.825  -1.419  1.00  0.00     0.014 C 
BRANCH   9  10
HETATM   10  C   UNL     1     -22.369 -11.522  -0.063  1.00  0.00     0.000 C 
BRANCH  10  11
HETATM   11  C   UNL     1     -23.607 -12.360   0.267  1.00  0.00    -0.005 C 
HETATM   12  C   UNL     1     -24.024 -13.203  -0.927  1.00  0.00     0.005 C 
ENDBRANCH  10  11
ENDBRANCH   9  10
ENDBRANCH   8   9
BRANCH   8  13
HETATM   13  C   UNL     1     -21.702  -8.739  -0.085  1.00  0.00     0.010 C 
HETATM   14  C   UNL     1     -22.906  -7.946   0.411  1.00  0.00     0.006 C 
ENDBRANCH   8  13
ENDBRANCH   6   8
ENDBRANCH   5   6
ENDBRANCH   4   5
ENDBRANCH   1   4
BRANCH   1  15
HETATM   15  C   UNL     1     -20.466  -5.768  -4.853  1.00  0.00     0.189 C 
BRANCH  15  16
HETATM   16  O   UNL     1     -20.971  -5.090  -6.023  1.00  0.00    -0.320 OA
BRANCH  16  17
HETATM   17  C   UNL     1     -20.380  -5.402  -7.213  1.00  0.00     0.263 C 
HETATM   18  O   UNL     1     -19.768  -6.436  -7.439  1.00  0.00    -0.265 OA
BRANCH  17  19
HETATM   19  C   UNL     1     -20.567  -4.279  -8.225  1.00  0.00     0.085 C 
BRANCH  19  20
HETATM   20  C   UNL     1     -20.248  -4.788  -9.642  1.00  0.00     0.010 C 
HETATM   21  C   UNL     1     -20.190  -3.705 -10.715  1.00  0.00     0.006 C 
ENDBRANCH  19  20
BRANCH  19  22
HETATM   22  C   UNL     1     -21.982  -3.674  -8.133  1.00  0.00     0.014 C 
BRANCH  22  23
HETATM   23  C   UNL     1     -23.056  -4.552  -8.786  1.00  0.00     0.000 C 
BRANCH  23  24
HETATM   24  C   UNL     1     -23.677  -3.857  -9.999  1.00  0.00    -0.005 C 
HETATM   25  C   UNL     1     -25.026  -3.248  -9.656  1.00  0.00     0.005 C 
ENDBRANCH  23  24
ENDBRANCH  22  23
ENDBRANCH  19  22
ENDBRANCH  17  19
ENDBRANCH  16  17
ENDBRANCH  15  16
ENDBRANCH   1  15
TORSDOF 16
ENDMDL
MODEL 9
REMARK VINA RESULT:      -6.1      1.975      8.726
REMARK  16 active torsions:
REMARK  status: ('A' for Active; 'I' for Inactive)
REMARK    1  A    between atoms: C_2  and  C_3 
REMARK    2  A    between atoms: C_3  and  C_4 
REMARK    3  A    between atoms: C_4  and  C_5 
REMARK    4  A    between atoms: C_5  and  C_6 
REMARK    5  A    between atoms: C_5  and  C_8 
REMARK    6  A    between atoms: C_8  and  O_10 
REMARK    7  A    between atoms: O_10  and  C_11 
REMARK    8  A    between atoms: C_11  and  C_12 
REMARK    9  A    between atoms: C_12  and  C_15 
REMARK   10  A    between atoms: C_15  and  O_16 
REMARK   11  A    between atoms: O_16  and  C_17 
REMARK   12  A    between atoms: C_17  and  C_19 
REMARK   13  A    between atoms: C_19  and  C_20 
REMARK   14  A    between atoms: C_19  and  C_22 
REMARK   15  A    between atoms: C_22  and  C_23 
REMARK   16  A    between atoms: C_23  and  C_24 
ROOT
HETATM    1  C   UNL     1     -20.375  -9.776  -4.784  1.00  0.00    -0.004 C 
HETATM    2  C   UNL     1     -20.674 -10.834  -5.861  1.00  0.00     0.019 C 
HETATM    3  C   UNL     1     -18.954  -9.224  -5.019  1.00  0.00     0.019 C 
ENDROOT
BRANCH   1   4
HETATM    4  C   UNL     1     -21.404  -8.623  -4.868  1.00  0.00     0.189 C 
BRANCH   4   5
HETATM    5  O   UNL     1     -21.139  -7.774  -6.006  1.00  0.00    -0.320 OA
BRANCH   5   6
HETATM    6  C   UNL     1     -21.610  -6.499  -5.930  1.00  0.00     0.263 C 
HETATM    7  O   UNL     1     -22.082  -5.985  -4.923  1.00  0.00    -0.265 OA
BRANCH   6   8
HETATM    8  C   UNL     1     -21.470  -5.783  -7.266  1.00  0.00     0.085 C 
BRANCH   8   9
HETATM    9  C   UNL     1     -22.235  -4.442  -7.201  1.00  0.00     0.014 C 
BRANCH   9  10
HETATM   10  C   UNL     1     -22.342  -3.718  -8.545  1.00  0.00     0.000 C 
BRANCH  10  11
HETATM   11  C   UNL     1     -23.734  -3.866  -9.164  1.00  0.00    -0.005 C 
HETATM   12  C   UNL     1     -23.723  -4.897 -10.283  1.00  0.00     0.005 C 
ENDBRANCH  10  11
ENDBRANCH   9  10
ENDBRANCH   8   9
BRANCH   8  13
HETATM   13  C   UNL     1     -19.989  -5.668  -7.665  1.00  0.00     0.010 C 
HETATM   14  C   UNL     1     -19.183  -4.649  -6.867  1.00  0.00     0.006 C 
ENDBRANCH   8  13
ENDBRANCH   6   8
ENDBRANCH   5   6
ENDBRANCH   4   5
ENDBRANCH   1   4
BRANCH   1  15
HETATM   15  C   UNL     1     -20.431 -10.424  -3.380  1.00  0.00     0.189 C 
BRANCH  15  16
HETATM   16  O   UNL     1     -19.944  -9.525  -2.360  1.00  0.00    -0.320 OA
BRANCH  16  17
HETATM   17  C   UNL     1     -20.346  -9.777  -1.080  1.00  0.00     0.263 C 
HETATM   18  O   UNL     1     -20.132 -10.816  -0.472  1.00  0.00    -0.265 OA
BRANCH  17  19
HETATM   19  C   UNL     1     -21.120  -8.596  -0.510  1.00  0.00     0.085 C 
BRANCH  19  20
HETATM   20  C   UNL     1     -21.193  -7.463  -1.549  1.00  0.00     0.010 C 
HETATM   21  C   UNL     1     -22.327  -6.466  -1.333  1.00  0.00     0.006 C 
ENDBRANCH  19  20
BRANCH  19  22
HETATM   22  C   UNL     1     -22.519  -9.025  -0.025  1.00  0.00     0.014 C 
BRANCH  22  23
HETATM   23  C   UNL     1     -23.162 -10.097  -0.913  1.00  0.00     0.000 C 
BRANCH  23  24
HETATM   24  C   UNL     1     -23.872 -11.159  -0.072  1.00  0.00    -0.005 C 
HETATM   25  C   UNL     1     -23.891 -12.503  -0.781  1.00  0.00     0.005 C 
ENDBRANCH  23  24
ENDBRANCH  22  23
ENDBRANCH  19  22
ENDBRANCH  17  19
ENDBRANCH  16  17
ENDBRANCH  15  16
ENDBRANCH   1  15
TORSDOF 16
ENDMDL
