MODEL 1
REMARK VINA RESULT:      -5.5      0.000      0.000
REMARK  6 active torsions:
REMARK  status: ('A' for Active; 'I' for Inactive)
REMARK    1  A    between atoms: C_2  and  O_12 
REMARK    2  A    between atoms: C_3  and  O_11 
REMARK    3  A    between atoms: C_4  and  O_10 
REMARK    4  A    between atoms: C_5  and  C_7 
REMARK    5  A    between atoms: C_5  and  O_9 
REMARK    6  A    between atoms: C_7  and  O_8 
ROOT
HETATM    1  C   UNL     1     -21.784  -2.972 -10.884  1.00  0.00     0.206 C 
HETATM    2  C   UNL     1     -22.133  -2.686 -12.346  1.00  0.00     0.173 C 
HETATM    3  C   UNL     1     -23.655  -2.659 -12.538  1.00  0.00     0.183 C 
HETATM    4  C   UNL     1     -24.279  -3.950 -11.993  1.00  0.00     0.213 C 
HETATM    5  C   UNL     1     -23.817  -4.243 -10.540  1.00  0.00     0.212 C 
HETATM    6  O   UNL     1     -22.389  -4.184 -10.425  1.00  0.00    -0.349 OA
ENDROOT
BRANCH   5   7
HETATM    7  C   UNL     1     -24.509  -3.359  -9.474  1.00  0.00     0.235 C 
BRANCH   7   8
HETATM    8  O   UNL     1     -25.912  -3.209  -9.671  1.00  0.00    -0.395 OA
HETATM    9  H   UNL     1     -26.350  -3.735  -8.978  1.00  0.00     0.209 HD
ENDBRANCH   7   8
ENDBRANCH   5   7
BRANCH   5  10
HETATM   10  O   UNL     1     -24.184  -5.598 -10.235  1.00  0.00    -0.362 OA
HETATM   11  H   UNL     1     -23.349  -6.099 -10.324  1.00  0.00     0.213 HD
ENDBRANCH   5  10
BRANCH   4  12
HETATM   12  O   UNL     1     -23.877  -5.081 -12.820  1.00  0.00    -0.387 OA
HETATM   13  H   UNL     1     -24.602  -5.742 -12.744  1.00  0.00     0.210 HD
ENDBRANCH   4  12
BRANCH   3  14
HETATM   14  O   UNL     1     -23.953  -2.514 -13.934  1.00  0.00    -0.390 OA
HETATM   15  H   UNL     1     -24.804  -2.980 -14.065  1.00  0.00     0.210 HD
ENDBRANCH   3  14
BRANCH   2  16
HETATM   16  O   UNL     1     -21.601  -3.743 -13.176  1.00  0.00    -0.391 OA
HETATM   17  H   UNL     1     -21.805  -4.587 -12.730  1.00  0.00     0.210 HD
ENDBRANCH   2  16
TORSDOF 6
ENDMDL
MODEL 2
REMARK VINA RESULT:      -5.4      1.472      3.580
REMARK  6 active torsions:
REMARK  status: ('A' for Active; 'I' for Inactive)
REMARK    1  A    between atoms: C_2  and  O_12 
REMARK    2  A    between atoms: C_3  and  O_11 
REMARK    3  A    between atoms: C_4  and  O_10 
REMARK    4  A    between atoms: C_5  and  C_7 
REMARK    5  A    between atoms: C_5  and  O_9 
REMARK    6  A    between atoms: C_7  and  O_8 
ROOT
HETATM    1  C   UNL     1     -21.625  -2.883 -11.584  1.00  0.00     0.206 C 
HETATM    2  C   UNL     1     -22.249  -3.915 -10.641  1.00  0.00     0.173 C 
HETATM    3  C   UNL     1     -23.288  -4.762 -11.386  1.00  0.00     0.183 C 
HETATM    4  C   UNL     1     -24.314  -3.853 -12.077  1.00  0.00     0.213 C 
HETATM    5  C   UNL     1     -23.626  -2.766 -12.944  1.00  0.00     0.212 C 
HETATM    6  O   UNL     1     -22.622  -2.063 -12.200  1.00  0.00    -0.349 OA
ENDROOT
BRANCH   5   7
HETATM    7  C   UNL     1     -23.068  -3.297 -14.287  1.00  0.00     0.235 C 
BRANCH   7   8
HETATM    8  O   UNL     1     -23.961  -4.165 -14.979  1.00  0.00    -0.395 OA
HETATM    9  H   UNL     1     -24.796  -3.675 -15.093  1.00  0.00     0.209 HD
ENDBRANCH   7   8
ENDBRANCH   5   7
BRANCH   5  10
HETATM   10  O   UNL     1     -24.623  -1.789 -13.284  1.00  0.00    -0.362 OA
HETATM   11  H   UNL     1     -25.238  -2.270 -13.873  1.00  0.00     0.213 HD
ENDBRANCH   5  10
BRANCH   4  12
HETATM   12  O   UNL     1     -25.124  -3.171 -11.075  1.00  0.00    -0.387 OA
HETATM   13  H   UNL     1     -25.638  -2.490 -11.562  1.00  0.00     0.210 HD
ENDBRANCH   4  12
BRANCH   3  14
HETATM   14  O   UNL     1     -23.944  -5.633 -10.455  1.00  0.00    -0.390 OA
HETATM   15  H   UNL     1     -24.329  -5.042  -9.776  1.00  0.00     0.210 HD
ENDBRANCH   3  14
BRANCH   2  16
HETATM   16  O   UNL     1     -22.927  -3.226  -9.566  1.00  0.00    -0.391 OA
HETATM   17  H   UNL     1     -22.726  -3.711  -8.744  1.00  0.00     0.210 HD
ENDBRANCH   2  16
TORSDOF 6
ENDMDL
MODEL 3
REMARK VINA RESULT:      -5.3     16.447     18.065
REMARK  6 active torsions:
REMARK  status: ('A' for Active; 'I' for Inactive)
REMARK    1  A    between atoms: C_2  and  O_12 
REMARK    2  A    between atoms: C_3  and  O_11 
REMARK    3  A    between atoms: C_4  and  O_10 
REMARK    4  A    between atoms: C_5  and  C_7 
REMARK    5  A    between atoms: C_5  and  O_9 
REMARK    6  A    between atoms: C_7  and  O_8 
ROOT
HETATM    1  C   UNL     1     -12.156   8.402 -19.989  1.00  0.00     0.206 C 
HETATM    2  C   UNL     1     -10.644   8.194 -19.880  1.00  0.00     0.173 C 
HETATM    3  C   UNL     1     -10.222   6.923 -20.628  1.00  0.00     0.183 C 
HETATM    4  C   UNL     1     -11.049   5.725 -20.142  1.00  0.00     0.213 C 
HETATM    5  C   UNL     1     -12.571   6.024 -20.183  1.00  0.00     0.212 C 
HETATM    6  O   UNL     1     -12.879   7.259 -19.524  1.00  0.00    -0.349 OA
ENDROOT
BRANCH   5   7
HETATM    7  C   UNL     1     -13.180   5.973 -21.606  1.00  0.00     0.235 C 
BRANCH   7   8
HETATM    8  O   UNL     1     -14.602   5.904 -21.623  1.00  0.00    -0.395 OA
HETATM    9  H   UNL     1     -14.895   6.349 -22.439  1.00  0.00     0.209 HD
ENDBRANCH   7   8
ENDBRANCH   5   7
BRANCH   5  10
HETATM   10  O   UNL     1     -13.234   4.996 -19.429  1.00  0.00    -0.362 OA
HETATM   11  H   UNL     1     -13.225   4.219 -20.023  1.00  0.00     0.213 HD
ENDBRANCH   5  10
BRANCH   4  12
HETATM   12  O   UNL     1     -10.698   5.410 -18.763  1.00  0.00    -0.387 OA
HETATM   13  H   UNL     1     -10.030   6.079 -18.494  1.00  0.00     0.210 HD
ENDBRANCH   4  12
BRANCH   3  14
HETATM   14  O   UNL     1      -8.825   6.685 -20.406  1.00  0.00    -0.390 OA
HETATM   15  H   UNL     1      -8.386   7.541 -20.583  1.00  0.00     0.210 HD
ENDBRANCH   3  14
BRANCH   2  16
HETATM   16  O   UNL     1     -10.287   8.028 -18.489  1.00  0.00    -0.391 OA
HETATM   17  H   UNL     1      -9.490   7.466 -18.463  1.00  0.00     0.210 HD
ENDBRANCH   2  16
TORSDOF 6
ENDMDL
MODEL 4
REMARK VINA RESULT:      -5.2     15.877     17.868
REMARK  6 active torsions:
REMARK  status: ('A' for Active; 'I' for Inactive)
REMARK    1  A    between atoms: C_2  and  O_12 
REMARK    2  A    between atoms: C_3  and  O_11 
REMARK    3  A    between atoms: C_4  and  O_10 
REMARK    4  A    between atoms: C_5  and  C_7 
REMARK    5  A    between atoms: C_5  and  O_9 
REMARK    6  A    between atoms: C_7  and  O_8 
ROOT
HETATM    1  C   UNL     1     -12.402   4.383 -19.796  1.00  0.00     0.206 C 
HETATM    2  C   UNL     1     -13.499   5.154 -20.536  1.00  0.00     0.173 C 
HETATM    3  C   UNL     1     -12.885   6.268 -21.393  1.00  0.00     0.183 C 
HETATM    4  C   UNL     1     -11.976   7.156 -20.532  1.00  0.00     0.213 C 
HETATM    5  C   UNL     1     -10.946   6.317 -19.730  1.00  0.00     0.212 C 
HETATM    6  O   UNL     1     -11.585   5.254 -19.011  1.00  0.00    -0.349 OA
ENDROOT
BRANCH   5   7
HETATM    7  C   UNL     1      -9.766   5.793 -20.585  1.00  0.00     0.235 C 
BRANCH   7   8
HETATM    8  O   UNL     1      -8.639   6.663 -20.607  1.00  0.00    -0.395 OA
HETATM    9  H   UNL     1      -8.683   7.159 -21.445  1.00  0.00     0.209 HD
ENDBRANCH   7   8
ENDBRANCH   5   7
BRANCH   5  10
HETATM   10  O   UNL     1     -10.367   7.178 -18.736  1.00  0.00    -0.362 OA
HETATM   11  H   UNL     1      -9.491   6.782 -18.556  1.00  0.00     0.213 HD
ENDBRANCH   5  10
BRANCH   4  12
HETATM   12  O   UNL     1     -12.779   7.903 -19.572  1.00  0.00    -0.387 OA
HETATM   13  H   UNL     1     -13.344   7.238 -19.118  1.00  0.00     0.210 HD
ENDBRANCH   4  12
BRANCH   3  14
HETATM   14  O   UNL     1     -13.937   7.051 -21.975  1.00  0.00    -0.390 OA
HETATM   15  H   UNL     1     -13.837   7.945 -21.588  1.00  0.00     0.210 HD
ENDBRANCH   3  14
BRANCH   2  16
HETATM   16  O   UNL     1     -14.379   5.771 -19.570  1.00  0.00    -0.391 OA
HETATM   17  H   UNL     1     -14.074   5.491 -18.686  1.00  0.00     0.210 HD
ENDBRANCH   2  16
TORSDOF 6
ENDMDL
MODEL 5
REMARK VINA RESULT:      -5.2      9.632     11.250
REMARK  6 active torsions:
REMARK  status: ('A' for Active; 'I' for Inactive)
REMARK    1  A    between atoms: C_2  and  O_12 
REMARK    2  A    between atoms: C_3  and  O_11 
REMARK    3  A    between atoms: C_4  and  O_10 
REMARK    4  A    between atoms: C_5  and  C_7 
REMARK    5  A    between atoms: C_5  and  O_9 
REMARK    6  A    between atoms: C_7  and  O_8 
ROOT
HETATM    1  C   UNL     1     -35.508  -4.341 -10.862  1.00  0.00     0.206 C 
HETATM    2  C   UNL     1     -34.360  -5.314 -11.144  1.00  0.00     0.173 C 
HETATM    3  C   UNL     1     -33.089  -4.546 -11.526  1.00  0.00     0.183 C 
HETATM    4  C   UNL     1     -33.382  -3.582 -12.684  1.00  0.00     0.213 C 
HETATM    5  C   UNL     1     -34.613  -2.685 -12.386  1.00  0.00     0.212 C 
HETATM    6  O   UNL     1     -35.740  -3.467 -11.969  1.00  0.00    -0.349 OA
ENDROOT
BRANCH   5   7
HETATM    7  C   UNL     1     -34.322  -1.535 -11.391  1.00  0.00     0.235 C 
BRANCH   7   8
HETATM    8  O   UNL     1     -34.682  -0.246 -11.878  1.00  0.00    -0.395 OA
HETATM    9  H   UNL     1     -35.387   0.089 -11.293  1.00  0.00     0.209 HD
ENDBRANCH   7   8
ENDBRANCH   5   7
BRANCH   5  10
HETATM   10  O   UNL     1     -35.000  -2.057 -13.619  1.00  0.00    -0.362 OA
HETATM   11  H   UNL     1     -35.966  -1.931 -13.532  1.00  0.00     0.213 HD
ENDBRANCH   5  10
BRANCH   4  12
HETATM   12  O   UNL     1     -33.671  -4.338 -13.896  1.00  0.00    -0.387 OA
HETATM   13  H   UNL     1     -34.636  -4.521 -13.876  1.00  0.00     0.210 HD
ENDBRANCH   4  12
BRANCH   3  14
HETATM   14  O   UNL     1     -32.068  -5.479 -11.906  1.00  0.00    -0.390 OA
HETATM   15  H   UNL     1     -32.443  -6.363 -11.717  1.00  0.00     0.210 HD
ENDBRANCH   3  14
BRANCH   2  16
HETATM   16  O   UNL     1     -34.719  -6.160 -12.259  1.00  0.00    -0.391 OA
HETATM   17  H   UNL     1     -35.184  -5.598 -12.907  1.00  0.00     0.210 HD
ENDBRANCH   2  16
TORSDOF 6
ENDMDL
MODEL 6
REMARK VINA RESULT:      -5.1     12.539     13.909
REMARK  6 active torsions:
REMARK  status: ('A' for Active; 'I' for Inactive)
REMARK    1  A    between atoms: C_2  and  O_12 
REMARK    2  A    between atoms: C_3  and  O_11 
REMARK    3  A    between atoms: C_4  and  O_10 
REMARK    4  A    between atoms: C_5  and  C_7 
REMARK    5  A    between atoms: C_5  and  O_9 
REMARK    6  A    between atoms: C_7  and  O_8 
ROOT
HETATM    1  C   UNL     1     -38.075  -0.224 -13.947  1.00  0.00     0.206 C 
HETATM    2  C   UNL     1     -37.918  -0.167 -15.469  1.00  0.00     0.173 C 
HETATM    3  C   UNL     1     -36.582  -0.790 -15.893  1.00  0.00     0.183 C 
HETATM    4  C   UNL     1     -35.426  -0.134 -15.126  1.00  0.00     0.213 C 
HETATM    5  C   UNL     1     -35.681  -0.132 -13.595  1.00  0.00     0.212 C 
HETATM    6  O   UNL     1     -36.974   0.400 -13.281  1.00  0.00    -0.349 OA
ENDROOT
BRANCH   5   7
HETATM    7  C   UNL     1     -35.456  -1.509 -12.923  1.00  0.00     0.235 C 
BRANCH   7   8
HETATM    8  O   UNL     1     -34.711  -2.425 -13.720  1.00  0.00    -0.395 OA
HETATM    9  H   UNL     1     -33.832  -2.026 -13.858  1.00  0.00     0.209 HD
ENDBRANCH   7   8
ENDBRANCH   5   7
BRANCH   5  10
HETATM   10  O   UNL     1     -34.728   0.763 -12.999  1.00  0.00    -0.362 OA
HETATM   11  H   UNL     1     -34.298   1.199 -13.762  1.00  0.00     0.213 HD
ENDBRANCH   5  10
BRANCH   4  12
HETATM   12  O   UNL     1     -35.276   1.253 -15.549  1.00  0.00    -0.387 OA
HETATM   13  H   UNL     1     -35.129   1.224 -16.521  1.00  0.00     0.210 HD
ENDBRANCH   4  12
BRANCH   3  14
HETATM   14  O   UNL     1     -36.404  -0.612 -17.305  1.00  0.00    -0.390 OA
HETATM   15  H   UNL     1     -36.962  -1.298 -17.724  1.00  0.00     0.210 HD
ENDBRANCH   3  14
BRANCH   2  16
HETATM   16  O   UNL     1     -37.918   1.214 -15.895  1.00  0.00    -0.391 OA
HETATM   17  H   UNL     1     -38.441   1.260 -16.718  1.00  0.00     0.210 HD
ENDBRANCH   2  16
TORSDOF 6
ENDMDL
MODEL 7
REMARK VINA RESULT:      -5.1     12.149     13.706
REMARK  6 active torsions:
REMARK  status: ('A' for Active; 'I' for Inactive)
REMARK    1  A    between atoms: C_2  and  O_12 
REMARK    2  A    between atoms: C_3  and  O_11 
REMARK    3  A    between atoms: C_4  and  O_10 
REMARK    4  A    between atoms: C_5  and  C_7 
REMARK    5  A    between atoms: C_5  and  O_9 
REMARK    6  A    between atoms: C_7  and  O_8 
ROOT
HETATM    1  C   UNL     1     -37.677  -0.061 -12.819  1.00  0.00     0.206 C 
HETATM    2  C   UNL     1     -36.522  -0.421 -11.882  1.00  0.00     0.173 C 
HETATM    3  C   UNL     1     -35.176  -0.104 -12.546  1.00  0.00     0.183 C 
HETATM    4  C   UNL     1     -35.093  -0.780 -13.921  1.00  0.00     0.213 C 
HETATM    5  C   UNL     1     -36.335  -0.458 -14.794  1.00  0.00     0.212 C 
HETATM    6  O   UNL     1     -37.553  -0.715 -14.084  1.00  0.00    -0.349 OA
ENDROOT
BRANCH   5   7
HETATM    7  C   UNL     1     -36.321   0.967 -15.401  1.00  0.00     0.235 C 
BRANCH   7   8
HETATM    8  O   UNL     1     -37.557   1.354 -15.992  1.00  0.00    -0.395 OA
HETATM    9  H   UNL     1     -37.346   1.724 -16.868  1.00  0.00     0.209 HD
ENDBRANCH   7   8
ENDBRANCH   5   7
BRANCH   5  10
HETATM   10  O   UNL     1     -36.326  -1.366 -15.908  1.00  0.00    -0.362 OA
HETATM   11  H   UNL     1     -35.871  -2.161 -15.567  1.00  0.00     0.213 HD
ENDBRANCH   5  10
BRANCH   4  12
HETATM   12  O   UNL     1     -35.031  -2.227 -13.758  1.00  0.00    -0.387 OA
HETATM   13  H   UNL     1     -35.077  -2.603 -14.665  1.00  0.00     0.210 HD
ENDBRANCH   4  12
BRANCH   3  14
HETATM   14  O   UNL     1     -34.111  -0.565 -11.702  1.00  0.00    -0.390 OA
HETATM   15  H   UNL     1     -34.552  -0.932 -10.909  1.00  0.00     0.210 HD
ENDBRANCH   3  14
BRANCH   2  16
HETATM   16  O   UNL     1     -36.558  -1.840 -11.609  1.00  0.00    -0.391 OA
HETATM   17  H   UNL     1     -35.782  -2.236 -12.050  1.00  0.00     0.210 HD
ENDBRANCH   2  16
TORSDOF 6
ENDMDL
MODEL 8
REMARK VINA RESULT:      -5.0     16.759     18.617
REMARK  6 active torsions:
REMARK  status: ('A' for Active; 'I' for Inactive)
REMARK    1  A    between atoms: C_2  and  O_12 
REMARK    2  A    between atoms: C_3  and  O_11 
REMARK    3  A    between atoms: C_4  and  O_10 
REMARK    4  A    between atoms: C_5  and  C_7 
REMARK    5  A    between atoms: C_5  and  O_9 
REMARK    6  A    between atoms: C_7  and  O_8 
ROOT
HETATM    1  C   UNL     1      -9.992   5.552 -19.417  1.00  0.00     0.206 C 
HETATM    2  C   UNL     1     -11.294   5.033 -20.034  1.00  0.00     0.173 C 
HETATM    3  C   UNL     1     -11.856   6.054 -21.031  1.00  0.00     0.183 C 
HETATM    4  C   UNL     1     -11.992   7.428 -20.361  1.00  0.00     0.213 C 
HETATM    5  C   UNL     1     -10.673   7.862 -19.669  1.00  0.00     0.212 C 
HETATM    6  O   UNL     1     -10.172   6.832 -18.806  1.00  0.00    -0.349 OA
ENDROOT
BRANCH   5   7
HETATM    7  C   UNL     1      -9.584   8.356 -20.653  1.00  0.00     0.235 C 
BRANCH   7   8
HETATM    8  O   UNL     1      -9.420   9.771 -20.668  1.00  0.00    -0.395 OA
HETATM    9  H   UNL     1     -10.284  10.156 -20.432  1.00  0.00     0.209 HD
ENDBRANCH   7   8
ENDBRANCH   5   7
BRANCH   5  10
HETATM   10  O   UNL     1     -10.978   8.979 -18.818  1.00  0.00    -0.362 OA
HETATM   11  H   UNL     1     -10.116   9.226 -18.428  1.00  0.00     0.213 HD
ENDBRANCH   5  10
BRANCH   4  12
HETATM   12  O   UNL     1     -13.031   7.379 -19.340  1.00  0.00    -0.387 OA
HETATM   13  H   UNL     1     -12.875   8.157 -18.759  1.00  0.00     0.210 HD
ENDBRANCH   4  12
BRANCH   3  14
HETATM   14  O   UNL     1     -13.135   5.602 -21.500  1.00  0.00    -0.390 OA
HETATM   15  H   UNL     1     -13.578   6.401 -21.850  1.00  0.00     0.210 HD
ENDBRANCH   3  14
BRANCH   2  16
HETATM   16  O   UNL     1     -12.274   4.849 -18.988  1.00  0.00    -0.391 OA
HETATM   17  H   UNL     1     -13.149   5.029 -19.381  1.00  0.00     0.210 HD
ENDBRANCH   2  16
TORSDOF 6
ENDMDL
MODEL 9
REMARK VINA RESULT:      -5.0      1.573      2.585
REMARK  6 active torsions:
REMARK  status: ('A' for Active; 'I' for Inactive)
REMARK    1  A    between atoms: C_2  and  O_12 
REMARK    2  A    between atoms: C_3  and  O_11 
REMARK    3  A    between atoms: C_4  and  O_10 
REMARK    4  A    between atoms: C_5  and  C_7 
REMARK    5  A    between atoms: C_5  and  O_9 
REMARK    6  A    between atoms: C_7  and  O_8 
ROOT
HETATM    1  C   UNL     1     -23.844  -5.722 -10.822  1.00  0.00     0.206 C 
HETATM    2  C   UNL     1     -23.141  -5.185 -12.071  1.00  0.00     0.173 C 
HETATM    3  C   UNL     1     -22.288  -3.960 -11.720  1.00  0.00     0.183 C 
HETATM    4  C   UNL     1     -23.142  -2.913 -10.992  1.00  0.00     0.213 C 
HETATM    5  C   UNL     1     -23.908  -3.531  -9.793  1.00  0.00     0.212 C 
HETATM    6  O   UNL     1     -24.625  -4.709 -10.182  1.00  0.00    -0.349 OA
ENDROOT
BRANCH   5   7
HETATM    7  C   UNL     1     -23.020  -3.791  -8.551  1.00  0.00     0.235 C 
BRANCH   7   8
HETATM    8  O   UNL     1     -23.742  -4.243  -7.410  1.00  0.00    -0.395 OA
HETATM    9  H   UNL     1     -24.685  -4.076  -7.590  1.00  0.00     0.209 HD
ENDBRANCH   7   8
ENDBRANCH   5   7
BRANCH   5  10
HETATM   10  O   UNL     1     -24.902  -2.579  -9.379  1.00  0.00    -0.362 OA
HETATM   11  H   UNL     1     -24.581  -1.727  -9.734  1.00  0.00     0.213 HD
ENDBRANCH   5  10
BRANCH   4  12
HETATM   12  O   UNL     1     -24.131  -2.357 -11.908  1.00  0.00    -0.387 OA
HETATM   13  H   UNL     1     -24.197  -2.996 -12.653  1.00  0.00     0.210 HD
ENDBRANCH   4  12
BRANCH   3  14
HETATM   14  O   UNL     1     -21.741  -3.403 -12.925  1.00  0.00    -0.390 OA
HETATM   15  H   UNL     1     -21.832  -2.434 -12.825  1.00  0.00     0.210 HD
ENDBRANCH   3  14
BRANCH   2  16
HETATM   16  O   UNL     1     -24.135  -4.772 -13.035  1.00  0.00    -0.391 OA
HETATM   17  H   UNL     1     -24.150  -3.797 -13.031  1.00  0.00     0.210 HD
ENDBRANCH   2  16
TORSDOF 6
ENDMDL
