MODEL 1
REMARK VINA RESULT:      -5.4      0.000      0.000
REMARK  8 active torsions:
REMARK  status: ('A' for Active; 'I' for Inactive)
REMARK    1  A    between atoms: C_1  and  C_2 
REMARK    2  A    between atoms: C_1  and  S_7 
REMARK    3  A    between atoms: C_2  and  C_3 
REMARK    4  A    between atoms: C_2  and  N_6 
REMARK    5  A    between atoms: C_3  and  O_5 
REMARK    6  A    between atoms: S_7  and  C_8 
REMARK    7  A    between atoms: C_8  and  C_9 
REMARK    8  A    between atoms: C_9  and  O_11 
ROOT
HETATM    1  C   UNK     1     -23.692  -2.877 -12.959  1.00  0.00     0.323 C 
ENDROOT
BRANCH   1   2
HETATM    2  C   UNK     1     -22.465  -2.575 -12.081  1.00  0.00     0.120 C 
BRANCH   2   3
HETATM    3  S   UNK     1     -21.931  -4.051 -11.120  1.00  0.00    -0.156 SA
BRANCH   3   4
HETATM    4  C   UNK     1     -22.715  -3.656  -9.523  1.00  0.00     0.183 C 
BRANCH   4   5
HETATM    5  C   UNK     1     -24.210  -3.861  -9.604  1.00  0.00     0.149 C 
HETATM    6  O   UNK     1     -24.738  -4.859 -10.070  1.00  0.00    -0.649 OA
BRANCH   5   7
HETATM    7  O   UNK     1     -24.927  -2.821  -9.113  1.00  0.00    -0.776 OA
HETATM    8  H   UNK     1     -25.555  -3.112  -8.420  1.00  0.00     0.167 HD
ENDBRANCH   5   7
ENDBRANCH   4   5
ENDBRANCH   3   4
ENDBRANCH   2   3
ENDBRANCH   1   2
BRANCH   1   9
HETATM    9  C   UNK     1     -23.506  -2.174 -14.312  1.00  0.00     0.174 C 
HETATM   10  O   UNK     1     -22.776  -2.592 -15.201  1.00  0.00    -0.648 OA
BRANCH   9  11
HETATM   11  O   UNK     1     -24.225  -1.037 -14.447  1.00  0.00    -0.775 OA
HETATM   12  H   UNK     1     -24.069  -0.537 -15.272  1.00  0.00     0.167 HD
ENDBRANCH   9  11
ENDBRANCH   1   9
BRANCH   1  13
HETATM   13  N   UNK     1     -23.884  -4.329 -13.184  1.00  0.00     0.093 N 
HETATM   14  H   UNK     1     -24.338  -4.720 -12.352  1.00  0.00     0.314 HD
HETATM   15  H   UNK     1     -22.971  -4.785 -13.205  1.00  0.00     0.314 HD
ENDBRANCH   1  13
TORSDOF 8
ENDMDL
MODEL 2
REMARK VINA RESULT:      -5.2      2.439      5.110
REMARK  8 active torsions:
REMARK  status: ('A' for Active; 'I' for Inactive)
REMARK    1  A    between atoms: C_1  and  C_2 
REMARK    2  A    between atoms: C_1  and  S_7 
REMARK    3  A    between atoms: C_2  and  C_3 
REMARK    4  A    between atoms: C_2  and  N_6 
REMARK    5  A    between atoms: C_3  and  O_5 
REMARK    6  A    between atoms: S_7  and  C_8 
REMARK    7  A    between atoms: C_8  and  C_9 
REMARK    8  A    between atoms: C_9  and  O_11 
ROOT
HETATM    1  C   UNK     1     -23.306  -4.215  -8.993  1.00  0.00     0.323 C 
ENDROOT
BRANCH   1   2
HETATM    2  C   UNK     1     -22.083  -3.613  -9.707  1.00  0.00     0.120 C 
BRANCH   2   3
HETATM    3  S   UNK     1     -21.889  -4.280 -11.411  1.00  0.00    -0.156 SA
BRANCH   3   4
HETATM    4  C   UNK     1     -22.698  -2.937 -12.341  1.00  0.00     0.183 C 
BRANCH   4   5
HETATM    5  C   UNK     1     -24.115  -3.325 -12.700  1.00  0.00     0.149 C 
HETATM    6  O   UNK     1     -25.096  -3.008 -12.046  1.00  0.00    -0.649 OA
BRANCH   5   7
HETATM    7  O   UNK     1     -24.201  -4.073 -13.827  1.00  0.00    -0.776 OA
HETATM    8  H   UNK     1     -24.028  -5.020 -13.643  1.00  0.00     0.167 HD
ENDBRANCH   5   7
ENDBRANCH   4   5
ENDBRANCH   3   4
ENDBRANCH   2   3
ENDBRANCH   1   2
BRANCH   1   9
HETATM    9  C   UNK     1     -22.938  -4.460  -7.521  1.00  0.00     0.174 C 
HETATM   10  O   UNK     1     -21.796  -4.660  -7.129  1.00  0.00    -0.648 OA
BRANCH   9  11
HETATM   11  O   UNK     1     -23.994  -4.439  -6.678  1.00  0.00    -0.775 OA
HETATM   12  H   UNK     1     -23.985  -3.724  -6.011  1.00  0.00     0.167 HD
ENDBRANCH   9  11
ENDBRANCH   1   9
BRANCH   1  13
HETATM   13  N   UNK     1     -24.493  -3.329  -9.059  1.00  0.00     0.093 N 
HETATM   14  H   UNK     1     -25.214  -3.722  -8.445  1.00  0.00     0.314 HD
HETATM   15  H   UNK     1     -24.901  -3.391  -9.993  1.00  0.00     0.314 HD
ENDBRANCH   1  13
TORSDOF 8
ENDMDL
MODEL 3
REMARK VINA RESULT:      -5.2      2.084      5.014
REMARK  8 active torsions:
REMARK  status: ('A' for Active; 'I' for Inactive)
REMARK    1  A    between atoms: C_1  and  C_2 
REMARK    2  A    between atoms: C_1  and  S_7 
REMARK    3  A    between atoms: C_2  and  C_3 
REMARK    4  A    between atoms: C_2  and  N_6 
REMARK    5  A    between atoms: C_3  and  O_5 
REMARK    6  A    between atoms: S_7  and  C_8 
REMARK    7  A    between atoms: C_8  and  C_9 
REMARK    8  A    between atoms: C_9  and  O_11 
ROOT
HETATM    1  C   UNK     1     -23.869  -4.787 -10.022  1.00  0.00     0.323 C 
ENDROOT
BRANCH   1   2
HETATM    2  C   UNK     1     -23.618  -4.767 -11.540  1.00  0.00     0.120 C 
BRANCH   2   3
HETATM    3  S   UNK     1     -24.271  -3.233 -12.321  1.00  0.00    -0.156 SA
BRANCH   3   4
HETATM    4  C   UNK     1     -22.758  -2.673 -13.169  1.00  0.00     0.183 C 
BRANCH   4   5
HETATM    5  C   UNK     1     -23.018  -2.495 -14.647  1.00  0.00     0.149 C 
HETATM    6  O   UNK     1     -23.915  -1.803 -15.105  1.00  0.00    -0.649 OA
BRANCH   5   7
HETATM    7  O   UNK     1     -22.159  -3.187 -15.434  1.00  0.00    -0.776 OA
HETATM    8  H   UNK     1     -22.633  -3.808 -16.025  1.00  0.00     0.167 HD
ENDBRANCH   5   7
ENDBRANCH   4   5
ENDBRANCH   3   4
ENDBRANCH   2   3
ENDBRANCH   1   2
BRANCH   1   9
HETATM    9  C   UNK     1     -22.702  -4.071  -9.327  1.00  0.00     0.174 C 
HETATM   10  O   UNK     1     -21.619  -3.862  -9.857  1.00  0.00    -0.648 OA
BRANCH   9  11
HETATM   11  O   UNK     1     -22.968  -3.684  -8.059  1.00  0.00    -0.775 OA
HETATM   12  H   UNK     1     -23.368  -4.367  -7.487  1.00  0.00     0.167 HD
ENDBRANCH   9  11
ENDBRANCH   1   9
BRANCH   1  13
HETATM   13  N   UNK     1     -25.141  -4.124  -9.649  1.00  0.00     0.093 N 
HETATM   14  H   UNK     1     -25.604  -4.705  -8.943  1.00  0.00     0.314 HD
HETATM   15  H   UNK     1     -25.777  -4.153 -10.448  1.00  0.00     0.314 HD
ENDBRANCH   1  13
TORSDOF 8
ENDMDL
MODEL 4
REMARK VINA RESULT:      -5.1      8.141      9.040
REMARK  8 active torsions:
REMARK  status: ('A' for Active; 'I' for Inactive)
REMARK    1  A    between atoms: C_1  and  C_2 
REMARK    2  A    between atoms: C_1  and  S_7 
REMARK    3  A    between atoms: C_2  and  C_3 
REMARK    4  A    between atoms: C_2  and  N_6 
REMARK    5  A    between atoms: C_3  and  O_5 
REMARK    6  A    between atoms: S_7  and  C_8 
REMARK    7  A    between atoms: C_8  and  C_9 
REMARK    8  A    between atoms: C_9  and  O_11 
ROOT
HETATM    1  C   UNK     1     -31.431  -5.014 -16.979  1.00  0.00     0.323 C 
ENDROOT
BRANCH   1   2
HETATM    2  C   UNK     1     -30.286  -5.570 -17.844  1.00  0.00     0.120 C 
BRANCH   2   3
HETATM    3  S   UNK     1     -29.646  -7.167 -17.189  1.00  0.00    -0.156 SA
BRANCH   3   4
HETATM    4  C   UNK     1     -28.611  -6.528 -15.832  1.00  0.00     0.183 C 
BRANCH   4   5
HETATM    5  C   UNK     1     -27.154  -6.524 -16.238  1.00  0.00     0.149 C 
HETATM    6  O   UNK     1     -26.672  -5.741 -17.042  1.00  0.00    -0.649 OA
BRANCH   5   7
HETATM    7  O   UNK     1     -26.420  -7.485 -15.628  1.00  0.00    -0.776 OA
HETATM    8  H   UNK     1     -25.697  -7.807 -16.206  1.00  0.00     0.167 HD
ENDBRANCH   5   7
ENDBRANCH   4   5
ENDBRANCH   3   4
ENDBRANCH   2   3
ENDBRANCH   1   2
BRANCH   1   9
HETATM    9  C   UNK     1     -31.851  -3.650 -17.548  1.00  0.00     0.174 C 
HETATM   10  O   UNK     1     -32.950  -3.144 -17.361  1.00  0.00    -0.648 OA
BRANCH   9  11
HETATM   11  O   UNK     1     -30.895  -3.042 -18.285  1.00  0.00    -0.775 OA
HETATM   12  H   UNK     1     -30.796  -2.082 -18.135  1.00  0.00     0.167 HD
ENDBRANCH   9  11
ENDBRANCH   1   9
BRANCH   1  13
HETATM   13  N   UNK     1     -32.608  -5.915 -16.950  1.00  0.00     0.093 N 
HETATM   14  H   UNK     1     -33.435  -5.362 -17.197  1.00  0.00     0.314 HD
HETATM   15  H   UNK     1     -32.781  -6.203 -15.986  1.00  0.00     0.314 HD
ENDBRANCH   1  13
TORSDOF 8
ENDMDL
MODEL 5
REMARK VINA RESULT:      -5.1      1.796      5.080
REMARK  8 active torsions:
REMARK  status: ('A' for Active; 'I' for Inactive)
REMARK    1  A    between atoms: C_1  and  C_2 
REMARK    2  A    between atoms: C_1  and  S_7 
REMARK    3  A    between atoms: C_2  and  C_3 
REMARK    4  A    between atoms: C_2  and  N_6 
REMARK    5  A    between atoms: C_3  and  O_5 
REMARK    6  A    between atoms: S_7  and  C_8 
REMARK    7  A    between atoms: C_8  and  C_9 
REMARK    8  A    between atoms: C_9  and  O_11 
ROOT
HETATM    1  C   UNK     1     -22.526  -3.828  -9.614  1.00  0.00     0.323 C 
ENDROOT
BRANCH   1   2
HETATM    2  C   UNK     1     -22.673  -4.466 -11.006  1.00  0.00     0.120 C 
BRANCH   2   3
HETATM    3  S   UNK     1     -22.015  -3.373 -12.333  1.00  0.00    -0.156 SA
BRANCH   3   4
HETATM    4  C   UNK     1     -23.592  -2.798 -13.043  1.00  0.00     0.183 C 
BRANCH   4   5
HETATM    5  C   UNK     1     -23.385  -2.305 -14.457  1.00  0.00     0.149 C 
HETATM    6  O   UNK     1     -24.002  -1.376 -14.954  1.00  0.00    -0.649 OA
BRANCH   5   7
HETATM    7  O   UNK     1     -22.443  -3.001 -15.139  1.00  0.00    -0.776 OA
HETATM    8  H   UNK     1     -22.795  -3.856 -15.467  1.00  0.00     0.167 HD
ENDBRANCH   5   7
ENDBRANCH   4   5
ENDBRANCH   3   4
ENDBRANCH   2   3
ENDBRANCH   1   2
BRANCH   1   9
HETATM    9  C   UNK     1     -23.930  -3.597  -9.035  1.00  0.00     0.174 C 
HETATM   10  O   UNK     1     -24.817  -2.991  -9.621  1.00  0.00    -0.648 OA
BRANCH   9  11
HETATM   11  O   UNK     1     -24.112  -4.124  -7.803  1.00  0.00    -0.775 OA
HETATM   12  H   UNK     1     -23.511  -3.787  -7.110  1.00  0.00     0.167 HD
ENDBRANCH   9  11
ENDBRANCH   1   9
BRANCH   1  13
HETATM   13  N   UNK     1     -21.746  -4.676  -8.682  1.00  0.00     0.093 N 
HETATM   14  H   UNK     1     -22.403  -5.112  -8.027  1.00  0.00     0.314 HD
HETATM   15  H   UNK     1     -21.169  -4.075  -8.091  1.00  0.00     0.314 HD
ENDBRANCH   1  13
TORSDOF 8
ENDMDL
MODEL 6
REMARK VINA RESULT:      -5.0      1.920      2.073
REMARK  8 active torsions:
REMARK  status: ('A' for Active; 'I' for Inactive)
REMARK    1  A    between atoms: C_1  and  C_2 
REMARK    2  A    between atoms: C_1  and  S_7 
REMARK    3  A    between atoms: C_2  and  C_3 
REMARK    4  A    between atoms: C_2  and  N_6 
REMARK    5  A    between atoms: C_3  and  O_5 
REMARK    6  A    between atoms: S_7  and  C_8 
REMARK    7  A    between atoms: C_8  and  C_9 
REMARK    8  A    between atoms: C_9  and  O_11 
ROOT
HETATM    1  C   UNK     1     -23.105  -3.607 -12.783  1.00  0.00     0.323 C 
ENDROOT
BRANCH   1   2
HETATM    2  C   UNK     1     -23.704  -3.058 -11.476  1.00  0.00     0.120 C 
BRANCH   2   3
HETATM    3  S   UNK     1     -23.998  -4.393 -10.244  1.00  0.00    -0.156 SA
BRANCH   3   4
HETATM    4  C   UNK     1     -22.380  -4.376  -9.406  1.00  0.00     0.183 C 
BRANCH   4   5
HETATM    5  C   UNK     1     -22.551  -4.068  -7.936  1.00  0.00     0.149 C 
HETATM    6  O   UNK     1     -21.641  -3.721  -7.200  1.00  0.00    -0.649 OA
BRANCH   5   7
HETATM    7  O   UNK     1     -23.825  -4.220  -7.497  1.00  0.00    -0.776 OA
HETATM    8  H   UNK     1     -24.095  -5.162  -7.498  1.00  0.00     0.167 HD
ENDBRANCH   5   7
ENDBRANCH   4   5
ENDBRANCH   3   4
ENDBRANCH   2   3
ENDBRANCH   1   2
BRANCH   1   9
HETATM    9  C   UNK     1     -23.603  -2.738 -13.948  1.00  0.00     0.174 C 
HETATM   10  O   UNK     1     -23.204  -2.850 -15.100  1.00  0.00    -0.648 OA
BRANCH   9  11
HETATM   11  O   UNK     1     -24.533  -1.823 -13.596  1.00  0.00    -0.775 OA
HETATM   12  H   UNK     1     -24.669  -1.711 -12.634  1.00  0.00     0.167 HD
ENDBRANCH   9  11
ENDBRANCH   1   9
BRANCH   1  13
HETATM   13  N   UNK     1     -21.623  -3.607 -12.771  1.00  0.00     0.093 N 
HETATM   14  H   UNK     1     -21.316  -3.348 -11.828  1.00  0.00     0.314 HD
HETATM   15  H   UNK     1     -21.287  -2.843 -13.360  1.00  0.00     0.314 HD
ENDBRANCH   1  13
TORSDOF 8
ENDMDL
MODEL 7
REMARK VINA RESULT:      -4.8      2.188      5.240
REMARK  8 active torsions:
REMARK  status: ('A' for Active; 'I' for Inactive)
REMARK    1  A    between atoms: C_1  and  C_2 
REMARK    2  A    between atoms: C_1  and  S_7 
REMARK    3  A    between atoms: C_2  and  C_3 
REMARK    4  A    between atoms: C_2  and  N_6 
REMARK    5  A    between atoms: C_3  and  O_5 
REMARK    6  A    between atoms: S_7  and  C_8 
REMARK    7  A    between atoms: C_8  and  C_9 
REMARK    8  A    between atoms: C_9  and  O_11 
ROOT
HETATM    1  C   UNK     1     -22.007  -3.403 -11.017  1.00  0.00     0.323 C 
ENDROOT
BRANCH   1   2
HETATM    2  C   UNK     1     -23.139  -4.151 -11.744  1.00  0.00     0.120 C 
BRANCH   2   3
HETATM    3  S   UNK     1     -24.191  -3.008 -12.730  1.00  0.00    -0.156 SA
BRANCH   3   4
HETATM    4  C   UNK     1     -23.074  -2.734 -14.144  1.00  0.00     0.183 C 
BRANCH   4   5
HETATM    5  C   UNK     1     -23.534  -1.544 -14.956  1.00  0.00     0.149 C 
HETATM    6  O   UNK     1     -24.564  -0.926 -14.738  1.00  0.00    -0.649 OA
BRANCH   5   7
HETATM    7  O   UNK     1     -22.692  -1.223 -15.968  1.00  0.00    -0.776 OA
HETATM    8  H   UNK     1     -21.884  -1.779 -15.954  1.00  0.00     0.167 HD
ENDBRANCH   5   7
ENDBRANCH   4   5
ENDBRANCH   3   4
ENDBRANCH   2   3
ENDBRANCH   1   2
BRANCH   1   9
HETATM    9  C   UNK     1     -21.981  -3.867  -9.552  1.00  0.00     0.174 C 
HETATM   10  O   UNK     1     -22.900  -3.687  -8.764  1.00  0.00    -0.648 OA
BRANCH   9  11
HETATM   11  O   UNK     1     -20.842  -4.501  -9.195  1.00  0.00    -0.775 OA
HETATM   12  H   UNK     1     -20.815  -5.459  -9.390  1.00  0.00     0.167 HD
ENDBRANCH   9  11
ENDBRANCH   1   9
BRANCH   1  13
HETATM   13  N   UNK     1     -20.681  -3.648 -11.631  1.00  0.00     0.093 N 
HETATM   14  H   UNK     1     -20.229  -4.408 -11.113  1.00  0.00     0.314 HD
HETATM   15  H   UNK     1     -20.081  -2.840 -11.458  1.00  0.00     0.314 HD
ENDBRANCH   1  13
TORSDOF 8
ENDMDL
MODEL 8
REMARK VINA RESULT:      -4.7     17.350     18.506
REMARK  8 active torsions:
REMARK  status: ('A' for Active; 'I' for Inactive)
REMARK    1  A    between atoms: C_1  and  C_2 
REMARK    2  A    between atoms: C_1  and  S_7 
REMARK    3  A    between atoms: C_2  and  C_3 
REMARK    4  A    between atoms: C_2  and  N_6 
REMARK    5  A    between atoms: C_3  and  O_5 
REMARK    6  A    between atoms: S_7  and  C_8 
REMARK    7  A    between atoms: C_8  and  C_9 
REMARK    8  A    between atoms: C_9  and  O_11 
ROOT
HETATM    1  C   UNK     1     -10.947   5.155 -20.265  1.00  0.00     0.323 C 
ENDROOT
BRANCH   1   2
HETATM    2  C   UNK     1     -12.153   6.058 -19.951  1.00  0.00     0.120 C 
BRANCH   2   3
HETATM    3  S   UNK     1     -12.145   7.590 -20.972  1.00  0.00    -0.156 SA
BRANCH   3   4
HETATM    4  C   UNK     1     -12.011   8.826 -19.639  1.00  0.00     0.183 C 
BRANCH   4   5
HETATM    5  C   UNK     1     -10.559   9.140 -19.356  1.00  0.00     0.149 C 
HETATM    6  O   UNK     1      -9.794   9.626 -20.175  1.00  0.00    -0.649 OA
BRANCH   5   7
HETATM    7  O   UNK     1     -10.174   8.824 -18.096  1.00  0.00    -0.776 OA
HETATM    8  H   UNK     1     -10.556   9.441 -17.438  1.00  0.00     0.167 HD
ENDBRANCH   5   7
ENDBRANCH   4   5
ENDBRANCH   3   4
ENDBRANCH   2   3
ENDBRANCH   1   2
BRANCH   1   9
HETATM    9  C   UNK     1      -9.700   5.763 -19.605  1.00  0.00     0.174 C 
HETATM   10  O   UNK     1      -8.747   6.207 -20.230  1.00  0.00    -0.648 OA
BRANCH   9  11
HETATM   11  O   UNK     1      -9.738   5.766 -18.253  1.00  0.00    -0.775 OA
HETATM   12  H   UNK     1     -10.448   6.307 -17.855  1.00  0.00     0.167 HD
ENDBRANCH   9  11
ENDBRANCH   1   9
BRANCH   1  13
HETATM   13  N   UNK     1     -11.134   3.769 -19.774  1.00  0.00     0.093 N 
HETATM   14  H   UNK     1     -10.397   3.187 -20.185  1.00  0.00     0.314 HD
HETATM   15  H   UNK     1     -11.997   3.391 -20.169  1.00  0.00     0.314 HD
ENDBRANCH   1  13
TORSDOF 8
ENDMDL
MODEL 9
REMARK VINA RESULT:      -4.6      2.931      5.149
REMARK  8 active torsions:
REMARK  status: ('A' for Active; 'I' for Inactive)
REMARK    1  A    between atoms: C_1  and  C_2 
REMARK    2  A    between atoms: C_1  and  S_7 
REMARK    3  A    between atoms: C_2  and  C_3 
REMARK    4  A    between atoms: C_2  and  N_6 
REMARK    5  A    between atoms: C_3  and  O_5 
REMARK    6  A    between atoms: S_7  and  C_8 
REMARK    7  A    between atoms: C_8  and  C_9 
REMARK    8  A    between atoms: C_9  and  O_11 
ROOT
HETATM    1  C   UNK     1     -22.309  -4.404  -9.001  1.00  0.00     0.323 C 
ENDROOT
BRANCH   1   2
HETATM    2  C   UNK     1     -22.893  -3.524 -10.120  1.00  0.00     0.120 C 
BRANCH   2   3
HETATM    3  S   UNK     1     -23.584  -4.534 -11.495  1.00  0.00    -0.156 SA
BRANCH   3   4
HETATM    4  C   UNK     1     -24.197  -3.190 -12.562  1.00  0.00     0.183 C 
BRANCH   4   5
HETATM    5  C   UNK     1     -23.307  -3.031 -13.774  1.00  0.00     0.149 C 
HETATM    6  O   UNK     1     -23.704  -2.674 -14.872  1.00  0.00    -0.649 OA
BRANCH   5   7
HETATM    7  O   UNK     1     -22.007  -3.330 -13.532  1.00  0.00    -0.776 OA
HETATM    8  H   UNK     1     -21.921  -4.078 -12.904  1.00  0.00     0.167 HD
ENDBRANCH   5   7
ENDBRANCH   4   5
ENDBRANCH   3   4
ENDBRANCH   2   3
ENDBRANCH   1   2
BRANCH   1   9
HETATM    9  C   UNK     1     -20.781  -4.431  -9.152  1.00  0.00     0.174 C 
HETATM   10  O   UNK     1     -20.204  -4.582 -10.221  1.00  0.00    -0.648 OA
BRANCH   9  11
HETATM   11  O   UNK     1     -20.109  -4.274  -7.990  1.00  0.00    -0.775 OA
HETATM   12  H   UNK     1     -20.028  -5.078  -7.439  1.00  0.00     0.167 HD
ENDBRANCH   9  11
ENDBRANCH   1   9
BRANCH   1  13
HETATM   13  N   UNK     1     -22.658  -3.907  -7.649  1.00  0.00     0.093 N 
HETATM   14  H   UNK     1     -22.480  -4.663  -6.980  1.00  0.00     0.314 HD
HETATM   15  H   UNK     1     -23.668  -3.765  -7.599  1.00  0.00     0.314 HD
ENDBRANCH   1  13
TORSDOF 8
ENDMDL
