MODEL 1
REMARK VINA RESULT:      -5.1      0.000      0.000
REMARK WARNING: 32 MAX_TORS EXCEEDED!!!
REMARK  36 active torsions:
REMARK  status: ('A' for Active; 'I' for Inactive)
REMARK    1  A    between atoms: C_2  and  C_3 
REMARK    2  A    between atoms: C_2  and  O_55 
REMARK    3  A    between atoms: C_3  and  O_4 
REMARK    4  A    between atoms: O_4  and  C_5 
REMARK    5  A    between atoms: C_5  and  C_6 
REMARK    6  A    between atoms: C_7  and  O_50 
REMARK    7  A    between atoms: C_8  and  O_45 
REMARK    8  A    between atoms: C_9  and  O_40 
REMARK    9  A    between atoms: C_10  and  O_12 
REMARK   10  A    between atoms: O_12  and  C_13 
REMARK   11  A    between atoms: C_14  and  C_34 
REMARK   12  A    between atoms: C_16  and  O_29 
REMARK   13  A    between atoms: C_17  and  O_24 
REMARK   14  A    between atoms: C_18  and  O_19 
REMARK   15  A    between atoms: O_19  and  C_20 
REMARK   16  A    between atoms: C_20  and  C_21 
REMARK   17  A    between atoms: C_21  and  O_23 
REMARK   18  A    between atoms: O_24  and  C_25 
REMARK   19  A    between atoms: C_25  and  C_26 
REMARK   20  A    between atoms: C_26  and  O_28 
REMARK   21  A    between atoms: O_29  and  C_30 
REMARK   22  A    between atoms: C_30  and  C_31 
REMARK   23  A    between atoms: C_31  and  O_33 
REMARK   24  A    between atoms: C_34  and  O_35 
REMARK   25  A    between atoms: O_35  and  C_36 
REMARK   26  A    between atoms: C_36  and  C_37 
REMARK   27  A    between atoms: C_37  and  O_39 
REMARK   28  A    between atoms: O_40  and  C_41 
REMARK   29  A    between atoms: C_41  and  C_42 
REMARK   30  A    between atoms: C_42  and  O_44 
REMARK   31  A    between atoms: O_45  and  C_46 
REMARK   32  A    between atoms: C_46  and  C_47 
REMARK   33  A    between atoms: C_47  and  O_49 
REMARK   34  A    between atoms: O_50  and  C_51 
REMARK   35  A    between atoms: C_51  and  C_52 
REMARK   36  A    between atoms: C_52  and  O_54 
ROOT
HETATM    1  O   UNL     1     -18.872 -11.259  -1.855  1.00  0.00    -0.348 OA
ENDROOT
BRANCH   1   2
HETATM    2  C   UNL     1     -19.851 -10.623  -2.692  1.00  0.00     0.292 C 
HETATM    3  C   UNL     1     -19.820 -11.116  -4.173  1.00  0.00     0.208 C 
HETATM    4  C   UNL     1     -20.870 -10.255  -4.942  1.00  0.00     0.186 C 
HETATM    5  C   UNL     1     -20.355  -8.805  -4.947  1.00  0.00     0.184 C 
HETATM    6  C   UNL     1     -20.309  -8.311  -3.489  1.00  0.00     0.180 C 
HETATM    7  O   UNL     1     -19.876  -9.224  -2.480  1.00  0.00    -0.348 OA
BRANCH   3   8
HETATM    8  O   UNL     1     -18.538 -11.351  -4.785  1.00  0.00    -0.376 OA
BRANCH   8   9
HETATM    9  C   UNL     1     -18.199 -12.511  -5.521  1.00  0.00     0.199 C 
BRANCH   9  10
HETATM   10  C   UNL     1     -17.742 -12.272  -6.960  1.00  0.00     0.138 C 
HETATM   11  C   UNL     1     -17.541 -13.598  -7.646  1.00  0.00     0.041 C 
BRANCH  10  12
HETATM   12  O   UNL     1     -18.680 -11.439  -7.636  1.00  0.00    -0.394 OA
HETATM   13  H   UNL     1     -18.886 -11.844  -8.495  1.00  0.00     0.210 HD
ENDBRANCH  10  12
ENDBRANCH   9  10
ENDBRANCH   8   9
ENDBRANCH   3   8
BRANCH   4  14
HETATM   14  O   UNL     1     -21.180 -10.836  -6.214  1.00  0.00    -0.378 OA
BRANCH  14  15
HETATM   15  C   UNL     1     -22.097 -11.940  -6.100  1.00  0.00     0.199 C 
BRANCH  15  16
HETATM   16  C   UNL     1     -21.469 -13.247  -6.601  1.00  0.00     0.138 C 
HETATM   17  C   UNL     1     -22.418 -14.431  -6.537  1.00  0.00     0.041 C 
BRANCH  16  18
HETATM   18  O   UNL     1     -21.012 -13.087  -7.946  1.00  0.00    -0.394 OA
HETATM   19  H   UNL     1     -21.336 -12.220  -8.252  1.00  0.00     0.210 HD
ENDBRANCH  16  18
ENDBRANCH  15  16
ENDBRANCH  14  15
ENDBRANCH   4  14
BRANCH   5  20
HETATM   20  O   UNL     1     -21.022  -7.857  -5.809  1.00  0.00    -0.378 OA
BRANCH  20  21
HETATM   21  C   UNL     1     -20.128  -6.744  -6.074  1.00  0.00     0.199 C 
BRANCH  21  22
HETATM   22  C   UNL     1     -20.800  -5.389  -5.846  1.00  0.00     0.138 C 
HETATM   23  C   UNL     1     -20.425  -4.438  -6.979  1.00  0.00     0.041 C 
BRANCH  22  24
HETATM   24  O   UNL     1     -22.222  -5.506  -5.820  1.00  0.00    -0.394 OA
HETATM   25  H   UNL     1     -22.572  -4.863  -5.179  1.00  0.00     0.210 HD
ENDBRANCH  22  24
ENDBRANCH  21  22
ENDBRANCH  20  21
ENDBRANCH   5  20
BRANCH   6  26
HETATM   26  C   UNL     1     -21.652  -7.678  -3.118  1.00  0.00     0.202 C 
BRANCH  26  27
HETATM   27  O   UNL     1     -22.081  -8.172  -1.855  1.00  0.00    -0.386 OA
BRANCH  27  28
HETATM   28  C   UNL     1     -22.298  -7.083  -0.953  1.00  0.00     0.199 C 
BRANCH  28  29
HETATM   29  C   UNL     1     -22.368  -7.644   0.463  1.00  0.00     0.138 C 
HETATM   30  C   UNL     1     -21.428  -8.825   0.657  1.00  0.00     0.041 C 
BRANCH  29  31
HETATM   31  O   UNL     1     -23.707  -8.077   0.714  1.00  0.00    -0.394 OA
HETATM   32  H   UNL     1     -24.279  -7.389   0.323  1.00  0.00     0.210 HD
ENDBRANCH  29  31
ENDBRANCH  28  29
ENDBRANCH  27  28
ENDBRANCH  26  27
ENDBRANCH   6  26
ENDBRANCH   1   2
BRANCH   1  33
HETATM   33  C   UNL     1     -19.073 -12.671  -1.522  1.00  0.00     0.187 C 
HETATM   34  C   UNL     1     -17.818 -13.605  -1.748  1.00  0.00     0.180 C 
HETATM   35  O   UNL     1     -17.784 -14.784  -0.917  1.00  0.00    -0.348 OA
HETATM   36  C   UNL     1     -17.991 -14.500   0.456  1.00  0.00     0.291 C 
HETATM   37  C   UNL     1     -19.482 -14.136   0.621  1.00  0.00     0.208 C 
HETATM   38  C   UNL     1     -19.664 -12.750  -0.060  1.00  0.00     0.186 C 
BRANCH  34  39
HETATM   39  C   UNL     1     -16.383 -13.026  -1.798  1.00  0.00     0.202 C 
BRANCH  39  40
HETATM   40  O   UNL     1     -16.118 -12.171  -2.922  1.00  0.00    -0.386 OA
BRANCH  40  41
HETATM   41  C   UNL     1     -15.407 -10.997  -2.491  1.00  0.00     0.199 C 
BRANCH  41  42
HETATM   42  C   UNL     1     -15.698  -9.747  -3.337  1.00  0.00     0.138 C 
HETATM   43  C   UNL     1     -15.564  -9.960  -4.839  1.00  0.00     0.041 C 
BRANCH  42  44
HETATM   44  O   UNL     1     -17.035  -9.305  -3.062  1.00  0.00    -0.394 OA
HETATM   45  H   UNL     1     -17.650 -10.027  -3.276  1.00  0.00     0.210 HD
ENDBRANCH  42  44
ENDBRANCH  41  42
ENDBRANCH  40  41
ENDBRANCH  39  40
ENDBRANCH  34  39
BRANCH  36  46
HETATM   46  O   UNL     1     -17.689 -15.619   1.294  1.00  0.00    -0.356 OA
BRANCH  46  47
HETATM   47  C   UNL     1     -16.313 -16.000   1.274  1.00  0.00     0.202 C 
BRANCH  47  48
HETATM   48  C   UNL     1     -15.760 -15.955   2.710  1.00  0.00     0.138 C 
HETATM   49  C   UNL     1     -15.463 -14.541   3.196  1.00  0.00     0.041 C 
BRANCH  48  50
HETATM   50  O   UNL     1     -16.693 -16.546   3.615  1.00  0.00    -0.394 OA
HETATM   51  H   UNL     1     -17.300 -15.838   3.896  1.00  0.00     0.210 HD
ENDBRANCH  48  50
ENDBRANCH  47  48
ENDBRANCH  46  47
ENDBRANCH  36  46
BRANCH  37  52
HETATM   52  O   UNL     1     -20.406 -15.147   0.094  1.00  0.00    -0.376 OA
BRANCH  52  53
HETATM   53  C   UNL     1     -21.207 -15.741   1.141  1.00  0.00     0.199 C 
BRANCH  53  54
HETATM   54  C   UNL     1     -22.603 -15.122   1.312  1.00  0.00     0.138 C 
HETATM   55  C   UNL     1     -23.633 -16.078   1.886  1.00  0.00     0.041 C 
BRANCH  54  56
HETATM   56  O   UNL     1     -22.536 -13.969   2.149  1.00  0.00    -0.394 OA
HETATM   57  H   UNL     1     -21.731 -14.075   2.690  1.00  0.00     0.210 HD
ENDBRANCH  54  56
ENDBRANCH  53  54
ENDBRANCH  52  53
ENDBRANCH  37  52
BRANCH  38  58
HETATM   58  O   UNL     1     -21.064 -12.305   0.016  1.00  0.00    -0.378 OA
BRANCH  58  59
HETATM   59  C   UNL     1     -21.807 -12.668  -1.166  1.00  0.00     0.199 C 
BRANCH  59  60
HETATM   60  C   UNL     1     -23.196 -12.010  -1.333  1.00  0.00     0.138 C 
HETATM   61  C   UNL     1     -23.874 -11.542  -0.059  1.00  0.00     0.041 C 
BRANCH  60  62
HETATM   62  O   UNL     1     -23.155 -10.930  -2.263  1.00  0.00    -0.394 OA
HETATM   63  H   UNL     1     -23.779 -11.142  -2.983  1.00  0.00     0.210 HD
ENDBRANCH  60  62
ENDBRANCH  59  60
ENDBRANCH  58  59
ENDBRANCH  38  58
ENDBRANCH   1  33
TORSDOF 36
ENDMDL
MODEL 2
REMARK VINA RESULT:      -5.0      2.089      8.231
REMARK WARNING: 32 MAX_TORS EXCEEDED!!!
REMARK  36 active torsions:
REMARK  status: ('A' for Active; 'I' for Inactive)
REMARK    1  A    between atoms: C_2  and  C_3 
REMARK    2  A    between atoms: C_2  and  O_55 
REMARK    3  A    between atoms: C_3  and  O_4 
REMARK    4  A    between atoms: O_4  and  C_5 
REMARK    5  A    between atoms: C_5  and  C_6 
REMARK    6  A    between atoms: C_7  and  O_50 
REMARK    7  A    between atoms: C_8  and  O_45 
REMARK    8  A    between atoms: C_9  and  O_40 
REMARK    9  A    between atoms: C_10  and  O_12 
REMARK   10  A    between atoms: O_12  and  C_13 
REMARK   11  A    between atoms: C_14  and  C_34 
REMARK   12  A    between atoms: C_16  and  O_29 
REMARK   13  A    between atoms: C_17  and  O_24 
REMARK   14  A    between atoms: C_18  and  O_19 
REMARK   15  A    between atoms: O_19  and  C_20 
REMARK   16  A    between atoms: C_20  and  C_21 
REMARK   17  A    between atoms: C_21  and  O_23 
REMARK   18  A    between atoms: O_24  and  C_25 
REMARK   19  A    between atoms: C_25  and  C_26 
REMARK   20  A    between atoms: C_26  and  O_28 
REMARK   21  A    between atoms: O_29  and  C_30 
REMARK   22  A    between atoms: C_30  and  C_31 
REMARK   23  A    between atoms: C_31  and  O_33 
REMARK   24  A    between atoms: C_34  and  O_35 
REMARK   25  A    between atoms: O_35  and  C_36 
REMARK   26  A    between atoms: C_36  and  C_37 
REMARK   27  A    between atoms: C_37  and  O_39 
REMARK   28  A    between atoms: O_40  and  C_41 
REMARK   29  A    between atoms: C_41  and  C_42 
REMARK   30  A    between atoms: C_42  and  O_44 
REMARK   31  A    between atoms: O_45  and  C_46 
REMARK   32  A    between atoms: C_46  and  C_47 
REMARK   33  A    between atoms: C_47  and  O_49 
REMARK   34  A    between atoms: O_50  and  C_51 
REMARK   35  A    between atoms: C_51  and  C_52 
REMARK   36  A    between atoms: C_52  and  O_54 
ROOT
HETATM    1  O   UNL     1     -20.152 -13.016  -5.557  1.00  0.00    -0.348 OA
ENDROOT
BRANCH   1   2
HETATM    2  C   UNL     1     -19.173 -13.360  -4.562  1.00  0.00     0.292 C 
HETATM    3  C   UNL     1     -17.708 -13.357  -5.101  1.00  0.00     0.208 C 
HETATM    4  C   UNL     1     -16.809 -13.843  -3.923  1.00  0.00     0.186 C 
HETATM    5  C   UNL     1     -17.175 -15.311  -3.646  1.00  0.00     0.184 C 
HETATM    6  C   UNL     1     -18.641 -15.357  -3.176  1.00  0.00     0.180 C 
HETATM    7  O   UNL     1     -19.581 -14.489  -3.812  1.00  0.00    -0.348 OA
BRANCH   3   8
HETATM    8  O   UNL     1     -17.467 -13.885  -6.419  1.00  0.00    -0.376 OA
BRANCH   8   9
HETATM    9  C   UNL     1     -17.020 -13.120  -7.522  1.00  0.00     0.199 C 
BRANCH   9  10
HETATM   10  C   UNL     1     -17.992 -13.021  -8.698  1.00  0.00     0.138 C 
HETATM   11  C   UNL     1     -18.513 -14.396  -9.030  1.00  0.00     0.041 C 
BRANCH  10  12
HETATM   12  O   UNL     1     -19.032 -12.097  -8.392  1.00  0.00    -0.394 OA
HETATM   13  H   UNL     1     -19.407 -11.772  -9.227  1.00  0.00     0.210 HD
ENDBRANCH  10  12
ENDBRANCH   9  10
ENDBRANCH   8   9
ENDBRANCH   3   8
BRANCH   4  14
HETATM   14  O   UNL     1     -15.428 -13.557  -4.177  1.00  0.00    -0.378 OA
BRANCH  14  15
HETATM   15  C   UNL     1     -14.814 -12.831  -3.096  1.00  0.00     0.199 C 
BRANCH  15  16
HETATM   16  C   UNL     1     -15.755 -12.714  -1.890  1.00  0.00     0.138 C 
HETATM   17  C   UNL     1     -15.255 -13.460  -0.665  1.00  0.00     0.041 C 
BRANCH  16  18
HETATM   18  O   UNL     1     -15.951 -11.339  -1.553  1.00  0.00    -0.394 OA
HETATM   19  H   UNL     1     -15.258 -10.834  -2.016  1.00  0.00     0.210 HD
ENDBRANCH  16  18
ENDBRANCH  15  16
ENDBRANCH  14  15
ENDBRANCH   4  14
BRANCH   5  20
HETATM   20  O   UNL     1     -16.312 -16.066  -2.767  1.00  0.00    -0.378 OA
BRANCH  20  21
HETATM   21  C   UNL     1     -15.745 -17.183  -3.500  1.00  0.00     0.199 C 
BRANCH  21  22
HETATM   22  C   UNL     1     -14.257 -16.989  -3.799  1.00  0.00     0.138 C 
HETATM   23  C   UNL     1     -14.074 -16.649  -5.275  1.00  0.00     0.041 C 
BRANCH  22  24
HETATM   24  O   UNL     1     -13.701 -15.924  -3.028  1.00  0.00    -0.394 OA
HETATM   25  H   UNL     1     -13.500 -15.184  -3.626  1.00  0.00     0.210 HD
ENDBRANCH  22  24
ENDBRANCH  21  22
ENDBRANCH  20  21
ENDBRANCH   5  20
BRANCH   6  26
HETATM   26  C   UNL     1     -18.698 -15.208  -1.654  1.00  0.00     0.202 C 
BRANCH  26  27
HETATM   27  O   UNL     1     -19.233 -13.934  -1.317  1.00  0.00    -0.386 OA
BRANCH  27  28
HETATM   28  C   UNL     1     -18.912 -13.611   0.038  1.00  0.00     0.199 C 
BRANCH  28  29
HETATM   29  C   UNL     1     -19.032 -12.102   0.212  1.00  0.00     0.138 C 
HETATM   30  C   UNL     1     -19.270 -11.391  -1.113  1.00  0.00     0.041 C 
BRANCH  29  31
HETATM   31  O   UNL     1     -17.815 -11.613   0.781  1.00  0.00    -0.394 OA
HETATM   32  H   UNL     1     -17.123 -11.811   0.121  1.00  0.00     0.210 HD
ENDBRANCH  29  31
ENDBRANCH  28  29
ENDBRANCH  27  28
ENDBRANCH  26  27
ENDBRANCH   6  26
ENDBRANCH   1   2
BRANCH   1  33
HETATM   33  C   UNL     1     -20.795 -11.705  -5.457  1.00  0.00     0.187 C 
HETATM   34  C   UNL     1     -22.031 -11.630  -4.475  1.00  0.00     0.180 C 
HETATM   35  O   UNL     1     -22.286 -10.323  -3.921  1.00  0.00    -0.348 OA
HETATM   36  C   UNL     1     -21.129  -9.722  -3.363  1.00  0.00     0.291 C 
HETATM   37  C   UNL     1     -20.222  -9.309  -4.541  1.00  0.00     0.208 C 
HETATM   38  C   UNL     1     -19.678 -10.633  -5.149  1.00  0.00     0.186 C 
BRANCH  34  39
HETATM   39  C   UNL     1     -22.218 -12.665  -3.337  1.00  0.00     0.202 C 
BRANCH  39  40
HETATM   40  O   UNL     1     -23.118 -12.256  -2.295  1.00  0.00    -0.386 OA
BRANCH  40  41
HETATM   41  C   UNL     1     -23.449 -13.381  -1.461  1.00  0.00     0.199 C 
BRANCH  41  42
HETATM   42  C   UNL     1     -22.551 -13.522  -0.221  1.00  0.00     0.138 C 
HETATM   43  C   UNL     1     -23.237 -13.175   1.093  1.00  0.00     0.041 C 
BRANCH  42  44
HETATM   44  O   UNL     1     -22.084 -14.877  -0.142  1.00  0.00    -0.394 OA
HETATM   45  H   UNL     1     -22.724 -15.453  -0.594  1.00  0.00     0.210 HD
ENDBRANCH  42  44
ENDBRANCH  41  42
ENDBRANCH  40  41
ENDBRANCH  39  40
ENDBRANCH  34  39
BRANCH  36  46
HETATM   46  O   UNL     1     -21.439  -8.563  -2.585  1.00  0.00    -0.356 OA
BRANCH  46  47
HETATM   47  C   UNL     1     -22.002  -8.860  -1.307  1.00  0.00     0.202 C 
BRANCH  47  48
HETATM   48  C   UNL     1     -22.243  -7.543  -0.547  1.00  0.00     0.138 C 
HETATM   49  C   UNL     1     -22.290  -6.323  -1.460  1.00  0.00     0.041 C 
BRANCH  48  50
HETATM   50  O   UNL     1     -23.477  -7.606   0.168  1.00  0.00    -0.394 OA
HETATM   51  H   UNL     1     -23.646  -6.712   0.517  1.00  0.00     0.210 HD
ENDBRANCH  48  50
ENDBRANCH  47  48
ENDBRANCH  46  47
ENDBRANCH  36  46
BRANCH  37  52
HETATM   52  O   UNL     1     -20.887  -8.464  -5.539  1.00  0.00    -0.376 OA
BRANCH  52  53
HETATM   53  C   UNL     1     -20.349  -7.122  -5.551  1.00  0.00     0.199 C 
BRANCH  53  54
HETATM   54  C   UNL     1     -21.376  -6.015  -5.265  1.00  0.00     0.138 C 
HETATM   55  C   UNL     1     -21.656  -5.114  -6.455  1.00  0.00     0.041 C 
BRANCH  54  56
HETATM   56  O   UNL     1     -22.608  -6.583  -4.825  1.00  0.00    -0.394 OA
HETATM   57  H   UNL     1     -23.125  -6.764  -5.632  1.00  0.00     0.210 HD
ENDBRANCH  54  56
ENDBRANCH  53  54
ENDBRANCH  52  53
ENDBRANCH  37  52
BRANCH  38  58
HETATM   58  O   UNL     1     -18.809 -10.364  -6.306  1.00  0.00    -0.378 OA
BRANCH  58  59
HETATM   59  C   UNL     1     -17.679  -9.543  -5.948  1.00  0.00     0.199 C 
BRANCH  59  60
HETATM   60  C   UNL     1     -16.628 -10.188  -5.016  1.00  0.00     0.138 C 
HETATM   61  C   UNL     1     -15.210 -10.262  -5.552  1.00  0.00     0.041 C 
BRANCH  60  62
HETATM   62  O   UNL     1     -16.609  -9.562  -3.735  1.00  0.00    -0.394 OA
HETATM   63  H   UNL     1     -16.665  -8.599  -3.880  1.00  0.00     0.210 HD
ENDBRANCH  60  62
ENDBRANCH  59  60
ENDBRANCH  58  59
ENDBRANCH  38  58
ENDBRANCH   1  33
TORSDOF 36
ENDMDL
MODEL 3
REMARK VINA RESULT:      -5.0      1.534      2.010
REMARK WARNING: 32 MAX_TORS EXCEEDED!!!
REMARK  36 active torsions:
REMARK  status: ('A' for Active; 'I' for Inactive)
REMARK    1  A    between atoms: C_2  and  C_3 
REMARK    2  A    between atoms: C_2  and  O_55 
REMARK    3  A    between atoms: C_3  and  O_4 
REMARK    4  A    between atoms: O_4  and  C_5 
REMARK    5  A    between atoms: C_5  and  C_6 
REMARK    6  A    between atoms: C_7  and  O_50 
REMARK    7  A    between atoms: C_8  and  O_45 
REMARK    8  A    between atoms: C_9  and  O_40 
REMARK    9  A    between atoms: C_10  and  O_12 
REMARK   10  A    between atoms: O_12  and  C_13 
REMARK   11  A    between atoms: C_14  and  C_34 
REMARK   12  A    between atoms: C_16  and  O_29 
REMARK   13  A    between atoms: C_17  and  O_24 
REMARK   14  A    between atoms: C_18  and  O_19 
REMARK   15  A    between atoms: O_19  and  C_20 
REMARK   16  A    between atoms: C_20  and  C_21 
REMARK   17  A    between atoms: C_21  and  O_23 
REMARK   18  A    between atoms: O_24  and  C_25 
REMARK   19  A    between atoms: C_25  and  C_26 
REMARK   20  A    between atoms: C_26  and  O_28 
REMARK   21  A    between atoms: O_29  and  C_30 
REMARK   22  A    between atoms: C_30  and  C_31 
REMARK   23  A    between atoms: C_31  and  O_33 
REMARK   24  A    between atoms: C_34  and  O_35 
REMARK   25  A    between atoms: O_35  and  C_36 
REMARK   26  A    between atoms: C_36  and  C_37 
REMARK   27  A    between atoms: C_37  and  O_39 
REMARK   28  A    between atoms: O_40  and  C_41 
REMARK   29  A    between atoms: C_41  and  C_42 
REMARK   30  A    between atoms: C_42  and  O_44 
REMARK   31  A    between atoms: O_45  and  C_46 
REMARK   32  A    between atoms: C_46  and  C_47 
REMARK   33  A    between atoms: C_47  and  O_49 
REMARK   34  A    between atoms: O_50  and  C_51 
REMARK   35  A    between atoms: C_51  and  C_52 
REMARK   36  A    between atoms: C_52  and  O_54 
ROOT
HETATM    1  O   UNL     1     -18.550 -11.224  -1.855  1.00  0.00    -0.348 OA
ENDROOT
BRANCH   1   2
HETATM    2  C   UNL     1     -19.553 -10.643  -2.705  1.00  0.00     0.292 C 
HETATM    3  C   UNL     1     -19.406 -11.046  -4.207  1.00  0.00     0.208 C 
HETATM    4  C   UNL     1     -20.504 -10.253  -4.980  1.00  0.00     0.186 C 
HETATM    5  C   UNL     1     -20.142  -8.761  -4.885  1.00  0.00     0.184 C 
HETATM    6  C   UNL     1     -20.210  -8.348  -3.403  1.00  0.00     0.180 C 
HETATM    7  O   UNL     1     -19.730  -9.268  -2.422  1.00  0.00    -0.348 OA
BRANCH   3   8
HETATM    8  O   UNL     1     -18.081 -11.117  -4.766  1.00  0.00    -0.376 OA
BRANCH   8   9
HETATM    9  C   UNL     1     -17.495 -12.289  -5.300  1.00  0.00     0.199 C 
BRANCH   9  10
HETATM   10  C   UNL     1     -16.337 -12.067  -6.272  1.00  0.00     0.138 C 
HETATM   11  C   UNL     1     -15.565 -10.841  -5.857  1.00  0.00     0.041 C 
BRANCH  10  12
HETATM   12  O   UNL     1     -15.524 -13.235  -6.333  1.00  0.00    -0.394 OA
HETATM   13  H   UNL     1     -15.681 -13.760  -5.531  1.00  0.00     0.210 HD
ENDBRANCH  10  12
ENDBRANCH   9  10
ENDBRANCH   8   9
ENDBRANCH   3   8
BRANCH   4  14
HETATM   14  O   UNL     1     -20.697 -10.790  -6.294  1.00  0.00    -0.378 OA
BRANCH  14  15
HETATM   15  C   UNL     1     -21.573 -11.933  -6.293  1.00  0.00     0.199 C 
BRANCH  15  16
HETATM   16  C   UNL     1     -20.980 -13.097  -7.098  1.00  0.00     0.138 C 
HETATM   17  C   UNL     1     -19.788 -12.693  -7.947  1.00  0.00     0.041 C 
BRANCH  16  18
HETATM   18  O   UNL     1     -20.591 -14.153  -6.216  1.00  0.00    -0.394 OA
HETATM   19  H   UNL     1     -20.313 -13.735  -5.381  1.00  0.00     0.210 HD
ENDBRANCH  16  18
ENDBRANCH  15  16
ENDBRANCH  14  15
ENDBRANCH   4  14
BRANCH   5  20
HETATM   20  O   UNL     1     -20.864  -7.837  -5.728  1.00  0.00    -0.378 OA
BRANCH  20  21
HETATM   21  C   UNL     1     -20.035  -6.672  -5.978  1.00  0.00     0.199 C 
BRANCH  21  22
HETATM   22  C   UNL     1     -20.774  -5.361  -5.703  1.00  0.00     0.138 C 
HETATM   23  C   UNL     1     -20.488  -4.371  -6.828  1.00  0.00     0.041 C 
BRANCH  22  24
HETATM   24  O   UNL     1     -22.185  -5.558  -5.635  1.00  0.00    -0.394 OA
HETATM   25  H   UNL     1     -22.359  -6.365  -5.122  1.00  0.00     0.210 HD
ENDBRANCH  22  24
ENDBRANCH  21  22
ENDBRANCH  20  21
ENDBRANCH   5  20
BRANCH   6  26
HETATM   26  C   UNL     1     -21.627  -7.874  -3.067  1.00  0.00     0.202 C 
BRANCH  26  27
HETATM   27  O   UNL     1     -21.953  -8.251  -1.734  1.00  0.00    -0.386 OA
BRANCH  27  28
HETATM   28  C   UNL     1     -22.307  -7.094  -0.972  1.00  0.00     0.199 C 
BRANCH  28  29
HETATM   29  C   UNL     1     -22.451  -7.509   0.488  1.00  0.00     0.138 C 
HETATM   30  C   UNL     1     -21.364  -8.485   0.914  1.00  0.00     0.041 C 
BRANCH  29  31
HETATM   31  O   UNL     1     -23.723  -8.138   0.657  1.00  0.00    -0.394 OA
HETATM   32  H   UNL     1     -23.641  -8.672   1.471  1.00  0.00     0.210 HD
ENDBRANCH  29  31
ENDBRANCH  28  29
ENDBRANCH  27  28
ENDBRANCH  26  27
ENDBRANCH   6  26
ENDBRANCH   1   2
BRANCH   1  33
HETATM   33  C   UNL     1     -18.599 -12.671  -1.632  1.00  0.00     0.187 C 
HETATM   34  C   UNL     1     -17.195 -13.384  -1.507  1.00  0.00     0.180 C 
HETATM   35  O   UNL     1     -17.202 -14.603  -0.734  1.00  0.00    -0.348 OA
HETATM   36  C   UNL     1     -17.834 -14.456   0.526  1.00  0.00     0.291 C 
HETATM   37  C   UNL     1     -19.350 -14.335   0.259  1.00  0.00     0.208 C 
HETATM   38  C   UNL     1     -19.559 -12.946  -0.409  1.00  0.00     0.186 C 
BRANCH  34  39
HETATM   39  C   UNL     1     -15.921 -12.592  -1.121  1.00  0.00     0.202 C 
BRANCH  39  40
HETATM   40  O   UNL     1     -14.686 -13.205  -1.525  1.00  0.00    -0.386 OA
BRANCH  40  41
HETATM   41  C   UNL     1     -14.439 -12.944  -2.917  1.00  0.00     0.199 C 
BRANCH  41  42
HETATM   42  C   UNL     1     -13.088 -13.477  -3.420  1.00  0.00     0.138 C 
HETATM   43  C   UNL     1     -12.517 -14.622  -2.594  1.00  0.00     0.041 C 
BRANCH  42  44
HETATM   44  O   UNL     1     -13.246 -13.932  -4.772  1.00  0.00    -0.394 OA
HETATM   45  H   UNL     1     -13.654 -14.815  -4.756  1.00  0.00     0.210 HD
ENDBRANCH  42  44
ENDBRANCH  41  42
ENDBRANCH  40  41
ENDBRANCH  39  40
ENDBRANCH  34  39
BRANCH  36  46
HETATM   46  O   UNL     1     -17.600 -15.574   1.385  1.00  0.00    -0.356 OA
BRANCH  46  47
HETATM   47  C   UNL     1     -16.219 -15.823   1.645  1.00  0.00     0.202 C 
BRANCH  47  48
HETATM   48  C   UNL     1     -15.592 -14.565   2.273  1.00  0.00     0.138 C 
HETATM   49  C   UNL     1     -15.178 -14.763   3.727  1.00  0.00     0.041 C 
BRANCH  48  50
HETATM   50  O   UNL     1     -14.435 -14.170   1.536  1.00  0.00    -0.394 OA
HETATM   51  H   UNL     1     -13.671 -14.280   2.130  1.00  0.00     0.210 HD
ENDBRANCH  48  50
ENDBRANCH  47  48
ENDBRANCH  46  47
ENDBRANCH  36  46
BRANCH  37  52
HETATM   52  O   UNL     1     -19.904 -15.432  -0.542  1.00  0.00    -0.376 OA
BRANCH  52  53
HETATM   53  C   UNL     1     -20.996 -16.094   0.138  1.00  0.00     0.199 C 
BRANCH  53  54
HETATM   54  C   UNL     1     -22.246 -16.321  -0.726  1.00  0.00     0.138 C 
HETATM   55  C   UNL     1     -23.461 -16.784   0.060  1.00  0.00     0.041 C 
BRANCH  54  56
HETATM   56  O   UNL     1     -22.588 -15.129  -1.429  1.00  0.00    -0.394 OA
HETATM   57  H   UNL     1     -22.963 -15.416  -2.282  1.00  0.00     0.210 HD
ENDBRANCH  54  56
ENDBRANCH  53  54
ENDBRANCH  52  53
ENDBRANCH  37  52
BRANCH  38  58
HETATM   58  O   UNL     1     -20.976 -12.725  -0.733  1.00  0.00    -0.378 OA
BRANCH  58  59
HETATM   59  C   UNL     1     -21.656 -11.990   0.305  1.00  0.00     0.199 C 
BRANCH  59  60
HETATM   60  C   UNL     1     -23.201 -11.972   0.235  1.00  0.00     0.138 C 
HETATM   61  C   UNL     1     -23.810 -11.299  -0.981  1.00  0.00     0.041 C 
BRANCH  60  62
HETATM   62  O   UNL     1     -23.747 -13.283   0.365  1.00  0.00    -0.394 OA
HETATM   63  H   UNL     1     -24.515 -13.339  -0.233  1.00  0.00     0.210 HD
ENDBRANCH  60  62
ENDBRANCH  59  60
ENDBRANCH  58  59
ENDBRANCH  38  58
ENDBRANCH   1  33
TORSDOF 36
ENDMDL
MODEL 4
REMARK VINA RESULT:      -5.0      2.113      8.102
REMARK WARNING: 32 MAX_TORS EXCEEDED!!!
REMARK  36 active torsions:
REMARK  status: ('A' for Active; 'I' for Inactive)
REMARK    1  A    between atoms: C_2  and  C_3 
REMARK    2  A    between atoms: C_2  and  O_55 
REMARK    3  A    between atoms: C_3  and  O_4 
REMARK    4  A    between atoms: O_4  and  C_5 
REMARK    5  A    between atoms: C_5  and  C_6 
REMARK    6  A    between atoms: C_7  and  O_50 
REMARK    7  A    between atoms: C_8  and  O_45 
REMARK    8  A    between atoms: C_9  and  O_40 
REMARK    9  A    between atoms: C_10  and  O_12 
REMARK   10  A    between atoms: O_12  and  C_13 
REMARK   11  A    between atoms: C_14  and  C_34 
REMARK   12  A    between atoms: C_16  and  O_29 
REMARK   13  A    between atoms: C_17  and  O_24 
REMARK   14  A    between atoms: C_18  and  O_19 
REMARK   15  A    between atoms: O_19  and  C_20 
REMARK   16  A    between atoms: C_20  and  C_21 
REMARK   17  A    between atoms: C_21  and  O_23 
REMARK   18  A    between atoms: O_24  and  C_25 
REMARK   19  A    between atoms: C_25  and  C_26 
REMARK   20  A    between atoms: C_26  and  O_28 
REMARK   21  A    between atoms: O_29  and  C_30 
REMARK   22  A    between atoms: C_30  and  C_31 
REMARK   23  A    between atoms: C_31  and  O_33 
REMARK   24  A    between atoms: C_34  and  O_35 
REMARK   25  A    between atoms: O_35  and  C_36 
REMARK   26  A    between atoms: C_36  and  C_37 
REMARK   27  A    between atoms: C_37  and  O_39 
REMARK   28  A    between atoms: O_40  and  C_41 
REMARK   29  A    between atoms: C_41  and  C_42 
REMARK   30  A    between atoms: C_42  and  O_44 
REMARK   31  A    between atoms: O_45  and  C_46 
REMARK   32  A    between atoms: C_46  and  C_47 
REMARK   33  A    between atoms: C_47  and  O_49 
REMARK   34  A    between atoms: O_50  and  C_51 
REMARK   35  A    between atoms: C_51  and  C_52 
REMARK   36  A    between atoms: C_52  and  O_54 
ROOT
HETATM    1  O   UNL     1     -19.576 -11.915  -3.807  1.00  0.00    -0.348 OA
ENDROOT
BRANCH   1   2
HETATM    2  C   UNL     1     -18.459 -12.694  -3.348  1.00  0.00     0.292 C 
HETATM    3  C   UNL     1     -18.829 -14.170  -2.998  1.00  0.00     0.208 C 
HETATM    4  C   UNL     1     -17.531 -14.823  -2.433  1.00  0.00     0.186 C 
HETATM    5  C   UNL     1     -17.209 -14.121  -1.102  1.00  0.00     0.184 C 
HETATM    6  C   UNL     1     -16.905 -12.642  -1.405  1.00  0.00     0.180 C 
HETATM    7  O   UNL     1     -17.693 -11.980  -2.396  1.00  0.00    -0.348 OA
BRANCH   3   8
HETATM    8  O   UNL     1     -20.078 -14.417  -2.325  1.00  0.00    -0.376 OA
BRANCH   8   9
HETATM    9  C   UNL     1     -21.096 -15.272  -2.807  1.00  0.00     0.199 C 
BRANCH   9  10
HETATM   10  C   UNL     1     -22.423 -14.594  -3.152  1.00  0.00     0.138 C 
HETATM   11  C   UNL     1     -23.340 -14.657  -1.957  1.00  0.00     0.041 C 
BRANCH  10  12
HETATM   12  O   UNL     1     -22.186 -13.261  -3.594  1.00  0.00    -0.394 OA
HETATM   13  H   UNL     1     -23.005 -12.751  -3.480  1.00  0.00     0.210 HD
ENDBRANCH  10  12
ENDBRANCH   9  10
ENDBRANCH   8   9
ENDBRANCH   3   8
BRANCH   4  14
HETATM   14  O   UNL     1     -17.645 -16.251  -2.400  1.00  0.00    -0.378 OA
BRANCH  14  15
HETATM   15  C   UNL     1     -16.660 -16.896  -3.228  1.00  0.00     0.199 C 
BRANCH  15  16
HETATM   16  C   UNL     1     -15.816 -15.873  -3.999  1.00  0.00     0.138 C 
HETATM   17  C   UNL     1     -14.325 -16.157  -3.937  1.00  0.00     0.041 C 
BRANCH  16  18
HETATM   18  O   UNL     1     -16.228 -15.830  -5.367  1.00  0.00    -0.394 OA
HETATM   19  H   UNL     1     -16.261 -16.752  -5.681  1.00  0.00     0.210 HD
ENDBRANCH  16  18
ENDBRANCH  15  16
ENDBRANCH  14  15
ENDBRANCH   4  14
BRANCH   5  20
HETATM   20  O   UNL     1     -16.196 -14.709  -0.257  1.00  0.00    -0.378 OA
BRANCH  20  21
HETATM   21  C   UNL     1     -16.639 -14.659   1.124  1.00  0.00     0.199 C 
BRANCH  21  22
HETATM   22  C   UNL     1     -15.717 -13.811   2.002  1.00  0.00     0.138 C 
HETATM   23  C   UNL     1     -14.288 -13.897   1.472  1.00  0.00     0.041 C 
BRANCH  22  24
HETATM   24  O   UNL     1     -16.107 -12.438   2.001  1.00  0.00    -0.394 OA
HETATM   25  H   UNL     1     -15.319 -11.894   2.173  1.00  0.00     0.210 HD
ENDBRANCH  22  24
ENDBRANCH  21  22
ENDBRANCH  20  21
ENDBRANCH   5  20
BRANCH   6  26
HETATM   26  C   UNL     1     -15.410 -12.471  -1.688  1.00  0.00     0.202 C 
BRANCH  26  27
HETATM   27  O   UNL     1     -15.232 -11.780  -2.918  1.00  0.00    -0.386 OA
BRANCH  27  28
HETATM   28  C   UNL     1     -14.232 -12.433  -3.705  1.00  0.00     0.199 C 
BRANCH  28  29
HETATM   29  C   UNL     1     -14.657 -12.368  -5.167  1.00  0.00     0.138 C 
HETATM   30  C   UNL     1     -13.517 -12.725  -6.111  1.00  0.00     0.041 C 
BRANCH  29  31
HETATM   31  O   UNL     1     -15.090 -11.037  -5.456  1.00  0.00    -0.394 OA
HETATM   32  H   UNL     1     -14.272 -10.529  -5.620  1.00  0.00     0.210 HD
ENDBRANCH  29  31
ENDBRANCH  28  29
ENDBRANCH  27  28
ENDBRANCH  26  27
ENDBRANCH   6  26
ENDBRANCH   1   2
BRANCH   1  33
HETATM   33  C   UNL     1     -19.660 -10.519  -3.372  1.00  0.00     0.187 C 
HETATM   34  C   UNL     1     -18.983  -9.468  -4.337  1.00  0.00     0.180 C 
HETATM   35  O   UNL     1     -19.536  -8.137  -4.266  1.00  0.00    -0.348 OA
HETATM   36  C   UNL     1     -20.949  -8.118  -4.371  1.00  0.00     0.291 C 
HETATM   37  C   UNL     1     -21.508  -8.679  -3.046  1.00  0.00     0.208 C 
HETATM   38  C   UNL     1     -21.171 -10.198  -3.047  1.00  0.00     0.186 C 
BRANCH  34  39
HETATM   39  C   UNL     1     -18.732  -9.791  -5.831  1.00  0.00     0.202 C 
BRANCH  39  40
HETATM   40  O   UNL     1     -17.785 -10.845  -6.068  1.00  0.00    -0.386 OA
BRANCH  40  41
HETATM   41  C   UNL     1     -18.265 -11.713  -7.110  1.00  0.00     0.199 C 
BRANCH  41  42
HETATM   42  C   UNL     1     -18.099 -13.209  -6.799  1.00  0.00     0.138 C 
HETATM   43  C   UNL     1     -19.285 -14.071  -7.208  1.00  0.00     0.041 C 
BRANCH  42  44
HETATM   44  O   UNL     1     -16.932 -13.695  -7.479  1.00  0.00    -0.394 OA
HETATM   45  H   UNL     1     -17.143 -14.556  -7.879  1.00  0.00     0.210 HD
ENDBRANCH  42  44
ENDBRANCH  41  42
ENDBRANCH  40  41
ENDBRANCH  39  40
ENDBRANCH  34  39
BRANCH  36  46
HETATM   46  O   UNL     1     -21.462  -6.799  -4.571  1.00  0.00    -0.356 OA
BRANCH  46  47
HETATM   47  C   UNL     1     -21.803  -6.512  -5.927  1.00  0.00     0.202 C 
BRANCH  47  48
HETATM   48  C   UNL     1     -20.667  -5.694  -6.568  1.00  0.00     0.138 C 
HETATM   49  C   UNL     1     -20.031  -4.695  -5.608  1.00  0.00     0.041 C 
BRANCH  48  50
HETATM   50  O   UNL     1     -19.640  -6.565  -7.042  1.00  0.00    -0.394 OA
HETATM   51  H   UNL     1     -19.261  -7.006  -6.261  1.00  0.00     0.210 HD
ENDBRANCH  48  50
ENDBRANCH  47  48
ENDBRANCH  46  47
ENDBRANCH  36  46
BRANCH  37  52
HETATM   52  O   UNL     1     -21.008  -7.994  -1.849  1.00  0.00    -0.376 OA
BRANCH  52  53
HETATM   53  C   UNL     1     -22.077  -7.369  -1.103  1.00  0.00     0.199 C 
BRANCH  53  54
HETATM   54  C   UNL     1     -22.578  -8.178   0.103  1.00  0.00     0.138 C 
HETATM   55  C   UNL     1     -21.576  -8.273   1.240  1.00  0.00     0.041 C 
BRANCH  54  56
HETATM   56  O   UNL     1     -23.788  -7.618   0.610  1.00  0.00    -0.394 OA
HETATM   57  H   UNL     1     -24.503  -7.958   0.041  1.00  0.00     0.210 HD
ENDBRANCH  54  56
ENDBRANCH  53  54
ENDBRANCH  52  53
ENDBRANCH  37  52
BRANCH  38  58
HETATM   58  O   UNL     1     -21.640 -10.842  -1.811  1.00  0.00    -0.378 OA
BRANCH  58  59
HETATM   59  C   UNL     1     -20.562 -11.060  -0.877  1.00  0.00     0.199 C 
BRANCH  59  60
HETATM   60  C   UNL     1     -20.868 -11.990   0.320  1.00  0.00     0.138 C 
HETATM   61  C   UNL     1     -22.334 -12.193   0.655  1.00  0.00     0.041 C 
BRANCH  60  62
HETATM   62  O   UNL     1     -20.244 -13.263   0.167  1.00  0.00    -0.394 OA
HETATM   63  H   UNL     1     -19.616 -13.371   0.905  1.00  0.00     0.210 HD
ENDBRANCH  60  62
ENDBRANCH  59  60
ENDBRANCH  58  59
ENDBRANCH  38  58
ENDBRANCH   1  33
TORSDOF 36
ENDMDL
MODEL 5
REMARK VINA RESULT:      -5.0      2.166      5.880
REMARK WARNING: 32 MAX_TORS EXCEEDED!!!
REMARK  36 active torsions:
REMARK  status: ('A' for Active; 'I' for Inactive)
REMARK    1  A    between atoms: C_2  and  C_3 
REMARK    2  A    between atoms: C_2  and  O_55 
REMARK    3  A    between atoms: C_3  and  O_4 
REMARK    4  A    between atoms: O_4  and  C_5 
REMARK    5  A    between atoms: C_5  and  C_6 
REMARK    6  A    between atoms: C_7  and  O_50 
REMARK    7  A    between atoms: C_8  and  O_45 
REMARK    8  A    between atoms: C_9  and  O_40 
REMARK    9  A    between atoms: C_10  and  O_12 
REMARK   10  A    between atoms: O_12  and  C_13 
REMARK   11  A    between atoms: C_14  and  C_34 
REMARK   12  A    between atoms: C_16  and  O_29 
REMARK   13  A    between atoms: C_17  and  O_24 
REMARK   14  A    between atoms: C_18  and  O_19 
REMARK   15  A    between atoms: O_19  and  C_20 
REMARK   16  A    between atoms: C_20  and  C_21 
REMARK   17  A    between atoms: C_21  and  O_23 
REMARK   18  A    between atoms: O_24  and  C_25 
REMARK   19  A    between atoms: C_25  and  C_26 
REMARK   20  A    between atoms: C_26  and  O_28 
REMARK   21  A    between atoms: O_29  and  C_30 
REMARK   22  A    between atoms: C_30  and  C_31 
REMARK   23  A    between atoms: C_31  and  O_33 
REMARK   24  A    between atoms: C_34  and  O_35 
REMARK   25  A    between atoms: O_35  and  C_36 
REMARK   26  A    between atoms: C_36  and  C_37 
REMARK   27  A    between atoms: C_37  and  O_39 
REMARK   28  A    between atoms: O_40  and  C_41 
REMARK   29  A    between atoms: C_41  and  C_42 
REMARK   30  A    between atoms: C_42  and  O_44 
REMARK   31  A    between atoms: O_45  and  C_46 
REMARK   32  A    between atoms: C_46  and  C_47 
REMARK   33  A    between atoms: C_47  and  O_49 
REMARK   34  A    between atoms: O_50  and  C_51 
REMARK   35  A    between atoms: C_51  and  C_52 
REMARK   36  A    between atoms: C_52  and  O_54 
ROOT
HETATM    1  O   UNL     1     -20.066 -12.781  -3.252  1.00  0.00    -0.348 OA
ENDROOT
BRANCH   1   2
HETATM    2  C   UNL     1     -19.685 -11.418  -3.502  1.00  0.00     0.292 C 
HETATM    3  C   UNL     1     -20.767 -10.379  -3.069  1.00  0.00     0.208 C 
HETATM    4  C   UNL     1     -20.228  -8.981  -3.502  1.00  0.00     0.186 C 
HETATM    5  C   UNL     1     -20.189  -8.964  -5.039  1.00  0.00     0.184 C 
HETATM    6  C   UNL     1     -19.178 -10.029  -5.503  1.00  0.00     0.180 C 
HETATM    7  O   UNL     1     -19.133 -11.270  -4.797  1.00  0.00    -0.348 OA
BRANCH   3   8
HETATM    8  O   UNL     1     -22.150 -10.694  -3.315  1.00  0.00    -0.376 OA
BRANCH   8   9
HETATM    9  C   UNL     1     -23.061 -11.143  -2.330  1.00  0.00     0.199 C 
BRANCH   9  10
HETATM   10  C   UNL     1     -23.015 -12.639  -2.018  1.00  0.00     0.138 C 
HETATM   11  C   UNL     1     -24.233 -13.017  -1.215  1.00  0.00     0.041 C 
BRANCH  10  12
HETATM   12  O   UNL     1     -22.899 -13.384  -3.226  1.00  0.00    -0.394 OA
HETATM   13  H   UNL     1     -22.065 -13.882  -3.199  1.00  0.00     0.210 HD
ENDBRANCH  10  12
ENDBRANCH   9  10
ENDBRANCH   8   9
ENDBRANCH   3   8
BRANCH   4  14
HETATM   14  O   UNL     1     -20.956  -7.927  -2.860  1.00  0.00    -0.378 OA
BRANCH  14  15
HETATM   15  C   UNL     1     -20.942  -8.049  -1.426  1.00  0.00     0.199 C 
BRANCH  15  16
HETATM   16  C   UNL     1     -22.292  -7.654  -0.815  1.00  0.00     0.138 C 
HETATM   17  C   UNL     1     -22.378  -7.927   0.676  1.00  0.00     0.041 C 
BRANCH  16  18
HETATM   18  O   UNL     1     -22.551  -6.268  -1.053  1.00  0.00    -0.394 OA
HETATM   19  H   UNL     1     -21.743  -5.894  -1.447  1.00  0.00     0.210 HD
ENDBRANCH  16  18
ENDBRANCH  15  16
ENDBRANCH  14  15
ENDBRANCH   4  14
BRANCH   5  20
HETATM   20  O   UNL     1     -19.962  -7.696  -5.694  1.00  0.00    -0.378 OA
BRANCH  20  21
HETATM   21  C   UNL     1     -21.238  -7.130  -6.091  1.00  0.00     0.199 C 
BRANCH  21  22
HETATM   22  C   UNL     1     -21.115  -5.674  -6.543  1.00  0.00     0.138 C 
HETATM   23  C   UNL     1     -20.119  -4.944  -5.646  1.00  0.00     0.041 C 
BRANCH  22  24
HETATM   24  O   UNL     1     -20.649  -5.580  -7.889  1.00  0.00    -0.394 OA
HETATM   25  H   UNL     1     -21.005  -4.764  -8.281  1.00  0.00     0.210 HD
ENDBRANCH  22  24
ENDBRANCH  21  22
ENDBRANCH  20  21
ENDBRANCH   5  20
BRANCH   6  26
HETATM   26  C   UNL     1     -17.785  -9.404  -5.607  1.00  0.00     0.202 C 
BRANCH  26  27
HETATM   27  O   UNL     1     -16.855 -10.382  -6.059  1.00  0.00    -0.386 OA
BRANCH  27  28
HETATM   28  C   UNL     1     -15.697 -10.378  -5.220  1.00  0.00     0.199 C 
BRANCH  28  29
HETATM   29  C   UNL     1     -14.804 -11.543  -5.633  1.00  0.00     0.138 C 
HETATM   30  C   UNL     1     -15.595 -12.664  -6.292  1.00  0.00     0.041 C 
BRANCH  29  31
HETATM   31  O   UNL     1     -14.163 -12.060  -4.465  1.00  0.00    -0.394 OA
HETATM   32  H   UNL     1     -14.361 -11.419  -3.755  1.00  0.00     0.210 HD
ENDBRANCH  29  31
ENDBRANCH  28  29
ENDBRANCH  27  28
ENDBRANCH  26  27
ENDBRANCH   6  26
ENDBRANCH   1   2
BRANCH   1  33
HETATM   33  C   UNL     1     -19.079 -13.661  -2.621  1.00  0.00     0.187 C 
HETATM   34  C   UNL     1     -18.511 -14.812  -3.541  1.00  0.00     0.180 C 
HETATM   35  O   UNL     1     -17.193 -15.277  -3.185  1.00  0.00    -0.348 OA
HETATM   36  C   UNL     1     -16.259 -14.223  -3.019  1.00  0.00     0.291 C 
HETATM   37  C   UNL     1     -16.622 -13.503  -1.703  1.00  0.00     0.208 C 
HETATM   38  C   UNL     1     -17.958 -12.755  -1.976  1.00  0.00     0.186 C 
BRANCH  34  39
HETATM   39  C   UNL     1     -18.569 -14.710  -5.086  1.00  0.00     0.202 C 
BRANCH  39  40
HETATM   40  O   UNL     1     -19.861 -14.970  -5.658  1.00  0.00    -0.386 OA
BRANCH  40  41
HETATM   41  C   UNL     1     -20.142 -14.013  -6.695  1.00  0.00     0.199 C 
BRANCH  41  42
HETATM   42  C   UNL     1     -21.609 -13.556  -6.739  1.00  0.00     0.138 C 
HETATM   43  C   UNL     1     -22.622 -14.672  -6.521  1.00  0.00     0.041 C 
BRANCH  42  44
HETATM   44  O   UNL     1     -21.812 -12.560  -5.726  1.00  0.00    -0.394 OA
HETATM   45  H   UNL     1     -21.137 -12.677  -5.036  1.00  0.00     0.210 HD
ENDBRANCH  42  44
ENDBRANCH  41  42
ENDBRANCH  40  41
ENDBRANCH  39  40
ENDBRANCH  34  39
BRANCH  36  46
HETATM   46  O   UNL     1     -14.913 -14.697  -2.935  1.00  0.00    -0.356 OA
BRANCH  46  47
HETATM   47  C   UNL     1     -14.533 -15.548  -4.016  1.00  0.00     0.202 C 
BRANCH  47  48
HETATM   48  C   UNL     1     -12.999 -15.541  -4.145  1.00  0.00     0.138 C 
HETATM   49  C   UNL     1     -12.302 -14.840  -2.984  1.00  0.00     0.041 C 
BRANCH  48  50
HETATM   50  O   UNL     1     -12.504 -16.879  -4.212  1.00  0.00    -0.394 OA
HETATM   51  H   UNL     1     -12.080 -17.066  -3.356  1.00  0.00     0.210 HD
ENDBRANCH  48  50
ENDBRANCH  47  48
ENDBRANCH  46  47
ENDBRANCH  36  46
BRANCH  37  52
HETATM   52  O   UNL     1     -16.703 -14.391  -0.538  1.00  0.00    -0.376 OA
BRANCH  52  53
HETATM   53  C   UNL     1     -15.708 -14.063   0.458  1.00  0.00     0.199 C 
BRANCH  53  54
HETATM   54  C   UNL     1     -16.238 -13.257   1.655  1.00  0.00     0.138 C 
HETATM   55  C   UNL     1     -15.533 -13.565   2.964  1.00  0.00     0.041 C 
BRANCH  54  56
HETATM   56  O   UNL     1     -16.129 -11.859   1.399  1.00  0.00    -0.394 OA
HETATM   57  H   UNL     1     -15.449 -11.763   0.706  1.00  0.00     0.210 HD
ENDBRANCH  54  56
ENDBRANCH  53  54
ENDBRANCH  52  53
ENDBRANCH  37  52
BRANCH  38  58
HETATM   58  O   UNL     1     -18.418 -12.043  -0.775  1.00  0.00    -0.378 OA
BRANCH  58  59
HETATM   59  C   UNL     1     -19.459 -12.767  -0.086  1.00  0.00     0.199 C 
BRANCH  59  60
HETATM   60  C   UNL     1     -20.668 -11.936   0.400  1.00  0.00     0.138 C 
HETATM   61  C   UNL     1     -21.665 -12.658   1.288  1.00  0.00     0.041 C 
BRANCH  60  62
HETATM   62  O   UNL     1     -20.253 -10.735   1.047  1.00  0.00    -0.394 OA
HETATM   63  H   UNL     1     -20.918 -10.051   0.845  1.00  0.00     0.210 HD
ENDBRANCH  60  62
ENDBRANCH  59  60
ENDBRANCH  58  59
ENDBRANCH  38  58
ENDBRANCH   1  33
TORSDOF 36
ENDMDL
MODEL 6
REMARK VINA RESULT:      -5.0      2.243      6.459
REMARK WARNING: 32 MAX_TORS EXCEEDED!!!
REMARK  36 active torsions:
REMARK  status: ('A' for Active; 'I' for Inactive)
REMARK    1  A    between atoms: C_2  and  C_3 
REMARK    2  A    between atoms: C_2  and  O_55 
REMARK    3  A    between atoms: C_3  and  O_4 
REMARK    4  A    between atoms: O_4  and  C_5 
REMARK    5  A    between atoms: C_5  and  C_6 
REMARK    6  A    between atoms: C_7  and  O_50 
REMARK    7  A    between atoms: C_8  and  O_45 
REMARK    8  A    between atoms: C_9  and  O_40 
REMARK    9  A    between atoms: C_10  and  O_12 
REMARK   10  A    between atoms: O_12  and  C_13 
REMARK   11  A    between atoms: C_14  and  C_34 
REMARK   12  A    between atoms: C_16  and  O_29 
REMARK   13  A    between atoms: C_17  and  O_24 
REMARK   14  A    between atoms: C_18  and  O_19 
REMARK   15  A    between atoms: O_19  and  C_20 
REMARK   16  A    between atoms: C_20  and  C_21 
REMARK   17  A    between atoms: C_21  and  O_23 
REMARK   18  A    between atoms: O_24  and  C_25 
REMARK   19  A    between atoms: C_25  and  C_26 
REMARK   20  A    between atoms: C_26  and  O_28 
REMARK   21  A    between atoms: O_29  and  C_30 
REMARK   22  A    between atoms: C_30  and  C_31 
REMARK   23  A    between atoms: C_31  and  O_33 
REMARK   24  A    between atoms: C_34  and  O_35 
REMARK   25  A    between atoms: O_35  and  C_36 
REMARK   26  A    between atoms: C_36  and  C_37 
REMARK   27  A    between atoms: C_37  and  O_39 
REMARK   28  A    between atoms: O_40  and  C_41 
REMARK   29  A    between atoms: C_41  and  C_42 
REMARK   30  A    between atoms: C_42  and  O_44 
REMARK   31  A    between atoms: O_45  and  C_46 
REMARK   32  A    between atoms: C_46  and  C_47 
REMARK   33  A    between atoms: C_47  and  O_49 
REMARK   34  A    between atoms: O_50  and  C_51 
REMARK   35  A    between atoms: C_51  and  C_52 
REMARK   36  A    between atoms: C_52  and  O_54 
ROOT
HETATM    1  O   UNL     1     -19.788 -13.720  -3.342  1.00  0.00    -0.348 OA
ENDROOT
BRANCH   1   2
HETATM    2  C   UNL     1     -19.451 -12.323  -3.358  1.00  0.00     0.292 C 
HETATM    3  C   UNL     1     -20.263 -11.473  -2.331  1.00  0.00     0.208 C 
HETATM    4  C   UNL     1     -19.840  -9.990  -2.559  1.00  0.00     0.186 C 
HETATM    5  C   UNL     1     -20.335  -9.584  -3.958  1.00  0.00     0.184 C 
HETATM    6  C   UNL     1     -19.601 -10.455  -4.995  1.00  0.00     0.180 C 
HETATM    7  O   UNL     1     -19.374 -11.830  -4.683  1.00  0.00    -0.348 OA
BRANCH   3   8
HETATM    8  O   UNL     1     -21.660 -11.774  -2.153  1.00  0.00    -0.376 OA
BRANCH   8   9
HETATM    9  C   UNL     1     -22.177 -12.631  -1.153  1.00  0.00     0.199 C 
BRANCH   9  10
HETATM   10  C   UNL     1     -21.209 -12.997  -0.028  1.00  0.00     0.138 C 
HETATM   11  C   UNL     1     -21.960 -13.052   1.278  1.00  0.00     0.041 C 
BRANCH  10  12
HETATM   12  O   UNL     1     -20.548 -14.220  -0.335  1.00  0.00    -0.394 OA
HETATM   13  H   UNL     1     -21.079 -14.699  -0.993  1.00  0.00     0.210 HD
ENDBRANCH  10  12
ENDBRANCH   9  10
ENDBRANCH   8   9
ENDBRANCH   3   8
BRANCH   4  14
HETATM   14  O   UNL     1     -20.248  -9.163  -1.463  1.00  0.00    -0.378 OA
BRANCH  14  15
HETATM   15  C   UNL     1     -21.640  -8.807  -1.537  1.00  0.00     0.199 C 
BRANCH  15  16
HETATM   16  C   UNL     1     -21.939  -7.533  -0.735  1.00  0.00     0.138 C 
HETATM   17  C   UNL     1     -22.284  -6.341  -1.611  1.00  0.00     0.041 C 
BRANCH  16  18
HETATM   18  O   UNL     1     -23.013  -7.770   0.178  1.00  0.00    -0.394 OA
HETATM   19  H   UNL     1     -23.790  -7.300  -0.173  1.00  0.00     0.210 HD
ENDBRANCH  16  18
ENDBRANCH  15  16
ENDBRANCH  14  15
ENDBRANCH   4  14
BRANCH   5  20
HETATM   20  O   UNL     1     -20.287  -8.184  -4.310  1.00  0.00    -0.378 OA
BRANCH  20  21
HETATM   21  C   UNL     1     -21.509  -7.825  -5.004  1.00  0.00     0.199 C 
BRANCH  21  22
HETATM   22  C   UNL     1     -21.670  -6.311  -5.159  1.00  0.00     0.138 C 
HETATM   23  C   UNL     1     -20.875  -5.836  -6.371  1.00  0.00     0.041 C 
BRANCH  22  24
HETATM   24  O   UNL     1     -23.035  -5.945  -5.354  1.00  0.00    -0.394 OA
HETATM   25  H   UNL     1     -23.069  -5.005  -5.600  1.00  0.00     0.210 HD
ENDBRANCH  22  24
ENDBRANCH  21  22
ENDBRANCH  20  21
ENDBRANCH   5  20
BRANCH   6  26
HETATM   26  C   UNL     1     -18.300  -9.765  -5.416  1.00  0.00     0.202 C 
BRANCH  26  27
HETATM   27  O   UNL     1     -17.288 -10.742  -5.628  1.00  0.00    -0.386 OA
BRANCH  27  28
HETATM   28  C   UNL     1     -16.061 -10.310  -5.034  1.00  0.00     0.199 C 
BRANCH  28  29
HETATM   29  C   UNL     1     -16.095 -10.666  -3.552  1.00  0.00     0.138 C 
HETATM   30  C   UNL     1     -16.069  -9.428  -2.666  1.00  0.00     0.041 C 
BRANCH  29  31
HETATM   31  O   UNL     1     -14.952 -11.468  -3.251  1.00  0.00    -0.394 OA
HETATM   32  H   UNL     1     -15.269 -12.146  -2.623  1.00  0.00     0.210 HD
ENDBRANCH  29  31
ENDBRANCH  28  29
ENDBRANCH  27  28
ENDBRANCH  26  27
ENDBRANCH   6  26
ENDBRANCH   1   2
BRANCH   1  33
HETATM   33  C   UNL     1     -18.699 -14.683  -3.163  1.00  0.00     0.187 C 
HETATM   34  C   UNL     1     -18.245 -15.441  -4.473  1.00  0.00     0.180 C 
HETATM   35  O   UNL     1     -16.878 -15.902  -4.462  1.00  0.00    -0.348 OA
HETATM   36  C   UNL     1     -15.955 -14.892  -4.089  1.00  0.00     0.291 C 
HETATM   37  C   UNL     1     -16.138 -14.652  -2.575  1.00  0.00     0.208 C 
HETATM   38  C   UNL     1     -17.517 -13.952  -2.415  1.00  0.00     0.186 C 
BRANCH  34  39
HETATM   39  C   UNL     1     -18.531 -14.860  -5.880  1.00  0.00     0.202 C 
BRANCH  39  40
HETATM   40  O   UNL     1     -19.906 -14.928  -6.290  1.00  0.00    -0.386 OA
BRANCH  40  41
HETATM   41  C   UNL     1     -20.160 -13.962  -7.325  1.00  0.00     0.199 C 
BRANCH  41  42
HETATM   42  C   UNL     1     -18.886 -13.349  -7.930  1.00  0.00     0.138 C 
HETATM   43  C   UNL     1     -18.594 -13.790  -9.358  1.00  0.00     0.041 C 
BRANCH  42  44
HETATM   44  O   UNL     1     -19.010 -11.919  -7.915  1.00  0.00    -0.394 OA
HETATM   45  H   UNL     1     -19.276 -11.640  -7.022  1.00  0.00     0.210 HD
ENDBRANCH  42  44
ENDBRANCH  41  42
ENDBRANCH  40  41
ENDBRANCH  39  40
ENDBRANCH  34  39
BRANCH  36  46
HETATM   46  O   UNL     1     -14.601 -15.274  -4.340  1.00  0.00    -0.356 OA
BRANCH  46  47
HETATM   47  C   UNL     1     -14.149 -14.964  -5.658  1.00  0.00     0.202 C 
BRANCH  47  48
HETATM   48  C   UNL     1     -14.340 -13.457  -5.912  1.00  0.00     0.138 C 
HETATM   49  C   UNL     1     -13.147 -12.809  -6.605  1.00  0.00     0.041 C 
BRANCH  48  50
HETATM   50  O   UNL     1     -15.494 -13.237  -6.723  1.00  0.00    -0.394 OA
HETATM   51  H   UNL     1     -15.221 -12.646  -7.447  1.00  0.00     0.210 HD
ENDBRANCH  48  50
ENDBRANCH  47  48
ENDBRANCH  46  47
ENDBRANCH  36  46
BRANCH  37  52
HETATM   52  O   UNL     1     -16.026 -15.866  -1.759  1.00  0.00    -0.376 OA
BRANCH  52  53
HETATM   53  C   UNL     1     -14.742 -15.955  -1.101  1.00  0.00     0.199 C 
BRANCH  53  54
HETATM   54  C   UNL     1     -13.982 -14.623  -0.992  1.00  0.00     0.138 C 
HETATM   55  C   UNL     1     -13.397 -14.360   0.385  1.00  0.00     0.041 C 
BRANCH  54  56
HETATM   56  O   UNL     1     -12.928 -14.573  -1.951  1.00  0.00    -0.394 OA
HETATM   57  H   UNL     1     -13.335 -14.787  -2.811  1.00  0.00     0.210 HD
ENDBRANCH  54  56
ENDBRANCH  53  54
ENDBRANCH  52  53
ENDBRANCH  37  52
BRANCH  38  58
HETATM   58  O   UNL     1     -17.813 -13.689  -0.998  1.00  0.00    -0.378 OA
BRANCH  58  59
HETATM   59  C   UNL     1     -17.103 -12.533  -0.506  1.00  0.00     0.199 C 
BRANCH  59  60
HETATM   60  C   UNL     1     -16.803 -12.505   1.010  1.00  0.00     0.138 C 
HETATM   61  C   UNL     1     -16.668 -13.853   1.693  1.00  0.00     0.041 C 
BRANCH  60  62
HETATM   62  O   UNL     1     -15.651 -11.717   1.302  1.00  0.00    -0.394 OA
HETATM   63  H   UNL     1     -15.938 -10.981   1.873  1.00  0.00     0.210 HD
ENDBRANCH  60  62
ENDBRANCH  59  60
ENDBRANCH  58  59
ENDBRANCH  38  58
ENDBRANCH   1  33
TORSDOF 36
ENDMDL
MODEL 7
REMARK VINA RESULT:      -4.9      2.120      5.978
REMARK WARNING: 32 MAX_TORS EXCEEDED!!!
REMARK  36 active torsions:
REMARK  status: ('A' for Active; 'I' for Inactive)
REMARK    1  A    between atoms: C_2  and  C_3 
REMARK    2  A    between atoms: C_2  and  O_55 
REMARK    3  A    between atoms: C_3  and  O_4 
REMARK    4  A    between atoms: O_4  and  C_5 
REMARK    5  A    between atoms: C_5  and  C_6 
REMARK    6  A    between atoms: C_7  and  O_50 
REMARK    7  A    between atoms: C_8  and  O_45 
REMARK    8  A    between atoms: C_9  and  O_40 
REMARK    9  A    between atoms: C_10  and  O_12 
REMARK   10  A    between atoms: O_12  and  C_13 
REMARK   11  A    between atoms: C_14  and  C_34 
REMARK   12  A    between atoms: C_16  and  O_29 
REMARK   13  A    between atoms: C_17  and  O_24 
REMARK   14  A    between atoms: C_18  and  O_19 
REMARK   15  A    between atoms: O_19  and  C_20 
REMARK   16  A    between atoms: C_20  and  C_21 
REMARK   17  A    between atoms: C_21  and  O_23 
REMARK   18  A    between atoms: O_24  and  C_25 
REMARK   19  A    between atoms: C_25  and  C_26 
REMARK   20  A    between atoms: C_26  and  O_28 
REMARK   21  A    between atoms: O_29  and  C_30 
REMARK   22  A    between atoms: C_30  and  C_31 
REMARK   23  A    between atoms: C_31  and  O_33 
REMARK   24  A    between atoms: C_34  and  O_35 
REMARK   25  A    between atoms: O_35  and  C_36 
REMARK   26  A    between atoms: C_36  and  C_37 
REMARK   27  A    between atoms: C_37  and  O_39 
REMARK   28  A    between atoms: O_40  and  C_41 
REMARK   29  A    between atoms: C_41  and  C_42 
REMARK   30  A    between atoms: C_42  and  O_44 
REMARK   31  A    between atoms: O_45  and  C_46 
REMARK   32  A    between atoms: C_46  and  C_47 
REMARK   33  A    between atoms: C_47  and  O_49 
REMARK   34  A    between atoms: O_50  and  C_51 
REMARK   35  A    between atoms: C_51  and  C_52 
REMARK   36  A    between atoms: C_52  and  O_54 
ROOT
HETATM    1  O   UNL     1     -20.254 -13.265  -3.523  1.00  0.00    -0.348 OA
ENDROOT
BRANCH   1   2
HETATM    2  C   UNL     1     -19.700 -11.947  -3.669  1.00  0.00     0.292 C 
HETATM    3  C   UNL     1     -20.622 -10.819  -3.110  1.00  0.00     0.208 C 
HETATM    4  C   UNL     1     -19.911  -9.470  -3.440  1.00  0.00     0.186 C 
HETATM    5  C   UNL     1     -19.908  -9.320  -4.971  1.00  0.00     0.184 C 
HETATM    6  C   UNL     1     -19.060 -10.463  -5.561  1.00  0.00     0.180 C 
HETATM    7  O   UNL     1     -19.164 -11.758  -4.965  1.00  0.00    -0.348 OA
BRANCH   3   8
HETATM    8  O   UNL     1     -22.040 -10.925  -3.333  1.00  0.00    -0.376 OA
BRANCH   8   9
HETATM    9  C   UNL     1     -22.937 -11.623  -2.490  1.00  0.00     0.199 C 
BRANCH   9  10
HETATM   10  C   UNL     1     -22.472 -11.821  -1.047  1.00  0.00     0.138 C 
HETATM   11  C   UNL     1     -23.633 -11.596  -0.114  1.00  0.00     0.041 C 
BRANCH  10  12
HETATM   12  O   UNL     1     -21.888 -13.112  -0.898  1.00  0.00    -0.394 OA
HETATM   13  H   UNL     1     -21.101 -13.028  -0.334  1.00  0.00     0.210 HD
ENDBRANCH  10  12
ENDBRANCH   9  10
ENDBRANCH   8   9
ENDBRANCH   3   8
BRANCH   4  14
HETATM   14  O   UNL     1     -20.475  -8.392  -2.685  1.00  0.00    -0.378 OA
BRANCH  14  15
HETATM   15  C   UNL     1     -20.568  -8.698  -1.282  1.00  0.00     0.199 C 
BRANCH  15  16
HETATM   16  C   UNL     1     -21.874  -8.169  -0.676  1.00  0.00     0.138 C 
HETATM   17  C   UNL     1     -21.869  -8.161   0.843  1.00  0.00     0.041 C 
BRANCH  16  18
HETATM   18  O   UNL     1     -22.133  -6.845  -1.150  1.00  0.00    -0.394 OA
HETATM   19  H   UNL     1     -22.809  -6.923  -1.847  1.00  0.00     0.210 HD
ENDBRANCH  16  18
ENDBRANCH  15  16
ENDBRANCH  14  15
ENDBRANCH   4  14
BRANCH   5  20
HETATM   20  O   UNL     1     -19.529  -8.040  -5.522  1.00  0.00    -0.378 OA
BRANCH  20  21
HETATM   21  C   UNL     1     -20.726  -7.284  -5.839  1.00  0.00     0.199 C 
BRANCH  21  22
HETATM   22  C   UNL     1     -20.810  -5.969  -5.062  1.00  0.00     0.138 C 
HETATM   23  C   UNL     1     -21.121  -4.827  -6.026  1.00  0.00     0.041 C 
BRANCH  22  24
HETATM   24  O   UNL     1     -21.838  -6.007  -4.075  1.00  0.00    -0.394 OA
HETATM   25  H   UNL     1     -22.018  -6.937  -3.853  1.00  0.00     0.210 HD
ENDBRANCH  22  24
ENDBRANCH  21  22
ENDBRANCH  20  21
ENDBRANCH   5  20
BRANCH   6  26
HETATM   26  C   UNL     1     -17.598 -10.020  -5.661  1.00  0.00     0.202 C 
BRANCH  26  27
HETATM   27  O   UNL     1     -16.836 -11.030  -6.310  1.00  0.00    -0.386 OA
BRANCH  27  28
HETATM   28  C   UNL     1     -15.470 -10.956  -5.892  1.00  0.00     0.199 C 
BRANCH  28  29
HETATM   29  C   UNL     1     -14.947 -12.377  -5.714  1.00  0.00     0.138 C 
HETATM   30  C   UNL     1     -13.501 -12.516  -6.170  1.00  0.00     0.041 C 
BRANCH  29  31
HETATM   31  O   UNL     1     -15.758 -13.260  -6.492  1.00  0.00    -0.394 OA
HETATM   32  H   UNL     1     -16.377 -12.682  -6.979  1.00  0.00     0.210 HD
ENDBRANCH  29  31
ENDBRANCH  28  29
ENDBRANCH  27  28
ENDBRANCH  26  27
ENDBRANCH   6  26
ENDBRANCH   1   2
BRANCH   1  33
HETATM   33  C   UNL     1     -19.382 -14.317  -2.994  1.00  0.00     0.187 C 
HETATM   34  C   UNL     1     -18.860 -15.362  -4.058  1.00  0.00     0.180 C 
HETATM   35  O   UNL     1     -17.608 -15.995  -3.720  1.00  0.00    -0.348 OA
HETATM   36  C   UNL     1     -16.601 -15.069  -3.350  1.00  0.00     0.291 C 
HETATM   37  C   UNL     1     -16.978 -14.526  -1.955  1.00  0.00     0.208 C 
HETATM   38  C   UNL     1     -18.229 -13.627  -2.167  1.00  0.00     0.186 C 
BRANCH  34  39
HETATM   39  C   UNL     1     -18.820 -15.022  -5.568  1.00  0.00     0.202 C 
BRANCH  39  40
HETATM   40  O   UNL     1     -20.095 -15.063  -6.229  1.00  0.00    -0.386 OA
BRANCH  40  41
HETATM   41  C   UNL     1     -20.073 -14.221  -7.395  1.00  0.00     0.199 C 
BRANCH  41  42
HETATM   42  C   UNL     1     -18.668 -14.001  -7.977  1.00  0.00     0.138 C 
HETATM   43  C   UNL     1     -18.478 -14.548  -9.385  1.00  0.00     0.041 C 
BRANCH  42  44
HETATM   44  O   UNL     1     -18.393 -12.592  -8.000  1.00  0.00    -0.394 OA
HETATM   45  H   UNL     1     -19.210 -12.122  -8.241  1.00  0.00     0.210 HD
ENDBRANCH  42  44
ENDBRANCH  41  42
ENDBRANCH  40  41
ENDBRANCH  39  40
ENDBRANCH  34  39
BRANCH  36  46
HETATM   46  O   UNL     1     -15.307 -15.671  -3.281  1.00  0.00    -0.356 OA
BRANCH  46  47
HETATM   47  C   UNL     1     -14.239 -14.732  -3.156  1.00  0.00     0.202 C 
BRANCH  47  48
HETATM   48  C   UNL     1     -13.081 -15.389  -2.383  1.00  0.00     0.138 C 
HETATM   49  C   UNL     1     -12.628 -14.577  -1.175  1.00  0.00     0.041 C 
BRANCH  48  50
HETATM   50  O   UNL     1     -13.468 -16.684  -1.923  1.00  0.00    -0.394 OA
HETATM   51  H   UNL     1     -13.128 -17.326  -2.572  1.00  0.00     0.210 HD
ENDBRANCH  48  50
ENDBRANCH  47  48
ENDBRANCH  46  47
ENDBRANCH  36  46
BRANCH  37  52
HETATM   52  O   UNL     1     -17.201 -15.570  -0.948  1.00  0.00    -0.376 OA
BRANCH  52  53
HETATM   53  C   UNL     1     -16.250 -15.481   0.137  1.00  0.00     0.199 C 
BRANCH  53  54
HETATM   54  C   UNL     1     -16.868 -15.177   1.511  1.00  0.00     0.138 C 
HETATM   55  C   UNL     1     -16.150 -14.082   2.280  1.00  0.00     0.041 C 
BRANCH  54  56
HETATM   56  O   UNL     1     -18.238 -14.809   1.368  1.00  0.00    -0.394 OA
HETATM   57  H   UNL     1     -18.757 -15.557   1.718  1.00  0.00     0.210 HD
ENDBRANCH  54  56
ENDBRANCH  53  54
ENDBRANCH  52  53
ENDBRANCH  37  52
BRANCH  38  58
HETATM   58  O   UNL     1     -18.697 -13.066  -0.890  1.00  0.00    -0.378 OA
BRANCH  58  59
HETATM   59  C   UNL     1     -18.038 -11.821  -0.577  1.00  0.00     0.199 C 
BRANCH  59  60
HETATM   60  C   UNL     1     -16.549 -11.711  -0.978  1.00  0.00     0.138 C 
HETATM   61  C   UNL     1     -16.220 -10.706  -2.066  1.00  0.00     0.041 C 
BRANCH  60  62
HETATM   62  O   UNL     1     -15.718 -11.464   0.154  1.00  0.00    -0.394 OA
HETATM   63  H   UNL     1     -16.202 -10.853   0.741  1.00  0.00     0.210 HD
ENDBRANCH  60  62
ENDBRANCH  59  60
ENDBRANCH  58  59
ENDBRANCH  38  58
ENDBRANCH   1  33
TORSDOF 36
ENDMDL
MODEL 8
REMARK VINA RESULT:      -4.9      2.245      6.467
REMARK WARNING: 32 MAX_TORS EXCEEDED!!!
REMARK  36 active torsions:
REMARK  status: ('A' for Active; 'I' for Inactive)
REMARK    1  A    between atoms: C_2  and  C_3 
REMARK    2  A    between atoms: C_2  and  O_55 
REMARK    3  A    between atoms: C_3  and  O_4 
REMARK    4  A    between atoms: O_4  and  C_5 
REMARK    5  A    between atoms: C_5  and  C_6 
REMARK    6  A    between atoms: C_7  and  O_50 
REMARK    7  A    between atoms: C_8  and  O_45 
REMARK    8  A    between atoms: C_9  and  O_40 
REMARK    9  A    between atoms: C_10  and  O_12 
REMARK   10  A    between atoms: O_12  and  C_13 
REMARK   11  A    between atoms: C_14  and  C_34 
REMARK   12  A    between atoms: C_16  and  O_29 
REMARK   13  A    between atoms: C_17  and  O_24 
REMARK   14  A    between atoms: C_18  and  O_19 
REMARK   15  A    between atoms: O_19  and  C_20 
REMARK   16  A    between atoms: C_20  and  C_21 
REMARK   17  A    between atoms: C_21  and  O_23 
REMARK   18  A    between atoms: O_24  and  C_25 
REMARK   19  A    between atoms: C_25  and  C_26 
REMARK   20  A    between atoms: C_26  and  O_28 
REMARK   21  A    between atoms: O_29  and  C_30 
REMARK   22  A    between atoms: C_30  and  C_31 
REMARK   23  A    between atoms: C_31  and  O_33 
REMARK   24  A    between atoms: C_34  and  O_35 
REMARK   25  A    between atoms: O_35  and  C_36 
REMARK   26  A    between atoms: C_36  and  C_37 
REMARK   27  A    between atoms: C_37  and  O_39 
REMARK   28  A    between atoms: O_40  and  C_41 
REMARK   29  A    between atoms: C_41  and  C_42 
REMARK   30  A    between atoms: C_42  and  O_44 
REMARK   31  A    between atoms: O_45  and  C_46 
REMARK   32  A    between atoms: C_46  and  C_47 
REMARK   33  A    between atoms: C_47  and  O_49 
REMARK   34  A    between atoms: O_50  and  C_51 
REMARK   35  A    between atoms: C_51  and  C_52 
REMARK   36  A    between atoms: C_52  and  O_54 
ROOT
HETATM    1  O   UNL     1     -20.620 -12.811  -3.776  1.00  0.00    -0.348 OA
ENDROOT
BRANCH   1   2
HETATM    2  C   UNL     1     -20.067 -11.485  -3.828  1.00  0.00     0.292 C 
HETATM    3  C   UNL     1     -20.981 -10.402  -3.173  1.00  0.00     0.208 C 
HETATM    4  C   UNL     1     -20.273  -9.032  -3.410  1.00  0.00     0.186 C 
HETATM    5  C   UNL     1     -20.289  -8.767  -4.925  1.00  0.00     0.184 C 
HETATM    6  C   UNL     1     -19.450  -9.862  -5.610  1.00  0.00     0.180 C 
HETATM    7  O   UNL     1     -19.548 -11.198  -5.113  1.00  0.00    -0.348 OA
BRANCH   3   8
HETATM    8  O   UNL     1     -22.402 -10.492  -3.385  1.00  0.00    -0.376 OA
BRANCH   8   9
HETATM    9  C   UNL     1     -23.309 -11.119  -2.499  1.00  0.00     0.199 C 
BRANCH   9  10
HETATM   10  C   UNL     1     -22.711 -11.629  -1.188  1.00  0.00     0.138 C 
HETATM   11  C   UNL     1     -23.700 -11.415  -0.072  1.00  0.00     0.041 C 
BRANCH  10  12
HETATM   12  O   UNL     1     -22.325 -12.992  -1.328  1.00  0.00    -0.394 OA
HETATM   13  H   UNL     1     -21.376 -13.064  -1.131  1.00  0.00     0.210 HD
ENDBRANCH  10  12
ENDBRANCH   9  10
ENDBRANCH   8   9
ENDBRANCH   3   8
BRANCH   4  14
HETATM   14  O   UNL     1     -20.826  -8.014  -2.568  1.00  0.00    -0.378 OA
BRANCH  14  15
HETATM   15  C   UNL     1     -20.813  -8.388  -1.178  1.00  0.00     0.199 C 
BRANCH  15  16
HETATM   16  C   UNL     1     -22.138  -8.039  -0.489  1.00  0.00     0.138 C 
HETATM   17  C   UNL     1     -22.044  -8.043   1.027  1.00  0.00     0.041 C 
BRANCH  16  18
HETATM   18  O   UNL     1     -22.595  -6.757  -0.926  1.00  0.00    -0.394 OA
HETATM   19  H   UNL     1     -21.816  -6.173  -0.948  1.00  0.00     0.210 HD
ENDBRANCH  16  18
ENDBRANCH  15  16
ENDBRANCH  14  15
ENDBRANCH   4  14
BRANCH   5  20
HETATM   20  O   UNL     1     -19.916  -7.448  -5.382  1.00  0.00    -0.378 OA
BRANCH  20  21
HETATM   21  C   UNL     1     -21.094  -6.769  -5.890  1.00  0.00     0.199 C 
BRANCH  21  22
HETATM   22  C   UNL     1     -20.758  -5.427  -6.543  1.00  0.00     0.138 C 
HETATM   23  C   UNL     1     -22.041  -4.766  -7.037  1.00  0.00     0.041 C 
BRANCH  22  24
HETATM   24  O   UNL     1     -20.129  -4.538  -5.622  1.00  0.00    -0.394 OA
HETATM   25  H   UNL     1     -20.566  -3.671  -5.683  1.00  0.00     0.210 HD
ENDBRANCH  22  24
ENDBRANCH  21  22
ENDBRANCH  20  21
ENDBRANCH   5  20
BRANCH   6  26
HETATM   26  C   UNL     1     -17.989  -9.412  -5.696  1.00  0.00     0.202 C 
BRANCH  26  27
HETATM   27  O   UNL     1     -17.164 -10.526  -6.015  1.00  0.00    -0.386 OA
BRANCH  27  28
HETATM   28  C   UNL     1     -15.882 -10.377  -5.399  1.00  0.00     0.199 C 
BRANCH  28  29
HETATM   29  C   UNL     1     -16.007 -10.779  -3.933  1.00  0.00     0.138 C 
HETATM   30  C   UNL     1     -15.937  -9.576  -3.003  1.00  0.00     0.041 C 
BRANCH  29  31
HETATM   31  O   UNL     1     -14.935 -11.668  -3.613  1.00  0.00    -0.394 OA
HETATM   32  H   UNL     1     -15.307 -12.567  -3.707  1.00  0.00     0.210 HD
ENDBRANCH  29  31
ENDBRANCH  28  29
ENDBRANCH  27  28
ENDBRANCH  26  27
ENDBRANCH   6  26
ENDBRANCH   1   2
BRANCH   1  33
HETATM   33  C   UNL     1     -19.687 -13.937  -3.709  1.00  0.00     0.187 C 
HETATM   34  C   UNL     1     -19.340 -14.612  -5.095  1.00  0.00     0.180 C 
HETATM   35  O   UNL     1     -18.056 -15.269  -5.144  1.00  0.00    -0.348 OA
HETATM   36  C   UNL     1     -16.997 -14.452  -4.674  1.00  0.00     0.291 C 
HETATM   37  C   UNL     1     -17.154 -14.349  -3.142  1.00  0.00     0.208 C 
HETATM   38  C   UNL     1     -18.415 -13.473  -2.897  1.00  0.00     0.186 C 
BRANCH  34  39
HETATM   39  C   UNL     1     -19.526 -13.849  -6.431  1.00  0.00     0.202 C 
BRANCH  39  40
HETATM   40  O   UNL     1     -20.894 -13.659  -6.829  1.00  0.00    -0.386 OA
BRANCH  40  41
HETATM   41  C   UNL     1     -21.690 -14.779  -6.406  1.00  0.00     0.199 C 
BRANCH  41  42
HETATM   42  C   UNL     1     -22.997 -14.383  -5.701  1.00  0.00     0.138 C 
HETATM   43  C   UNL     1     -23.268 -15.139  -4.407  1.00  0.00     0.041 C 
BRANCH  42  44
HETATM   44  O   UNL     1     -22.954 -12.980  -5.403  1.00  0.00    -0.394 OA
HETATM   45  H   UNL     1     -23.095 -12.483  -6.227  1.00  0.00     0.210 HD
ENDBRANCH  42  44
ENDBRANCH  41  42
ENDBRANCH  40  41
ENDBRANCH  39  40
ENDBRANCH  34  39
BRANCH  36  46
HETATM   46  O   UNL     1     -15.712 -15.000  -4.975  1.00  0.00    -0.356 OA
BRANCH  46  47
HETATM   47  C   UNL     1     -15.128 -14.480  -6.169  1.00  0.00     0.202 C 
BRANCH  47  48
HETATM   48  C   UNL     1     -13.653 -14.136  -5.898  1.00  0.00     0.138 C 
HETATM   49  C   UNL     1     -13.213 -12.825  -6.539  1.00  0.00     0.041 C 
BRANCH  48  50
HETATM   50  O   UNL     1     -13.420 -14.039  -4.492  1.00  0.00    -0.394 OA
HETATM   51  H   UNL     1     -13.539 -14.933  -4.124  1.00  0.00     0.210 HD
ENDBRANCH  48  50
ENDBRANCH  47  48
ENDBRANCH  46  47
ENDBRANCH  36  46
BRANCH  37  52
HETATM   52  O   UNL     1     -17.229 -15.646  -2.460  1.00  0.00    -0.376 OA
BRANCH  52  53
HETATM   53  C   UNL     1     -15.923 -16.122  -2.066  1.00  0.00     0.199 C 
BRANCH  53  54
HETATM   54  C   UNL     1     -15.073 -15.101  -1.292  1.00  0.00     0.138 C 
HETATM   55  C   UNL     1     -14.809 -15.489   0.152  1.00  0.00     0.041 C 
BRANCH  54  56
HETATM   56  O   UNL     1     -13.821 -14.901  -1.945  1.00  0.00    -0.394 OA
HETATM   57  H   UNL     1     -13.796 -13.960  -2.198  1.00  0.00     0.210 HD
ENDBRANCH  54  56
ENDBRANCH  53  54
ENDBRANCH  52  53
ENDBRANCH  37  52
BRANCH  38  58
HETATM   58  O   UNL     1     -18.680 -13.321  -1.458  1.00  0.00    -0.378 OA
BRANCH  58  59
HETATM   59  C   UNL     1     -18.054 -12.138  -0.918  1.00  0.00     0.199 C 
BRANCH  59  60
HETATM   60  C   UNL     1     -16.935 -12.368   0.123  1.00  0.00     0.138 C 
HETATM   61  C   UNL     1     -15.590 -11.738  -0.188  1.00  0.00     0.041 C 
BRANCH  60  62
HETATM   62  O   UNL     1     -17.345 -11.970   1.429  1.00  0.00    -0.394 OA
HETATM   63  H   UNL     1     -18.310 -12.102   1.484  1.00  0.00     0.210 HD
ENDBRANCH  60  62
ENDBRANCH  59  60
ENDBRANCH  58  59
ENDBRANCH  38  58
ENDBRANCH   1  33
TORSDOF 36
ENDMDL
MODEL 9
REMARK VINA RESULT:      -4.8      2.272      7.956
REMARK WARNING: 32 MAX_TORS EXCEEDED!!!
REMARK  36 active torsions:
REMARK  status: ('A' for Active; 'I' for Inactive)
REMARK    1  A    between atoms: C_2  and  C_3 
REMARK    2  A    between atoms: C_2  and  O_55 
REMARK    3  A    between atoms: C_3  and  O_4 
REMARK    4  A    between atoms: O_4  and  C_5 
REMARK    5  A    between atoms: C_5  and  C_6 
REMARK    6  A    between atoms: C_7  and  O_50 
REMARK    7  A    between atoms: C_8  and  O_45 
REMARK    8  A    between atoms: C_9  and  O_40 
REMARK    9  A    between atoms: C_10  and  O_12 
REMARK   10  A    between atoms: O_12  and  C_13 
REMARK   11  A    between atoms: C_14  and  C_34 
REMARK   12  A    between atoms: C_16  and  O_29 
REMARK   13  A    between atoms: C_17  and  O_24 
REMARK   14  A    between atoms: C_18  and  O_19 
REMARK   15  A    between atoms: O_19  and  C_20 
REMARK   16  A    between atoms: C_20  and  C_21 
REMARK   17  A    between atoms: C_21  and  O_23 
REMARK   18  A    between atoms: O_24  and  C_25 
REMARK   19  A    between atoms: C_25  and  C_26 
REMARK   20  A    between atoms: C_26  and  O_28 
REMARK   21  A    between atoms: O_29  and  C_30 
REMARK   22  A    between atoms: C_30  and  C_31 
REMARK   23  A    between atoms: C_31  and  O_33 
REMARK   24  A    between atoms: C_34  and  O_35 
REMARK   25  A    between atoms: O_35  and  C_36 
REMARK   26  A    between atoms: C_36  and  C_37 
REMARK   27  A    between atoms: C_37  and  O_39 
REMARK   28  A    between atoms: O_40  and  C_41 
REMARK   29  A    between atoms: C_41  and  C_42 
REMARK   30  A    between atoms: C_42  and  O_44 
REMARK   31  A    between atoms: O_45  and  C_46 
REMARK   32  A    between atoms: C_46  and  C_47 
REMARK   33  A    between atoms: C_47  and  O_49 
REMARK   34  A    between atoms: O_50  and  C_51 
REMARK   35  A    between atoms: C_51  and  C_52 
REMARK   36  A    between atoms: C_52  and  O_54 
ROOT
HETATM    1  O   UNL     1     -20.555 -12.794  -5.442  1.00  0.00    -0.348 OA
ENDROOT
BRANCH   1   2
HETATM    2  C   UNL     1     -19.161 -12.790  -5.094  1.00  0.00     0.292 C 
HETATM    3  C   UNL     1     -18.243 -13.423  -6.186  1.00  0.00     0.208 C 
HETATM    4  C   UNL     1     -16.799 -13.420  -5.598  1.00  0.00     0.186 C 
HETATM    5  C   UNL     1     -16.792 -14.386  -4.401  1.00  0.00     0.184 C 
HETATM    6  C   UNL     1     -17.744 -13.824  -3.329  1.00  0.00     0.180 C 
HETATM    7  O   UNL     1     -18.966 -13.221  -3.760  1.00  0.00    -0.348 OA
BRANCH   3   8
HETATM    8  O   UNL     1     -18.710 -14.603  -6.867  1.00  0.00    -0.376 OA
BRANCH   8   9
HETATM    9  C   UNL     1     -18.819 -14.731  -8.272  1.00  0.00     0.199 C 
BRANCH   9  10
HETATM   10  C   UNL     1     -18.076 -15.915  -8.890  1.00  0.00     0.138 C 
HETATM   11  C   UNL     1     -17.963 -15.712 -10.378  1.00  0.00     0.041 C 
BRANCH  10  12
HETATM   12  O   UNL     1     -16.809 -16.075  -8.258  1.00  0.00    -0.394 OA
HETATM   13  H   UNL     1     -16.796 -16.938  -7.812  1.00  0.00     0.210 HD
ENDBRANCH  10  12
ENDBRANCH   9  10
ENDBRANCH   8   9
ENDBRANCH   3   8
BRANCH   4  14
HETATM   14  O   UNL     1     -15.825 -13.652  -6.623  1.00  0.00    -0.378 OA
BRANCH  14  15
HETATM   15  C   UNL     1     -14.887 -12.567  -6.741  1.00  0.00     0.199 C 
BRANCH  15  16
HETATM   16  C   UNL     1     -13.539 -12.915  -6.097  1.00  0.00     0.138 C 
HETATM   17  C   UNL     1     -13.359 -12.307  -4.717  1.00  0.00     0.041 C 
BRANCH  16  18
HETATM   18  O   UNL     1     -13.392 -14.334  -6.006  1.00  0.00    -0.394 OA
HETATM   19  H   UNL     1     -12.491 -14.503  -5.677  1.00  0.00     0.210 HD
ENDBRANCH  16  18
ENDBRANCH  15  16
ENDBRANCH  14  15
ENDBRANCH   4  14
BRANCH   5  20
HETATM   20  O   UNL     1     -15.513 -14.751  -3.837  1.00  0.00    -0.378 OA
BRANCH  20  21
HETATM   21  C   UNL     1     -15.629 -16.046  -3.191  1.00  0.00     0.199 C 
BRANCH  21  22
HETATM   22  C   UNL     1     -14.962 -16.073  -1.815  1.00  0.00     0.138 C 
HETATM   23  C   UNL     1     -13.870 -15.009  -1.757  1.00  0.00     0.041 C 
BRANCH  22  24
HETATM   24  O   UNL     1     -15.898 -15.804  -0.772  1.00  0.00    -0.394 OA
HETATM   25  H   UNL     1     -16.742 -16.229  -0.999  1.00  0.00     0.210 HD
ENDBRANCH  22  24
ENDBRANCH  21  22
ENDBRANCH  20  21
ENDBRANCH   5  20
BRANCH   6  26
HETATM   26  C   UNL     1     -16.971 -12.891  -2.393  1.00  0.00     0.202 C 
BRANCH  26  27
HETATM   27  O   UNL     1     -17.207 -13.266  -1.042  1.00  0.00    -0.386 OA
BRANCH  27  28
HETATM   28  C   UNL     1     -16.952 -12.157  -0.175  1.00  0.00     0.199 C 
BRANCH  28  29
HETATM   29  C   UNL     1     -16.396 -12.696   1.138  1.00  0.00     0.138 C 
HETATM   30  C   UNL     1     -14.882 -12.850   1.098  1.00  0.00     0.041 C 
BRANCH  29  31
HETATM   31  O   UNL     1     -16.980 -13.976   1.388  1.00  0.00    -0.394 OA
HETATM   32  H   UNL     1     -17.941 -13.815   1.448  1.00  0.00     0.210 HD
ENDBRANCH  29  31
ENDBRANCH  28  29
ENDBRANCH  27  28
ENDBRANCH  26  27
ENDBRANCH   6  26
ENDBRANCH   1   2
BRANCH   1  33
HETATM   33  C   UNL     1     -21.371 -11.659  -5.006  1.00  0.00     0.187 C 
HETATM   34  C   UNL     1     -22.473 -11.994  -3.924  1.00  0.00     0.180 C 
HETATM   35  O   UNL     1     -22.852 -10.885  -3.082  1.00  0.00    -0.348 OA
HETATM   36  C   UNL     1     -21.739 -10.217  -2.514  1.00  0.00     0.291 C 
HETATM   37  C   UNL     1     -21.056  -9.429  -3.652  1.00  0.00     0.208 C 
HETATM   38  C   UNL     1     -20.398 -10.493  -4.576  1.00  0.00     0.186 C 
BRANCH  34  39
HETATM   39  C   UNL     1     -22.362 -13.249  -3.023  1.00  0.00     0.202 C 
BRANCH  39  40
HETATM   40  O   UNL     1     -23.619 -13.834  -2.647  1.00  0.00    -0.386 OA
BRANCH  40  41
HETATM   41  C   UNL     1     -23.833 -13.674  -1.234  1.00  0.00     0.199 C 
BRANCH  41  42
HETATM   42  C   UNL     1     -22.538 -13.522  -0.421  1.00  0.00     0.138 C 
HETATM   43  C   UNL     1     -22.609 -12.480   0.687  1.00  0.00     0.041 C 
BRANCH  42  44
HETATM   44  O   UNL     1     -22.213 -14.788   0.171  1.00  0.00    -0.394 OA
HETATM   45  H   UNL     1     -22.371 -15.488  -0.486  1.00  0.00     0.210 HD
ENDBRANCH  42  44
ENDBRANCH  41  42
ENDBRANCH  40  41
ENDBRANCH  39  40
ENDBRANCH  34  39
BRANCH  36  46
HETATM   46  O   UNL     1     -22.122  -9.305  -1.481  1.00  0.00    -0.356 OA
BRANCH  46  47
HETATM   47  C   UNL     1     -21.055  -8.947  -0.603  1.00  0.00     0.202 C 
BRANCH  47  48
HETATM   48  C   UNL     1     -21.572  -8.964   0.847  1.00  0.00     0.138 C 
HETATM   49  C   UNL     1     -20.455  -9.031   1.883  1.00  0.00     0.041 C 
BRANCH  48  50
HETATM   50  O   UNL     1     -22.345  -7.792   1.108  1.00  0.00    -0.394 OA
HETATM   51  H   UNL     1     -23.134  -8.080   1.602  1.00  0.00     0.210 HD
ENDBRANCH  48  50
ENDBRANCH  47  48
ENDBRANCH  46  47
ENDBRANCH  36  46
BRANCH  37  52
HETATM   52  O   UNL     1     -21.958  -8.532  -4.382  1.00  0.00    -0.376 OA
BRANCH  52  53
HETATM   53  C   UNL     1     -21.593  -7.144  -4.206  1.00  0.00     0.199 C 
BRANCH  53  54
HETATM   54  C   UNL     1     -21.476  -6.339  -5.510  1.00  0.00     0.138 C 
HETATM   55  C   UNL     1     -20.453  -5.218  -5.451  1.00  0.00     0.041 C 
BRANCH  54  56
HETATM   56  O   UNL     1     -21.144  -7.201  -6.597  1.00  0.00    -0.394 OA
HETATM   57  H   UNL     1     -21.979  -7.375  -7.069  1.00  0.00     0.210 HD
ENDBRANCH  54  56
ENDBRANCH  53  54
ENDBRANCH  52  53
ENDBRANCH  37  52
BRANCH  38  58
HETATM   58  O   UNL     1     -19.729  -9.856  -5.720  1.00  0.00    -0.378 OA
BRANCH  58  59
HETATM   59  C   UNL     1     -18.594  -9.067  -5.307  1.00  0.00     0.199 C 
BRANCH  59  60
HETATM   60  C   UNL     1     -17.529  -9.792  -4.452  1.00  0.00     0.138 C 
HETATM   61  C   UNL     1     -16.109  -9.771  -4.988  1.00  0.00     0.041 C 
BRANCH  60  62
HETATM   62  O   UNL     1     -17.526  -9.317  -3.107  1.00  0.00    -0.394 OA
HETATM   63  H   UNL     1     -17.190 -10.040  -2.544  1.00  0.00     0.210 HD
ENDBRANCH  60  62
ENDBRANCH  59  60
ENDBRANCH  58  59
ENDBRANCH  38  58
ENDBRANCH   1  33
TORSDOF 36
ENDMDL
