MODEL 1
REMARK VINA RESULT:      -3.4      0.000      0.000
REMARK  5 active torsions:
REMARK  status: ('A' for Active; 'I' for Inactive)
REMARK    1  A    between atoms: C_1  and  C_2 
REMARK    2  A    between atoms: C_1  and  S_5 
REMARK    3  A    between atoms: C_7  and  C_8 
REMARK    4  A    between atoms: C_7  and  S_11 
REMARK    5  A    between atoms: C_8  and  O_10 
ROOT
HETATM    1  C   UNL     1     -27.976  -7.047 -15.594  1.00  0.00     0.183 C 
ENDROOT
BRANCH   1   2
HETATM    2  C   UNL     1     -26.532  -6.714 -16.011  1.00  0.00     0.182 C 
HETATM    3  O   UNL     1     -26.394  -5.765 -16.841  1.00  0.00    -0.647 OA
HETATM    4  O   UNL     1     -25.652  -7.369 -15.389  1.00  0.00    -0.647 OA
ENDBRANCH   1   2
BRANCH   1   5
HETATM    5  S   UNL     1     -29.068  -6.869 -17.039  1.00  0.00    -0.172 SA
HETATM    6  H   UNL     1     -28.141  -6.225 -17.782  1.00  0.00     0.102 HD
ENDBRANCH   1   5
TORSDOF 5
ENDMDL
MODEL 2
REMARK VINA RESULT:      -3.4      6.266      6.344
REMARK  5 active torsions:
REMARK  status: ('A' for Active; 'I' for Inactive)
REMARK    1  A    between atoms: C_1  and  C_2 
REMARK    2  A    between atoms: C_1  and  S_5 
REMARK    3  A    between atoms: C_7  and  C_8 
REMARK    4  A    between atoms: C_7  and  S_11 
REMARK    5  A    between atoms: C_8  and  O_10 
ROOT
HETATM    1  C   UNL     1     -22.771  -2.894 -13.198  1.00  0.00     0.183 C 
ENDROOT
BRANCH   1   2
HETATM    2  C   UNL     1     -23.155  -2.391 -14.602  1.00  0.00     0.182 C 
HETATM    3  O   UNL     1     -24.125  -1.575 -14.657  1.00  0.00    -0.647 OA
HETATM    4  O   UNL     1     -22.383  -2.782 -15.518  1.00  0.00    -0.647 OA
ENDBRANCH   1   2
BRANCH   1   5
HETATM    5  S   UNL     1     -24.286  -3.156 -12.224  1.00  0.00    -0.172 SA
HETATM    6  H   UNL     1     -24.452  -4.430 -12.643  1.00  0.00     0.102 HD
ENDBRANCH   1   5
TORSDOF 5
ENDMDL
MODEL 3
REMARK VINA RESULT:      -3.3      8.756      9.048
REMARK  5 active torsions:
REMARK  status: ('A' for Active; 'I' for Inactive)
REMARK    1  A    between atoms: C_1  and  C_2 
REMARK    2  A    between atoms: C_1  and  S_5 
REMARK    3  A    between atoms: C_7  and  C_8 
REMARK    4  A    between atoms: C_7  and  S_11 
REMARK    5  A    between atoms: C_8  and  O_10 
ROOT
HETATM    1  C   UNL     1     -29.713 -15.546 -19.844  1.00  0.00     0.183 C 
ENDROOT
BRANCH   1   2
HETATM    2  C   UNL     1     -29.491 -14.439 -18.797  1.00  0.00     0.182 C 
HETATM    3  O   UNL     1     -28.630 -14.684 -17.899  1.00  0.00    -0.647 OA
HETATM    4  O   UNL     1     -30.130 -13.376 -19.028  1.00  0.00    -0.647 OA
ENDBRANCH   1   2
BRANCH   1   5
HETATM    5  S   UNL     1     -30.810 -14.917 -21.153  1.00  0.00    -0.172 SA
HETATM    6  H   UNL     1     -30.064 -15.427 -22.158  1.00  0.00     0.102 HD
ENDBRANCH   1   5
TORSDOF 5
ENDMDL
MODEL 4
REMARK VINA RESULT:      -3.1      6.921      7.197
REMARK  5 active torsions:
REMARK  status: ('A' for Active; 'I' for Inactive)
REMARK    1  A    between atoms: C_1  and  C_2 
REMARK    2  A    between atoms: C_1  and  S_5 
REMARK    3  A    between atoms: C_7  and  C_8 
REMARK    4  A    between atoms: C_7  and  S_11 
REMARK    5  A    between atoms: C_8  and  O_10 
ROOT
HETATM    1  C   UNL     1     -22.870  -2.927 -11.940  1.00  0.00     0.183 C 
ENDROOT
BRANCH   1   2
HETATM    2  C   UNL     1     -24.402  -3.077 -12.004  1.00  0.00     0.182 C 
HETATM    3  O   UNL     1     -24.995  -3.230 -10.892  1.00  0.00    -0.647 OA
HETATM    4  O   UNL     1     -24.887  -2.926 -13.157  1.00  0.00    -0.647 OA
ENDBRANCH   1   2
BRANCH   1   5
HETATM    5  S   UNL     1     -22.252  -3.756 -10.442  1.00  0.00    -0.172 SA
HETATM    6  H   UNL     1     -23.484  -3.930  -9.913  1.00  0.00     0.102 HD
ENDBRANCH   1   5
TORSDOF 5
ENDMDL
MODEL 5
REMARK VINA RESULT:      -3.1      7.158      7.482
REMARK  5 active torsions:
REMARK  status: ('A' for Active; 'I' for Inactive)
REMARK    1  A    between atoms: C_1  and  C_2 
REMARK    2  A    between atoms: C_1  and  S_5 
REMARK    3  A    between atoms: C_7  and  C_8 
REMARK    4  A    between atoms: C_7  and  S_11 
REMARK    5  A    between atoms: C_8  and  O_10 
ROOT
HETATM    1  C   UNL     1     -23.873  -4.270 -11.086  1.00  0.00     0.183 C 
ENDROOT
BRANCH   1   2
HETATM    2  C   UNL     1     -24.495  -3.740  -9.780  1.00  0.00     0.182 C 
HETATM    3  O   UNL     1     -23.793  -3.875  -8.732  1.00  0.00    -0.647 OA
HETATM    4  O   UNL     1     -25.593  -3.142  -9.939  1.00  0.00    -0.647 OA
ENDBRANCH   1   2
BRANCH   1   5
HETATM    5  S   UNL     1     -24.184  -3.075 -12.422  1.00  0.00    -0.172 SA
HETATM    6  H   UNL     1     -25.068  -3.872 -13.061  1.00  0.00     0.102 HD
ENDBRANCH   1   5
TORSDOF 5
ENDMDL
MODEL 6
REMARK VINA RESULT:      -3.0      7.399      7.624
REMARK  5 active torsions:
REMARK  status: ('A' for Active; 'I' for Inactive)
REMARK    1  A    between atoms: C_1  and  C_2 
REMARK    2  A    between atoms: C_1  and  S_5 
REMARK    3  A    between atoms: C_7  and  C_8 
REMARK    4  A    between atoms: C_7  and  S_11 
REMARK    5  A    between atoms: C_8  and  O_10 
ROOT
HETATM    1  C   UNL     1     -23.235  -3.738  -9.968  1.00  0.00     0.183 C 
ENDROOT
BRANCH   1   2
HETATM    2  C   UNL     1     -24.546  -3.266 -10.623  1.00  0.00     0.182 C 
HETATM    3  O   UNL     1     -25.558  -3.198  -9.861  1.00  0.00    -0.647 OA
HETATM    4  O   UNL     1     -24.422  -2.906 -11.825  1.00  0.00    -0.647 OA
ENDBRANCH   1   2
BRANCH   1   5
HETATM    5  S   UNL     1     -22.020  -4.112 -11.270  1.00  0.00    -0.172 SA
HETATM    6  H   UNL     1     -22.610  -5.276 -11.622  1.00  0.00     0.102 HD
ENDBRANCH   1   5
TORSDOF 5
ENDMDL
MODEL 7
REMARK VINA RESULT:      -3.0      1.473      2.064
REMARK  5 active torsions:
REMARK  status: ('A' for Active; 'I' for Inactive)
REMARK    1  A    between atoms: C_1  and  C_2 
REMARK    2  A    between atoms: C_1  and  S_5 
REMARK    3  A    between atoms: C_7  and  C_8 
REMARK    4  A    between atoms: C_7  and  S_11 
REMARK    5  A    between atoms: C_8  and  O_10 
ROOT
HETATM    1  C   UNL     1     -29.483  -6.468 -16.399  1.00  0.00     0.183 C 
ENDROOT
BRANCH   1   2
HETATM    2  C   UNL     1     -28.031  -6.685 -15.934  1.00  0.00     0.182 C 
HETATM    3  O   UNL     1     -27.856  -7.569 -15.041  1.00  0.00    -0.647 OA
HETATM    4  O   UNL     1     -27.179  -6.018 -16.580  1.00  0.00    -0.647 OA
ENDBRANCH   1   2
BRANCH   1   5
HETATM    5  S   UNL     1     -29.774  -7.434 -17.913  1.00  0.00    -0.172 SA
HETATM    6  H   UNL     1     -31.118  -7.301 -17.857  1.00  0.00     0.102 HD
ENDBRANCH   1   5
TORSDOF 5
ENDMDL
MODEL 8
REMARK VINA RESULT:      -2.7     16.451     16.882
REMARK  5 active torsions:
REMARK  status: ('A' for Active; 'I' for Inactive)
REMARK    1  A    between atoms: C_1  and  C_2 
REMARK    2  A    between atoms: C_1  and  S_5 
REMARK    3  A    between atoms: C_7  and  C_8 
REMARK    4  A    between atoms: C_7  and  S_11 
REMARK    5  A    between atoms: C_8  and  O_10 
ROOT
HETATM    1  C   UNL     1     -27.017   9.924 -22.129  1.00  0.00     0.183 C 
ENDROOT
BRANCH   1   2
HETATM    2  C   UNL     1     -26.576   8.614 -21.450  1.00  0.00     0.182 C 
HETATM    3  O   UNL     1     -27.404   7.654 -21.497  1.00  0.00    -0.647 OA
HETATM    4  O   UNL     1     -25.392   8.632 -21.017  1.00  0.00    -0.647 OA
ENDBRANCH   1   2
BRANCH   1   5
HETATM    5  S   UNL     1     -27.649  11.068 -20.862  1.00  0.00    -0.172 SA
HETATM    6  H   UNL     1     -28.073  10.080 -20.043  1.00  0.00     0.102 HD
ENDBRANCH   1   5
TORSDOF 5
ENDMDL
MODEL 9
REMARK VINA RESULT:      -2.7     20.826     21.212
REMARK  5 active torsions:
REMARK  status: ('A' for Active; 'I' for Inactive)
REMARK    1  A    between atoms: C_1  and  C_2 
REMARK    2  A    between atoms: C_1  and  S_5 
REMARK    3  A    between atoms: C_7  and  C_8 
REMARK    4  A    between atoms: C_7  and  S_11 
REMARK    5  A    between atoms: C_8  and  O_10 
ROOT
HETATM    1  C   UNL     1     -10.991   5.282 -20.430  1.00  0.00     0.183 C 
ENDROOT
BRANCH   1   2
HETATM    2  C   UNL     1      -9.764   5.794 -19.653  1.00  0.00     0.182 C 
HETATM    3  O   UNL     1      -8.821   6.275 -20.353  1.00  0.00    -0.647 OA
HETATM    4  O   UNL     1      -9.897   5.762 -18.400  1.00  0.00    -0.647 OA
ENDBRANCH   1   2
BRANCH   1   5
HETATM    5  S   UNL     1     -11.122   3.480 -20.215  1.00  0.00    -0.172 SA
HETATM    6  H   UNL     1      -9.818   3.255 -20.488  1.00  0.00     0.102 HD
ENDBRANCH   1   5
TORSDOF 5
ENDMDL
