MODEL 1
REMARK VINA RESULT:      -7.1      0.000      0.000
REMARK  16 active torsions:
REMARK  status: ('A' for Active; 'I' for Inactive)
REMARK    1  A    between atoms: C_2  and  C_3 
REMARK    2  A    between atoms: C_3  and  C_4 
REMARK    3  A    between atoms: C_4  and  C_5 
REMARK    4  A    between atoms: C_5  and  C_6 
REMARK    5  A    between atoms: C_6  and  C_7 
REMARK    6  A    between atoms: C_7  and  C_8 
REMARK    7  A    between atoms: C_8  and  C_9 
REMARK    8  A    between atoms: C_10  and  C_11 
REMARK    9  A    between atoms: C_11  and  C_12 
REMARK   10  A    between atoms: C_12  and  C_13 
REMARK   11  A    between atoms: C_13  and  C_14 
REMARK   12  A    between atoms: C_14  and  C_15 
REMARK   13  A    between atoms: C_15  and  C_16 
REMARK   14  A    between atoms: C_16  and  C_17 
REMARK   15  A    between atoms: C_17  and  C_18 
REMARK   16  A    between atoms: C_18  and  O_20 
ROOT
HETATM    1  C   UNL     1     -20.165  -4.620  -6.619  1.00  0.00     0.027 C 
ENDROOT
BRANCH   1   2
HETATM    2  C   UNL     1     -20.615  -5.197  -5.316  1.00  0.00    -0.031 C 
HETATM    3  C   UNL     1     -21.595  -6.102  -5.236  1.00  0.00    -0.031 C 
BRANCH   3   4
HETATM    4  C   UNL     1     -22.039  -6.685  -3.935  1.00  0.00     0.027 C 
BRANCH   4   5
HETATM    5  C   UNL     1     -21.006  -7.669  -3.406  1.00  0.00     0.004 C 
BRANCH   5   6
HETATM    6  C   UNL     1     -20.813  -7.469  -1.911  1.00  0.00     0.000 C 
BRANCH   6   7
HETATM    7  C   UNL     1     -22.135  -7.103  -1.257  1.00  0.00     0.000 C 
BRANCH   7   8
HETATM    8  C   UNL     1     -22.149  -7.563   0.193  1.00  0.00     0.000 C 
BRANCH   8   9
HETATM    9  C   UNL     1     -23.237  -8.604   0.402  1.00  0.00    -0.000 C 
BRANCH   9  10
HETATM   10  C   UNL     1     -22.925  -9.870  -0.385  1.00  0.00    -0.005 C 
HETATM   11  C   UNL     1     -24.018 -10.901  -0.186  1.00  0.00     0.005 C 
ENDBRANCH   9  10
ENDBRANCH   8   9
ENDBRANCH   7   8
ENDBRANCH   6   7
ENDBRANCH   5   6
ENDBRANCH   4   5
ENDBRANCH   3   4
ENDBRANCH   1   2
BRANCH   1  12
HETATM   12  C   UNL     1     -20.766  -5.397  -7.782  1.00  0.00     0.004 C 
BRANCH  12  13
HETATM   13  C   UNL     1     -21.122  -4.446  -8.917  1.00  0.00     0.000 C 
BRANCH  13  14
HETATM   14  C   UNL     1     -20.075  -4.518 -10.019  1.00  0.00     0.000 C 
BRANCH  14  15
HETATM   15  C   UNL     1     -20.588  -3.844 -11.291  1.00  0.00     0.001 C 
BRANCH  15  16
HETATM   16  C   UNL     1     -22.006  -3.339 -11.083  1.00  0.00     0.010 C 
BRANCH  16  17
HETATM   17  C   UNL     1     -22.735  -3.119 -12.402  1.00  0.00     0.110 C 
BRANCH  17  18
HETATM   18  C   UNL     1     -24.217  -2.900 -12.149  1.00  0.00     0.139 C 
HETATM   19  O   UNL     1     -24.789  -3.228 -11.123  1.00  0.00    -0.650 OA
BRANCH  18  20
HETATM   20  O   UNL     1     -24.868  -2.306 -13.165  1.00  0.00    -0.776 OA
HETATM   21  H   UNL     1     -24.829  -2.788 -14.012  1.00  0.00     0.167 HD
ENDBRANCH  18  20
ENDBRANCH  17  18
ENDBRANCH  16  17
ENDBRANCH  15  16
ENDBRANCH  14  15
ENDBRANCH  13  14
ENDBRANCH  12  13
ENDBRANCH   1  12
TORSDOF 16
ENDMDL
MODEL 2
REMARK VINA RESULT:      -7.0      1.506      1.910
REMARK  16 active torsions:
REMARK  status: ('A' for Active; 'I' for Inactive)
REMARK    1  A    between atoms: C_2  and  C_3 
REMARK    2  A    between atoms: C_3  and  C_4 
REMARK    3  A    between atoms: C_4  and  C_5 
REMARK    4  A    between atoms: C_5  and  C_6 
REMARK    5  A    between atoms: C_6  and  C_7 
REMARK    6  A    between atoms: C_7  and  C_8 
REMARK    7  A    between atoms: C_8  and  C_9 
REMARK    8  A    between atoms: C_10  and  C_11 
REMARK    9  A    between atoms: C_11  and  C_12 
REMARK   10  A    between atoms: C_12  and  C_13 
REMARK   11  A    between atoms: C_13  and  C_14 
REMARK   12  A    between atoms: C_14  and  C_15 
REMARK   13  A    between atoms: C_15  and  C_16 
REMARK   14  A    between atoms: C_16  and  C_17 
REMARK   15  A    between atoms: C_17  and  C_18 
REMARK   16  A    between atoms: C_18  and  O_20 
ROOT
HETATM    1  C   UNL     1     -20.356  -3.940  -7.726  1.00  0.00     0.027 C 
ENDROOT
BRANCH   1   2
HETATM    2  C   UNL     1     -20.958  -4.497  -6.477  1.00  0.00    -0.031 C 
HETATM    3  C   UNL     1     -21.668  -5.629  -6.468  1.00  0.00    -0.031 C 
BRANCH   3   4
HETATM    4  C   UNL     1     -22.263  -6.190  -5.219  1.00  0.00     0.027 C 
BRANCH   4   5
HETATM    5  C   UNL     1     -21.566  -7.484  -4.826  1.00  0.00     0.004 C 
BRANCH   5   6
HETATM    6  C   UNL     1     -21.000  -7.365  -3.419  1.00  0.00     0.000 C 
BRANCH   6   7
HETATM    7  C   UNL     1     -21.702  -6.248  -2.665  1.00  0.00     0.000 C 
BRANCH   7   8
HETATM    8  C   UNL     1     -22.145  -6.737  -1.295  1.00  0.00     0.000 C 
BRANCH   8   9
HETATM    9  C   UNL     1     -21.261  -7.887  -0.838  1.00  0.00    -0.000 C 
BRANCH   9  10
HETATM   10  C   UNL     1     -22.005  -8.772   0.154  1.00  0.00    -0.005 C 
HETATM   11  C   UNL     1     -23.280  -8.094   0.616  1.00  0.00     0.005 C 
ENDBRANCH   9  10
ENDBRANCH   8   9
ENDBRANCH   7   8
ENDBRANCH   6   7
ENDBRANCH   5   6
ENDBRANCH   4   5
ENDBRANCH   3   4
ENDBRANCH   1   2
BRANCH   1  12
HETATM   12  C   UNL     1     -19.804  -5.061  -8.596  1.00  0.00     0.004 C 
BRANCH  12  13
HETATM   13  C   UNL     1     -20.162  -4.813 -10.055  1.00  0.00     0.000 C 
BRANCH  13  14
HETATM   14  C   UNL     1     -20.513  -3.348 -10.274  1.00  0.00     0.000 C 
BRANCH  14  15
HETATM   15  C   UNL     1     -21.555  -3.206 -11.382  1.00  0.00     0.001 C 
BRANCH  15  16
HETATM   16  C   UNL     1     -22.602  -4.302 -11.263  1.00  0.00     0.010 C 
BRANCH  16  17
HETATM   17  C   UNL     1     -24.019  -3.741 -11.250  1.00  0.00     0.110 C 
BRANCH  17  18
HETATM   18  C   UNL     1     -24.516  -3.614  -9.820  1.00  0.00     0.139 C 
HETATM   19  O   UNL     1     -23.846  -3.888  -8.838  1.00  0.00    -0.650 OA
BRANCH  18  20
HETATM   20  O   UNL     1     -25.780  -3.168  -9.713  1.00  0.00    -0.776 OA
HETATM   21  H   UNL     1     -26.236  -3.427  -8.891  1.00  0.00     0.167 HD
ENDBRANCH  18  20
ENDBRANCH  17  18
ENDBRANCH  16  17
ENDBRANCH  15  16
ENDBRANCH  14  15
ENDBRANCH  13  14
ENDBRANCH  12  13
ENDBRANCH   1  12
TORSDOF 16
ENDMDL
MODEL 3
REMARK VINA RESULT:      -6.9      1.312      1.857
REMARK  16 active torsions:
REMARK  status: ('A' for Active; 'I' for Inactive)
REMARK    1  A    between atoms: C_2  and  C_3 
REMARK    2  A    between atoms: C_3  and  C_4 
REMARK    3  A    between atoms: C_4  and  C_5 
REMARK    4  A    between atoms: C_5  and  C_6 
REMARK    5  A    between atoms: C_6  and  C_7 
REMARK    6  A    between atoms: C_7  and  C_8 
REMARK    7  A    between atoms: C_8  and  C_9 
REMARK    8  A    between atoms: C_10  and  C_11 
REMARK    9  A    between atoms: C_11  and  C_12 
REMARK   10  A    between atoms: C_12  and  C_13 
REMARK   11  A    between atoms: C_13  and  C_14 
REMARK   12  A    between atoms: C_14  and  C_15 
REMARK   13  A    between atoms: C_15  and  C_16 
REMARK   14  A    between atoms: C_16  and  C_17 
REMARK   15  A    between atoms: C_17  and  C_18 
REMARK   16  A    between atoms: C_18  and  O_20 
ROOT
HETATM    1  C   UNL     1     -20.002  -6.023  -6.788  1.00  0.00     0.027 C 
ENDROOT
BRANCH   1   2
HETATM    2  C   UNL     1     -20.457  -6.778  -5.582  1.00  0.00    -0.031 C 
HETATM    3  C   UNL     1     -21.100  -6.189  -4.570  1.00  0.00    -0.031 C 
BRANCH   3   4
HETATM    4  C   UNL     1     -21.561  -6.945  -3.368  1.00  0.00     0.027 C 
BRANCH   4   5
HETATM    5  C   UNL     1     -22.033  -5.990  -2.281  1.00  0.00     0.004 C 
BRANCH   5   6
HETATM    6  C   UNL     1     -22.373  -6.765  -1.017  1.00  0.00     0.000 C 
BRANCH   6   7
HETATM    7  C   UNL     1     -21.547  -8.038  -0.946  1.00  0.00     0.000 C 
BRANCH   7   8
HETATM    8  C   UNL     1     -21.989  -8.885   0.237  1.00  0.00     0.000 C 
BRANCH   8   9
HETATM    9  C   UNL     1     -21.581 -10.334   0.026  1.00  0.00    -0.000 C 
BRANCH   9  10
HETATM   10  C   UNL     1     -22.535 -11.024  -0.940  1.00  0.00    -0.005 C 
HETATM   11  C   UNL     1     -23.927 -11.102  -0.344  1.00  0.00     0.005 C 
ENDBRANCH   9  10
ENDBRANCH   8   9
ENDBRANCH   7   8
ENDBRANCH   6   7
ENDBRANCH   5   6
ENDBRANCH   4   5
ENDBRANCH   3   4
ENDBRANCH   1   2
BRANCH   1  12
HETATM   12  C   UNL     1     -20.194  -4.526  -6.583  1.00  0.00     0.004 C 
BRANCH  12  13
HETATM   13  C   UNL     1     -20.256  -3.819  -7.930  1.00  0.00     0.000 C 
BRANCH  13  14
HETATM   14  C   UNL     1     -20.746  -4.773  -9.010  1.00  0.00     0.000 C 
BRANCH  14  15
HETATM   15  C   UNL     1     -20.616  -4.133 -10.391  1.00  0.00     0.001 C 
BRANCH  15  16
HETATM   16  C   UNL     1     -21.991  -3.802 -10.949  1.00  0.00     0.010 C 
BRANCH  16  17
HETATM   17  C   UNL     1     -23.089  -4.632 -10.295  1.00  0.00     0.110 C 
BRANCH  17  18
HETATM   18  C   UNL     1     -24.241  -3.734  -9.876  1.00  0.00     0.139 C 
HETATM   19  O   UNL     1     -25.040  -3.243 -10.656  1.00  0.00    -0.650 OA
BRANCH  18  20
HETATM   20  O   UNL     1     -24.317  -3.514  -8.552  1.00  0.00    -0.776 OA
HETATM   21  H   UNL     1     -24.332  -2.574  -8.295  1.00  0.00     0.167 HD
ENDBRANCH  18  20
ENDBRANCH  17  18
ENDBRANCH  16  17
ENDBRANCH  15  16
ENDBRANCH  14  15
ENDBRANCH  13  14
ENDBRANCH  12  13
ENDBRANCH   1  12
TORSDOF 16
ENDMDL
MODEL 4
REMARK VINA RESULT:      -6.5      2.051      3.561
REMARK  16 active torsions:
REMARK  status: ('A' for Active; 'I' for Inactive)
REMARK    1  A    between atoms: C_2  and  C_3 
REMARK    2  A    between atoms: C_3  and  C_4 
REMARK    3  A    between atoms: C_4  and  C_5 
REMARK    4  A    between atoms: C_5  and  C_6 
REMARK    5  A    between atoms: C_6  and  C_7 
REMARK    6  A    between atoms: C_7  and  C_8 
REMARK    7  A    between atoms: C_8  and  C_9 
REMARK    8  A    between atoms: C_10  and  C_11 
REMARK    9  A    between atoms: C_11  and  C_12 
REMARK   10  A    between atoms: C_12  and  C_13 
REMARK   11  A    between atoms: C_13  and  C_14 
REMARK   12  A    between atoms: C_14  and  C_15 
REMARK   13  A    between atoms: C_15  and  C_16 
REMARK   14  A    between atoms: C_16  and  C_17 
REMARK   15  A    between atoms: C_17  and  C_18 
REMARK   16  A    between atoms: C_18  and  O_20 
ROOT
HETATM    1  C   UNL     1     -21.328  -3.987  -9.564  1.00  0.00     0.027 C 
ENDROOT
BRANCH   1   2
HETATM    2  C   UNL     1     -20.671  -4.689  -8.419  1.00  0.00    -0.031 C 
HETATM    3  C   UNL     1     -20.470  -4.098  -7.238  1.00  0.00    -0.031 C 
BRANCH   3   4
HETATM    4  C   UNL     1     -19.821  -4.801  -6.092  1.00  0.00     0.027 C 
BRANCH   4   5
HETATM    5  C   UNL     1     -20.839  -5.630  -5.324  1.00  0.00     0.004 C 
BRANCH   5   6
HETATM    6  C   UNL     1     -20.732  -7.093  -5.728  1.00  0.00     0.000 C 
BRANCH   6   7
HETATM    7  C   UNL     1     -21.209  -7.985  -4.594  1.00  0.00     0.000 C 
BRANCH   7   8
HETATM    8  C   UNL     1     -20.067  -8.262  -3.629  1.00  0.00     0.000 C 
BRANCH   8   9
HETATM    9  C   UNL     1     -20.506  -7.978  -2.201  1.00  0.00    -0.000 C 
BRANCH   9  10
HETATM   10  C   UNL     1     -21.965  -7.539  -2.168  1.00  0.00    -0.005 C 
HETATM   11  C   UNL     1     -22.078  -6.112  -1.670  1.00  0.00     0.005 C 
ENDBRANCH   9  10
ENDBRANCH   8   9
ENDBRANCH   7   8
ENDBRANCH   6   7
ENDBRANCH   5   6
ENDBRANCH   4   5
ENDBRANCH   3   4
ENDBRANCH   1   2
BRANCH   1  12
HETATM   12  C   UNL     1     -22.564  -4.751 -10.018  1.00  0.00     0.004 C 
BRANCH  12  13
HETATM   13  C   UNL     1     -23.821  -4.058  -9.512  1.00  0.00     0.000 C 
BRANCH  13  14
HETATM   14  C   UNL     1     -24.547  -3.370 -10.660  1.00  0.00     0.000 C 
BRANCH  14  15
HETATM   15  C   UNL     1     -23.873  -3.694 -11.992  1.00  0.00     0.001 C 
BRANCH  15  16
HETATM   16  C   UNL     1     -23.393  -2.417 -12.662  1.00  0.00     0.010 C 
BRANCH  16  17
HETATM   17  C   UNL     1     -23.266  -2.576 -14.172  1.00  0.00     0.110 C 
BRANCH  17  18
HETATM   18  C   UNL     1     -23.682  -1.291 -14.868  1.00  0.00     0.139 C 
HETATM   19  O   UNL     1     -22.991  -0.703 -15.684  1.00  0.00    -0.650 OA
BRANCH  18  20
HETATM   20  O   UNL     1     -24.896  -0.837 -14.509  1.00  0.00    -0.776 OA
HETATM   21  H   UNL     1     -25.639  -1.221 -15.009  1.00  0.00     0.167 HD
ENDBRANCH  18  20
ENDBRANCH  17  18
ENDBRANCH  16  17
ENDBRANCH  15  16
ENDBRANCH  14  15
ENDBRANCH  13  14
ENDBRANCH  12  13
ENDBRANCH   1  12
TORSDOF 16
ENDMDL
MODEL 5
REMARK VINA RESULT:      -6.5      1.434      2.631
REMARK  16 active torsions:
REMARK  status: ('A' for Active; 'I' for Inactive)
REMARK    1  A    between atoms: C_2  and  C_3 
REMARK    2  A    between atoms: C_3  and  C_4 
REMARK    3  A    between atoms: C_4  and  C_5 
REMARK    4  A    between atoms: C_5  and  C_6 
REMARK    5  A    between atoms: C_6  and  C_7 
REMARK    6  A    between atoms: C_7  and  C_8 
REMARK    7  A    between atoms: C_8  and  C_9 
REMARK    8  A    between atoms: C_10  and  C_11 
REMARK    9  A    between atoms: C_11  and  C_12 
REMARK   10  A    between atoms: C_12  and  C_13 
REMARK   11  A    between atoms: C_13  and  C_14 
REMARK   12  A    between atoms: C_14  and  C_15 
REMARK   13  A    between atoms: C_15  and  C_16 
REMARK   14  A    between atoms: C_16  and  C_17 
REMARK   15  A    between atoms: C_17  and  C_18 
REMARK   16  A    between atoms: C_18  and  O_20 
ROOT
HETATM    1  C   UNL     1     -21.776  -6.308  -5.317  1.00  0.00     0.027 C 
ENDROOT
BRANCH   1   2
HETATM    2  C   UNL     1     -21.889  -6.868  -3.936  1.00  0.00    -0.031 C 
HETATM    3  C   UNL     1     -22.024  -6.090  -2.858  1.00  0.00    -0.031 C 
BRANCH   3   4
HETATM    4  C   UNL     1     -22.144  -6.649  -1.478  1.00  0.00     0.027 C 
BRANCH   4   5
HETATM    5  C   UNL     1     -21.629  -8.080  -1.432  1.00  0.00     0.004 C 
BRANCH   5   6
HETATM    6  C   UNL     1     -21.211  -8.439  -0.014  1.00  0.00     0.000 C 
BRANCH   6   7
HETATM    7  C   UNL     1     -21.793  -9.787   0.377  1.00  0.00     0.000 C 
BRANCH   7   8
HETATM    8  C   UNL     1     -23.177  -9.957  -0.228  1.00  0.00     0.000 C 
BRANCH   8   9
HETATM    9  C   UNL     1     -23.647 -11.394  -0.068  1.00  0.00    -0.000 C 
BRANCH   9  10
HETATM   10  C   UNL     1     -22.626 -12.206   0.718  1.00  0.00    -0.005 C 
HETATM   11  C   UNL     1     -23.274 -13.442   1.310  1.00  0.00     0.005 C 
ENDBRANCH   9  10
ENDBRANCH   8   9
ENDBRANCH   7   8
ENDBRANCH   6   7
ENDBRANCH   5   6
ENDBRANCH   4   5
ENDBRANCH   3   4
ENDBRANCH   1   2
BRANCH   1  12
HETATM   12  C   UNL     1     -20.727  -5.206  -5.360  1.00  0.00     0.004 C 
BRANCH  12  13
HETATM   13  C   UNL     1     -19.778  -5.435  -6.528  1.00  0.00     0.000 C 
BRANCH  13  14
HETATM   14  C   UNL     1     -20.533  -5.370  -7.848  1.00  0.00     0.000 C 
BRANCH  14  15
HETATM   15  C   UNL     1     -19.987  -4.242  -8.723  1.00  0.00     0.001 C 
BRANCH  15  16
HETATM   16  C   UNL     1     -20.126  -4.604 -10.193  1.00  0.00     0.010 C 
BRANCH  16  17
HETATM   17  C   UNL     1     -20.673  -3.446 -11.018  1.00  0.00     0.110 C 
BRANCH  17  18
HETATM   18  C   UNL     1     -21.859  -3.911 -11.846  1.00  0.00     0.139 C 
HETATM   19  O   UNL     1     -22.783  -4.573 -11.403  1.00  0.00    -0.650 OA
BRANCH  18  20
HETATM   20  O   UNL     1     -21.815  -3.532 -13.136  1.00  0.00    -0.776 OA
HETATM   21  H   UNL     1     -21.429  -2.649 -13.288  1.00  0.00     0.167 HD
ENDBRANCH  18  20
ENDBRANCH  17  18
ENDBRANCH  16  17
ENDBRANCH  15  16
ENDBRANCH  14  15
ENDBRANCH  13  14
ENDBRANCH  12  13
ENDBRANCH   1  12
TORSDOF 16
ENDMDL
MODEL 6
REMARK VINA RESULT:      -6.4      1.949      3.760
REMARK  16 active torsions:
REMARK  status: ('A' for Active; 'I' for Inactive)
REMARK    1  A    between atoms: C_2  and  C_3 
REMARK    2  A    between atoms: C_3  and  C_4 
REMARK    3  A    between atoms: C_4  and  C_5 
REMARK    4  A    between atoms: C_5  and  C_6 
REMARK    5  A    between atoms: C_6  and  C_7 
REMARK    6  A    between atoms: C_7  and  C_8 
REMARK    7  A    between atoms: C_8  and  C_9 
REMARK    8  A    between atoms: C_10  and  C_11 
REMARK    9  A    between atoms: C_11  and  C_12 
REMARK   10  A    between atoms: C_12  and  C_13 
REMARK   11  A    between atoms: C_13  and  C_14 
REMARK   12  A    between atoms: C_14  and  C_15 
REMARK   13  A    between atoms: C_15  and  C_16 
REMARK   14  A    between atoms: C_16  and  C_17 
REMARK   15  A    between atoms: C_17  and  C_18 
REMARK   16  A    between atoms: C_18  and  O_20 
ROOT
HETATM    1  C   UNL     1     -21.241  -6.040  -3.419  1.00  0.00     0.027 C 
ENDROOT
BRANCH   1   2
HETATM    2  C   UNL     1     -22.017  -6.146  -2.147  1.00  0.00    -0.031 C 
HETATM    3  C   UNL     1     -21.950  -7.220  -1.355  1.00  0.00    -0.031 C 
BRANCH   3   4
HETATM    4  C   UNL     1     -22.719  -7.323  -0.080  1.00  0.00     0.027 C 
BRANCH   4   5
HETATM    5  C   UNL     1     -22.623  -8.729   0.494  1.00  0.00     0.004 C 
BRANCH   5   6
HETATM    6  C   UNL     1     -21.238  -8.960   1.080  1.00  0.00     0.000 C 
BRANCH   6   7
HETATM    7  C   UNL     1     -20.682 -10.289   0.598  1.00  0.00     0.000 C 
BRANCH   7   8
HETATM    8  C   UNL     1     -21.801 -11.311   0.469  1.00  0.00     0.000 C 
BRANCH   8   9
HETATM    9  C   UNL     1     -21.693 -12.042  -0.860  1.00  0.00    -0.000 C 
BRANCH   9  10
HETATM   10  C   UNL     1     -22.810 -11.609  -1.800  1.00  0.00    -0.005 C 
HETATM   11  C   UNL     1     -24.140 -11.596  -1.073  1.00  0.00     0.005 C 
ENDBRANCH   9  10
ENDBRANCH   8   9
ENDBRANCH   7   8
ENDBRANCH   6   7
ENDBRANCH   5   6
ENDBRANCH   4   5
ENDBRANCH   3   4
ENDBRANCH   1   2
BRANCH   1  12
HETATM   12  C   UNL     1     -21.943  -6.802  -4.536  1.00  0.00     0.004 C 
BRANCH  12  13
HETATM   13  C   UNL     1     -21.482  -6.283  -5.891  1.00  0.00     0.000 C 
BRANCH  13  14
HETATM   14  C   UNL     1     -20.362  -5.268  -5.719  1.00  0.00     0.000 C 
BRANCH  14  15
HETATM   15  C   UNL     1     -20.054  -4.578  -7.046  1.00  0.00     0.001 C 
BRANCH  15  16
HETATM   16  C   UNL     1     -20.979  -5.097  -8.135  1.00  0.00     0.010 C 
BRANCH  16  17
HETATM   17  C   UNL     1     -21.705  -3.968  -8.856  1.00  0.00     0.110 C 
BRANCH  17  18
HETATM   18  C   UNL     1     -23.185  -4.292  -8.973  1.00  0.00     0.139 C 
HETATM   19  O   UNL     1     -23.713  -4.705  -9.992  1.00  0.00    -0.650 OA
BRANCH  18  20
HETATM   20  O   UNL     1     -23.886  -4.083  -7.845  1.00  0.00    -0.776 OA
HETATM   21  H   UNL     1     -23.687  -4.704  -7.120  1.00  0.00     0.167 HD
ENDBRANCH  18  20
ENDBRANCH  17  18
ENDBRANCH  16  17
ENDBRANCH  15  16
ENDBRANCH  14  15
ENDBRANCH  13  14
ENDBRANCH  12  13
ENDBRANCH   1  12
TORSDOF 16
ENDMDL
MODEL 7
REMARK VINA RESULT:      -6.4      1.724      3.074
REMARK  16 active torsions:
REMARK  status: ('A' for Active; 'I' for Inactive)
REMARK    1  A    between atoms: C_2  and  C_3 
REMARK    2  A    between atoms: C_3  and  C_4 
REMARK    3  A    between atoms: C_4  and  C_5 
REMARK    4  A    between atoms: C_5  and  C_6 
REMARK    5  A    between atoms: C_6  and  C_7 
REMARK    6  A    between atoms: C_7  and  C_8 
REMARK    7  A    between atoms: C_8  and  C_9 
REMARK    8  A    between atoms: C_10  and  C_11 
REMARK    9  A    between atoms: C_11  and  C_12 
REMARK   10  A    between atoms: C_12  and  C_13 
REMARK   11  A    between atoms: C_13  and  C_14 
REMARK   12  A    between atoms: C_14  and  C_15 
REMARK   13  A    between atoms: C_15  and  C_16 
REMARK   14  A    between atoms: C_16  and  C_17 
REMARK   15  A    between atoms: C_17  and  C_18 
REMARK   16  A    between atoms: C_18  and  O_20 
ROOT
HETATM    1  C   UNL     1     -21.339  -7.527  -5.250  1.00  0.00     0.027 C 
ENDROOT
BRANCH   1   2
HETATM    2  C   UNL     1     -21.187  -7.154  -3.811  1.00  0.00    -0.031 C 
HETATM    3  C   UNL     1     -21.117  -8.068  -2.839  1.00  0.00    -0.031 C 
BRANCH   3   4
HETATM    4  C   UNL     1     -20.958  -7.696  -1.402  1.00  0.00     0.027 C 
BRANCH   4   5
HETATM    5  C   UNL     1     -22.315  -7.466  -0.753  1.00  0.00     0.004 C 
BRANCH   5   6
HETATM    6  C   UNL     1     -22.573  -8.525   0.307  1.00  0.00     0.000 C 
BRANCH   6   7
HETATM    7  C   UNL     1     -23.109  -9.792  -0.338  1.00  0.00     0.000 C 
BRANCH   7   8
HETATM    8  C   UNL     1     -22.342 -11.004   0.167  1.00  0.00     0.000 C 
BRANCH   8   9
HETATM    9  C   UNL     1     -21.008 -10.572   0.754  1.00  0.00    -0.000 C 
BRANCH   9  10
HETATM   10  C   UNL     1     -19.884 -11.462   0.238  1.00  0.00    -0.005 C 
HETATM   11  C   UNL     1     -19.545 -11.110  -1.197  1.00  0.00     0.005 C 
ENDBRANCH   9  10
ENDBRANCH   8   9
ENDBRANCH   7   8
ENDBRANCH   6   7
ENDBRANCH   5   6
ENDBRANCH   4   5
ENDBRANCH   3   4
ENDBRANCH   1   2
BRANCH   1  12
HETATM   12  C   UNL     1     -21.686  -6.300  -6.084  1.00  0.00     0.004 C 
BRANCH  12  13
HETATM   13  C   UNL     1     -20.427  -5.733  -6.725  1.00  0.00     0.000 C 
BRANCH  13  14
HETATM   14  C   UNL     1     -20.678  -4.320  -7.232  1.00  0.00     0.000 C 
BRANCH  14  15
HETATM   15  C   UNL     1     -22.158  -4.124  -7.561  1.00  0.00     0.001 C 
BRANCH  15  16
HETATM   16  C   UNL     1     -22.321  -3.692  -9.010  1.00  0.00     0.010 C 
BRANCH  16  17
HETATM   17  C   UNL     1     -23.461  -4.429  -9.702  1.00  0.00     0.110 C 
BRANCH  17  18
HETATM   18  C   UNL     1     -24.536  -3.444 -10.126  1.00  0.00     0.139 C 
HETATM   19  O   UNL     1     -24.879  -3.265 -11.283  1.00  0.00    -0.650 OA
BRANCH  18  20
HETATM   20  O   UNL     1     -25.097  -2.766  -9.109  1.00  0.00    -0.776 OA
HETATM   21  H   UNL     1     -25.904  -2.273  -9.343  1.00  0.00     0.167 HD
ENDBRANCH  18  20
ENDBRANCH  17  18
ENDBRANCH  16  17
ENDBRANCH  15  16
ENDBRANCH  14  15
ENDBRANCH  13  14
ENDBRANCH  12  13
ENDBRANCH   1  12
TORSDOF 16
ENDMDL
MODEL 8
REMARK VINA RESULT:      -6.2     13.004     15.135
REMARK  16 active torsions:
REMARK  status: ('A' for Active; 'I' for Inactive)
REMARK    1  A    between atoms: C_2  and  C_3 
REMARK    2  A    between atoms: C_3  and  C_4 
REMARK    3  A    between atoms: C_4  and  C_5 
REMARK    4  A    between atoms: C_5  and  C_6 
REMARK    5  A    between atoms: C_6  and  C_7 
REMARK    6  A    between atoms: C_7  and  C_8 
REMARK    7  A    between atoms: C_8  and  C_9 
REMARK    8  A    between atoms: C_10  and  C_11 
REMARK    9  A    between atoms: C_11  and  C_12 
REMARK   10  A    between atoms: C_12  and  C_13 
REMARK   11  A    between atoms: C_13  and  C_14 
REMARK   12  A    between atoms: C_14  and  C_15 
REMARK   13  A    between atoms: C_15  and  C_16 
REMARK   14  A    between atoms: C_16  and  C_17 
REMARK   15  A    between atoms: C_17  and  C_18 
REMARK   16  A    between atoms: C_18  and  O_20 
ROOT
HETATM    1  C   UNL     1     -35.449   0.599 -14.598  1.00  0.00     0.027 C 
ENDROOT
BRANCH   1   2
HETATM    2  C   UNL     1     -35.478   0.208 -13.156  1.00  0.00    -0.031 C 
HETATM    3  C   UNL     1     -35.227  -1.039 -12.748  1.00  0.00    -0.031 C 
BRANCH   3   4
HETATM    4  C   UNL     1     -35.249  -1.428 -11.307  1.00  0.00     0.027 C 
BRANCH   4   5
HETATM    5  C   UNL     1     -34.944  -2.910 -11.146  1.00  0.00     0.004 C 
BRANCH   5   6
HETATM    6  C   UNL     1     -33.440  -3.127 -11.058  1.00  0.00     0.000 C 
BRANCH   6   7
HETATM    7  C   UNL     1     -33.077  -4.497 -11.606  1.00  0.00     0.000 C 
BRANCH   7   8
HETATM    8  C   UNL     1     -34.251  -5.451 -11.454  1.00  0.00     0.000 C 
BRANCH   8   9
HETATM    9  C   UNL     1     -34.244  -6.075 -10.068  1.00  0.00    -0.000 C 
BRANCH   9  10
HETATM   10  C   UNL     1     -34.990  -7.404 -10.077  1.00  0.00    -0.005 C 
HETATM   11  C   UNL     1     -34.015  -8.559  -9.964  1.00  0.00     0.005 C 
ENDBRANCH   9  10
ENDBRANCH   8   9
ENDBRANCH   7   8
ENDBRANCH   6   7
ENDBRANCH   5   6
ENDBRANCH   4   5
ENDBRANCH   3   4
ENDBRANCH   1   2
BRANCH   1  12
HETATM   12  C   UNL     1     -36.776   0.267 -15.267  1.00  0.00     0.004 C 
BRANCH  12  13
HETATM   13  C   UNL     1     -36.572  -0.807 -16.326  1.00  0.00     0.000 C 
BRANCH  13  14
HETATM   14  C   UNL     1     -35.091  -1.111 -16.497  1.00  0.00     0.000 C 
BRANCH  14  15
HETATM   15  C   UNL     1     -34.810  -2.587 -16.218  1.00  0.00     0.001 C 
BRANCH  15  16
HETATM   16  C   UNL     1     -33.840  -3.141 -17.249  1.00  0.00     0.010 C 
BRANCH  16  17
HETATM   17  C   UNL     1     -33.019  -4.300 -16.698  1.00  0.00     0.110 C 
BRANCH  17  18
HETATM   18  C   UNL     1     -31.571  -4.167 -17.138  1.00  0.00     0.139 C 
HETATM   19  O   UNL     1     -30.720  -5.021 -16.948  1.00  0.00    -0.650 OA
BRANCH  18  20
HETATM   20  O   UNL     1     -31.288  -3.012 -17.766  1.00  0.00    -0.776 OA
HETATM   21  H   UNL     1     -31.686  -2.220 -17.361  1.00  0.00     0.167 HD
ENDBRANCH  18  20
ENDBRANCH  17  18
ENDBRANCH  16  17
ENDBRANCH  15  16
ENDBRANCH  14  15
ENDBRANCH  13  14
ENDBRANCH  12  13
ENDBRANCH   1  12
TORSDOF 16
ENDMDL
MODEL 9
REMARK VINA RESULT:      -6.2     13.186     15.550
REMARK  16 active torsions:
REMARK  status: ('A' for Active; 'I' for Inactive)
REMARK    1  A    between atoms: C_2  and  C_3 
REMARK    2  A    between atoms: C_3  and  C_4 
REMARK    3  A    between atoms: C_4  and  C_5 
REMARK    4  A    between atoms: C_5  and  C_6 
REMARK    5  A    between atoms: C_6  and  C_7 
REMARK    6  A    between atoms: C_7  and  C_8 
REMARK    7  A    between atoms: C_8  and  C_9 
REMARK    8  A    between atoms: C_10  and  C_11 
REMARK    9  A    between atoms: C_11  and  C_12 
REMARK   10  A    between atoms: C_12  and  C_13 
REMARK   11  A    between atoms: C_13  and  C_14 
REMARK   12  A    between atoms: C_14  and  C_15 
REMARK   13  A    between atoms: C_15  and  C_16 
REMARK   14  A    between atoms: C_16  and  C_17 
REMARK   15  A    between atoms: C_17  and  C_18 
REMARK   16  A    between atoms: C_18  and  O_20 
ROOT
HETATM    1  C   UNL     1     -35.309  -1.655 -17.000  1.00  0.00     0.027 C 
ENDROOT
BRANCH   1   2
HETATM    2  C   UNL     1     -35.760  -0.707 -15.936  1.00  0.00    -0.031 C 
HETATM    3  C   UNL     1     -34.899  -0.032 -15.169  1.00  0.00    -0.031 C 
BRANCH   3   4
HETATM    4  C   UNL     1     -35.349   0.922 -14.112  1.00  0.00     0.027 C 
BRANCH   4   5
HETATM    5  C   UNL     1     -34.901   0.449 -12.737  1.00  0.00     0.004 C 
BRANCH   5   6
HETATM    6  C   UNL     1     -36.009  -0.357 -12.076  1.00  0.00     0.000 C 
BRANCH   6   7
HETATM    7  C   UNL     1     -35.413  -1.465 -11.223  1.00  0.00     0.000 C 
BRANCH   7   8
HETATM    8  C   UNL     1     -34.370  -2.235 -12.018  1.00  0.00     0.000 C 
BRANCH   8   9
HETATM    9  C   UNL     1     -33.441  -2.984 -11.077  1.00  0.00    -0.000 C 
BRANCH   9  10
HETATM   10  C   UNL     1     -32.898  -4.239 -11.748  1.00  0.00    -0.005 C 
HETATM   11  C   UNL     1     -33.492  -5.480 -11.112  1.00  0.00     0.005 C 
ENDBRANCH   9  10
ENDBRANCH   8   9
ENDBRANCH   7   8
ENDBRANCH   6   7
ENDBRANCH   5   6
ENDBRANCH   4   5
ENDBRANCH   3   4
ENDBRANCH   1   2
BRANCH   1  12
HETATM   12  C   UNL     1     -34.572  -2.836 -16.382  1.00  0.00     0.004 C 
BRANCH  12  13
HETATM   13  C   UNL     1     -33.424  -3.265 -17.286  1.00  0.00     0.000 C 
BRANCH  13  14
HETATM   14  C   UNL     1     -32.797  -4.553 -16.774  1.00  0.00     0.000 C 
BRANCH  14  15
HETATM   15  C   UNL     1     -31.281  -4.522 -16.961  1.00  0.00     0.001 C 
BRANCH  15  16
HETATM   16  C   UNL     1     -30.712  -5.930 -16.874  1.00  0.00     0.010 C 
BRANCH  16  17
HETATM   17  C   UNL     1     -29.957  -6.321 -18.138  1.00  0.00     0.110 C 
BRANCH  17  18
HETATM   18  C   UNL     1     -29.811  -7.832 -18.210  1.00  0.00     0.139 C 
HETATM   19  O   UNL     1     -30.134  -8.503 -19.176  1.00  0.00    -0.650 OA
BRANCH  18  20
HETATM   20  O   UNL     1     -29.286  -8.389 -17.103  1.00  0.00    -0.776 OA
HETATM   21  H   UNL     1     -29.576  -7.982 -16.266  1.00  0.00     0.167 HD
ENDBRANCH  18  20
ENDBRANCH  17  18
ENDBRANCH  16  17
ENDBRANCH  15  16
ENDBRANCH  14  15
ENDBRANCH  13  14
ENDBRANCH  12  13
ENDBRANCH   1  12
TORSDOF 16
ENDMDL
