MODEL 1
REMARK VINA RESULT:      -6.6      0.000      0.000
REMARK  13 active torsions:
REMARK  status: ('A' for Active; 'I' for Inactive)
REMARK    1  A    between atoms: C_2  and  C_3 
REMARK    2  A    between atoms: C_3  and  C_4 
REMARK    3  A    between atoms: C_4  and  C_5 
REMARK    4  A    between atoms: C_5  and  C_6 
REMARK    5  A    between atoms: C_6  and  C_7 
REMARK    6  A    between atoms: C_7  and  C_8 
REMARK    7  A    between atoms: C_8  and  C_9 
REMARK    8  A    between atoms: C_9  and  C_10 
REMARK    9  A    between atoms: C_10  and  C_11 
REMARK   10  A    between atoms: C_11  and  C_12 
REMARK       I    between atoms: C_12  and  N_14 
REMARK   11  A    between atoms: N_14  and  C_15 
REMARK   12  A    between atoms: C_15  and  C_16 
REMARK   13  A    between atoms: C_16  and  O_18 
ROOT
HETATM    1  C   UNL     1     -20.527  -3.890  -7.632  1.00  0.00     0.009 C 
ENDROOT
BRANCH   1   2
HETATM    2  C   UNL     1     -19.698  -4.659  -6.614  1.00  0.00     0.000 C 
BRANCH   2   3
HETATM    3  C   UNL     1     -19.818  -6.160  -6.872  1.00  0.00     0.000 C 
BRANCH   3   4
HETATM    4  C   UNL     1     -20.379  -6.883  -5.655  1.00  0.00     0.000 C 
BRANCH   4   5
HETATM    5  C   UNL     1     -21.640  -6.190  -5.149  1.00  0.00     0.000 C 
BRANCH   5   6
HETATM    6  C   UNL     1     -22.144  -6.859  -3.876  1.00  0.00     0.000 C 
BRANCH   6   7
HETATM    7  C   UNL     1     -21.426  -6.306  -2.649  1.00  0.00     0.000 C 
BRANCH   7   8
HETATM    8  C   UNL     1     -22.296  -6.454  -1.405  1.00  0.00    -0.000 C 
BRANCH   8   9
HETATM    9  C   UNL     1     -21.935  -7.715  -0.628  1.00  0.00    -0.005 C 
HETATM   10  C   UNL     1     -22.982  -8.023   0.427  1.00  0.00     0.005 C 
ENDBRANCH   8   9
ENDBRANCH   7   8
ENDBRANCH   6   7
ENDBRANCH   5   6
ENDBRANCH   4   5
ENDBRANCH   3   4
ENDBRANCH   2   3
ENDBRANCH   1   2
BRANCH   1  11
HETATM   11  C   UNL     1     -20.064  -4.125  -9.067  1.00  0.00     0.103 C 
BRANCH  11  12
HETATM   12  C   UNL     1     -21.262  -4.351  -9.969  1.00  0.00     0.217 C 
HETATM   13  O   UNL     1     -21.174  -4.493 -11.182  1.00  0.00    -0.274 OA
HETATM   14  N   UNL     1     -22.461  -4.400  -9.299  1.00  0.00    -0.359 N 
HETATM   15  H   UNL     1     -22.504  -4.186  -8.308  1.00  0.00     0.162 HD
BRANCH  14  16
HETATM   16  C   UNL     1     -23.708  -4.633 -10.004  1.00  0.00     0.153 C 
BRANCH  16  17
HETATM   17  C   UNL     1     -24.395  -3.318 -10.390  1.00  0.00     0.132 C 
HETATM   18  C   UNL     1     -24.481  -3.180 -11.904  1.00  0.00     0.041 C 
BRANCH  17  19
HETATM   19  O   UNL     1     -25.716  -3.285  -9.837  1.00  0.00    -0.394 OA
HETATM   20  H   UNL     1     -26.085  -4.183  -9.896  1.00  0.00     0.210 HD
ENDBRANCH  17  19
ENDBRANCH  16  17
ENDBRANCH  14  16
ENDBRANCH  11  12
ENDBRANCH   1  11
TORSDOF 13
ENDMDL
MODEL 2
REMARK VINA RESULT:      -6.6      1.305      2.626
REMARK  13 active torsions:
REMARK  status: ('A' for Active; 'I' for Inactive)
REMARK    1  A    between atoms: C_2  and  C_3 
REMARK    2  A    between atoms: C_3  and  C_4 
REMARK    3  A    between atoms: C_4  and  C_5 
REMARK    4  A    between atoms: C_5  and  C_6 
REMARK    5  A    between atoms: C_6  and  C_7 
REMARK    6  A    between atoms: C_7  and  C_8 
REMARK    7  A    between atoms: C_8  and  C_9 
REMARK    8  A    between atoms: C_9  and  C_10 
REMARK    9  A    between atoms: C_10  and  C_11 
REMARK   10  A    between atoms: C_11  and  C_12 
REMARK       I    between atoms: C_12  and  N_14 
REMARK   11  A    between atoms: N_14  and  C_15 
REMARK   12  A    between atoms: C_15  and  C_16 
REMARK   13  A    between atoms: C_16  and  O_18 
ROOT
HETATM    1  C   UNL     1     -21.844  -4.448  -9.262  1.00  0.00     0.009 C 
ENDROOT
BRANCH   1   2
HETATM    2  C   UNL     1     -20.678  -3.865  -8.476  1.00  0.00     0.000 C 
BRANCH   2   3
HETATM    3  C   UNL     1     -19.854  -4.991  -7.854  1.00  0.00     0.000 C 
BRANCH   3   4
HETATM    4  C   UNL     1     -20.171  -5.149  -6.372  1.00  0.00     0.000 C 
BRANCH   4   5
HETATM    5  C   UNL     1     -20.864  -6.481  -6.107  1.00  0.00     0.000 C 
BRANCH   5   6
HETATM    6  C   UNL     1     -22.055  -6.289  -5.176  1.00  0.00     0.000 C 
BRANCH   6   7
HETATM    7  C   UNL     1     -21.849  -7.043  -3.866  1.00  0.00     0.000 C 
BRANCH   7   8
HETATM    8  C   UNL     1     -21.626  -6.068  -2.714  1.00  0.00    -0.000 C 
BRANCH   8   9
HETATM    9  C   UNL     1     -22.235  -6.598  -1.420  1.00  0.00    -0.005 C 
HETATM   10  C   UNL     1     -21.748  -8.005  -1.126  1.00  0.00     0.005 C 
ENDBRANCH   8   9
ENDBRANCH   7   8
ENDBRANCH   6   7
ENDBRANCH   5   6
ENDBRANCH   4   5
ENDBRANCH   3   4
ENDBRANCH   2   3
ENDBRANCH   1   2
BRANCH   1  11
HETATM   11  C   UNL     1     -23.199  -4.054  -8.684  1.00  0.00     0.103 C 
BRANCH  11  12
HETATM   12  C   UNL     1     -24.087  -3.493  -9.779  1.00  0.00     0.217 C 
HETATM   13  O   UNL     1     -25.151  -2.927  -9.558  1.00  0.00    -0.274 OA
HETATM   14  N   UNL     1     -23.581  -3.661 -11.045  1.00  0.00    -0.359 N 
HETATM   15  H   UNL     1     -22.744  -4.215 -11.194  1.00  0.00     0.162 HD
BRANCH  14  16
HETATM   16  C   UNL     1     -24.289  -3.162 -12.210  1.00  0.00     0.153 C 
BRANCH  16  17
HETATM   17  C   UNL     1     -23.419  -3.222 -13.470  1.00  0.00     0.132 C 
HETATM   18  C   UNL     1     -23.508  -1.916 -14.249  1.00  0.00     0.041 C 
BRANCH  17  19
HETATM   19  O   UNL     1     -22.056  -3.461 -13.102  1.00  0.00    -0.394 OA
HETATM   20  H   UNL     1     -21.598  -3.825 -13.880  1.00  0.00     0.210 HD
ENDBRANCH  17  19
ENDBRANCH  16  17
ENDBRANCH  14  16
ENDBRANCH  11  12
ENDBRANCH   1  11
TORSDOF 13
ENDMDL
MODEL 3
REMARK VINA RESULT:      -6.5     13.163     15.079
REMARK  13 active torsions:
REMARK  status: ('A' for Active; 'I' for Inactive)
REMARK    1  A    between atoms: C_2  and  C_3 
REMARK    2  A    between atoms: C_3  and  C_4 
REMARK    3  A    between atoms: C_4  and  C_5 
REMARK    4  A    between atoms: C_5  and  C_6 
REMARK    5  A    between atoms: C_6  and  C_7 
REMARK    6  A    between atoms: C_7  and  C_8 
REMARK    7  A    between atoms: C_8  and  C_9 
REMARK    8  A    between atoms: C_9  and  C_10 
REMARK    9  A    between atoms: C_10  and  C_11 
REMARK   10  A    between atoms: C_11  and  C_12 
REMARK       I    between atoms: C_12  and  N_14 
REMARK   11  A    between atoms: N_14  and  C_15 
REMARK   12  A    between atoms: C_15  and  C_16 
REMARK   13  A    between atoms: C_16  and  O_18 
ROOT
HETATM    1  C   UNL     1     -35.101   0.712 -14.376  1.00  0.00     0.009 C 
ENDROOT
BRANCH   1   2
HETATM    2  C   UNL     1     -35.299   0.534 -12.878  1.00  0.00     0.000 C 
BRANCH   2   3
HETATM    3  C   UNL     1     -34.402  -0.591 -12.364  1.00  0.00     0.000 C 
BRANCH   3   4
HETATM    4  C   UNL     1     -35.222  -1.674 -11.674  1.00  0.00     0.000 C 
BRANCH   4   5
HETATM    5  C   UNL     1     -34.398  -2.371 -10.596  1.00  0.00     0.000 C 
BRANCH   5   6
HETATM    6  C   UNL     1     -33.092  -2.897 -11.178  1.00  0.00     0.000 C 
BRANCH   6   7
HETATM    7  C   UNL     1     -33.150  -4.410 -11.366  1.00  0.00     0.000 C 
BRANCH   7   8
HETATM    8  C   UNL     1     -34.236  -5.020 -10.486  1.00  0.00    -0.000 C 
BRANCH   8   9
HETATM    9  C   UNL     1     -34.599  -6.425 -10.955  1.00  0.00    -0.005 C 
HETATM   10  C   UNL     1     -34.770  -7.365  -9.776  1.00  0.00     0.005 C 
ENDBRANCH   8   9
ENDBRANCH   7   8
ENDBRANCH   6   7
ENDBRANCH   5   6
ENDBRANCH   4   5
ENDBRANCH   3   4
ENDBRANCH   2   3
ENDBRANCH   1   2
BRANCH   1  11
HETATM   11  C   UNL     1     -36.372   0.437 -15.175  1.00  0.00     0.103 C 
BRANCH  11  12
HETATM   12  C   UNL     1     -36.113  -0.645 -16.206  1.00  0.00     0.217 C 
HETATM   13  O   UNL     1     -36.822  -0.821 -17.188  1.00  0.00    -0.274 OA
HETATM   14  N   UNL     1     -34.996  -1.402 -15.949  1.00  0.00    -0.359 N 
HETATM   15  H   UNL     1     -34.487  -1.286 -15.079  1.00  0.00     0.162 HD
BRANCH  14  16
HETATM   16  C   UNL     1     -34.585  -2.466 -16.847  1.00  0.00     0.153 C 
BRANCH  16  17
HETATM   17  C   UNL     1     -34.303  -3.768 -16.090  1.00  0.00     0.132 C 
HETATM   18  C   UNL     1     -32.967  -4.361 -16.516  1.00  0.00     0.041 C 
BRANCH  17  19
HETATM   19  O   UNL     1     -34.279  -3.511 -14.681  1.00  0.00    -0.394 OA
HETATM   20  H   UNL     1     -33.491  -2.973 -14.492  1.00  0.00     0.210 HD
ENDBRANCH  17  19
ENDBRANCH  16  17
ENDBRANCH  14  16
ENDBRANCH  11  12
ENDBRANCH   1  11
TORSDOF 13
ENDMDL
MODEL 4
REMARK VINA RESULT:      -6.3      1.701      2.921
REMARK  13 active torsions:
REMARK  status: ('A' for Active; 'I' for Inactive)
REMARK    1  A    between atoms: C_2  and  C_3 
REMARK    2  A    between atoms: C_3  and  C_4 
REMARK    3  A    between atoms: C_4  and  C_5 
REMARK    4  A    between atoms: C_5  and  C_6 
REMARK    5  A    between atoms: C_6  and  C_7 
REMARK    6  A    between atoms: C_7  and  C_8 
REMARK    7  A    between atoms: C_8  and  C_9 
REMARK    8  A    between atoms: C_9  and  C_10 
REMARK    9  A    between atoms: C_10  and  C_11 
REMARK   10  A    between atoms: C_11  and  C_12 
REMARK       I    between atoms: C_12  and  N_14 
REMARK   11  A    between atoms: N_14  and  C_15 
REMARK   12  A    between atoms: C_15  and  C_16 
REMARK   13  A    between atoms: C_16  and  O_18 
ROOT
HETATM    1  C   UNL     1     -20.381  -5.595  -5.715  1.00  0.00     0.009 C 
ENDROOT
BRANCH   1   2
HETATM    2  C   UNL     1     -21.016  -6.963  -5.510  1.00  0.00     0.000 C 
BRANCH   2   3
HETATM    3  C   UNL     1     -21.999  -6.911  -4.342  1.00  0.00     0.000 C 
BRANCH   3   4
HETATM    4  C   UNL     1     -21.448  -6.071  -3.197  1.00  0.00     0.000 C 
BRANCH   4   5
HETATM    5  C   UNL     1     -22.085  -6.478  -1.873  1.00  0.00     0.000 C 
BRANCH   5   6
HETATM    6  C   UNL     1     -21.359  -7.677  -1.276  1.00  0.00     0.000 C 
BRANCH   6   7
HETATM    7  C   UNL     1     -21.740  -7.872   0.188  1.00  0.00     0.000 C 
BRANCH   7   8
HETATM    8  C   UNL     1     -23.020  -8.693   0.306  1.00  0.00    -0.000 C 
BRANCH   8   9
HETATM    9  C   UNL     1     -22.944  -9.955  -0.547  1.00  0.00    -0.005 C 
HETATM   10  C   UNL     1     -24.079 -10.906  -0.213  1.00  0.00     0.005 C 
ENDBRANCH   8   9
ENDBRANCH   7   8
ENDBRANCH   6   7
ENDBRANCH   5   6
ENDBRANCH   4   5
ENDBRANCH   3   4
ENDBRANCH   2   3
ENDBRANCH   1   2
BRANCH   1  11
HETATM   11  C   UNL     1     -20.193  -5.249  -7.190  1.00  0.00     0.103 C 
BRANCH  11  12
HETATM   12  C   UNL     1     -21.507  -4.775  -7.782  1.00  0.00     0.217 C 
HETATM   13  O   UNL     1     -22.436  -4.352  -7.105  1.00  0.00    -0.274 OA
HETATM   14  N   UNL     1     -21.556  -4.845  -9.153  1.00  0.00    -0.359 N 
HETATM   15  H   UNL     1     -20.804  -5.286  -9.672  1.00  0.00     0.162 HD
BRANCH  14  16
HETATM   16  C   UNL     1     -22.730  -4.408  -9.888  1.00  0.00     0.153 C 
BRANCH  16  17
HETATM   17  C   UNL     1     -22.351  -3.706 -11.195  1.00  0.00     0.132 C 
HETATM   18  C   UNL     1     -20.845  -3.491 -11.275  1.00  0.00     0.041 C 
BRANCH  17  19
HETATM   19  O   UNL     1     -22.774  -4.502 -12.309  1.00  0.00    -0.394 OA
HETATM   20  H   UNL     1     -22.193  -5.281 -12.355  1.00  0.00     0.210 HD
ENDBRANCH  17  19
ENDBRANCH  16  17
ENDBRANCH  14  16
ENDBRANCH  11  12
ENDBRANCH   1  11
TORSDOF 13
ENDMDL
MODEL 5
REMARK VINA RESULT:      -6.0      2.486      4.481
REMARK  13 active torsions:
REMARK  status: ('A' for Active; 'I' for Inactive)
REMARK    1  A    between atoms: C_2  and  C_3 
REMARK    2  A    between atoms: C_3  and  C_4 
REMARK    3  A    between atoms: C_4  and  C_5 
REMARK    4  A    between atoms: C_5  and  C_6 
REMARK    5  A    between atoms: C_6  and  C_7 
REMARK    6  A    between atoms: C_7  and  C_8 
REMARK    7  A    between atoms: C_8  and  C_9 
REMARK    8  A    between atoms: C_9  and  C_10 
REMARK    9  A    between atoms: C_10  and  C_11 
REMARK   10  A    between atoms: C_11  and  C_12 
REMARK       I    between atoms: C_12  and  N_14 
REMARK   11  A    between atoms: N_14  and  C_15 
REMARK   12  A    between atoms: C_15  and  C_16 
REMARK   13  A    between atoms: C_16  and  O_18 
ROOT
HETATM    1  C   UNL     1     -21.062  -6.242  -3.915  1.00  0.00     0.009 C 
ENDROOT
BRANCH   1   2
HETATM    2  C   UNL     1     -22.122  -6.336  -2.826  1.00  0.00     0.000 C 
BRANCH   2   3
HETATM    3  C   UNL     1     -21.641  -7.259  -1.708  1.00  0.00     0.000 C 
BRANCH   3   4
HETATM    4  C   UNL     1     -22.418  -7.013  -0.421  1.00  0.00     0.000 C 
BRANCH   4   5
HETATM    5  C   UNL     1     -22.505  -8.289   0.409  1.00  0.00     0.000 C 
BRANCH   5   6
HETATM    6  C   UNL     1     -21.539  -9.341  -0.122  1.00  0.00     0.000 C 
BRANCH   6   7
HETATM    7  C   UNL     1     -22.146 -10.737  -0.025  1.00  0.00     0.000 C 
BRANCH   7   8
HETATM    8  C   UNL     1     -23.667 -10.669  -0.113  1.00  0.00    -0.000 C 
BRANCH   8   9
HETATM    9  C   UNL     1     -24.199 -11.613  -1.186  1.00  0.00    -0.005 C 
HETATM   10  C   UNL     1     -23.109 -12.549  -1.675  1.00  0.00     0.005 C 
ENDBRANCH   8   9
ENDBRANCH   7   8
ENDBRANCH   6   7
ENDBRANCH   5   6
ENDBRANCH   4   5
ENDBRANCH   3   4
ENDBRANCH   2   3
ENDBRANCH   1   2
BRANCH   1  11
HETATM   11  C   UNL     1     -21.474  -6.956  -5.199  1.00  0.00     0.103 C 
BRANCH  11  12
HETATM   12  C   UNL     1     -21.011  -6.162  -6.405  1.00  0.00     0.217 C 
HETATM   13  O   UNL     1     -20.093  -6.517  -7.133  1.00  0.00    -0.274 OA
HETATM   14  N   UNL     1     -21.729  -5.010  -6.621  1.00  0.00    -0.359 N 
HETATM   15  H   UNL     1     -22.420  -4.702  -5.945  1.00  0.00     0.162 HD
BRANCH  14  16
HETATM   16  C   UNL     1     -21.436  -4.141  -7.746  1.00  0.00     0.153 C 
BRANCH  16  17
HETATM   17  C   UNL     1     -22.697  -3.819  -8.556  1.00  0.00     0.132 C 
HETATM   18  C   UNL     1     -22.715  -4.607  -9.860  1.00  0.00     0.041 C 
BRANCH  17  19
HETATM   19  O   UNL     1     -23.860  -4.151  -7.788  1.00  0.00    -0.394 OA
HETATM   20  H   UNL     1     -24.503  -3.430  -7.898  1.00  0.00     0.210 HD
ENDBRANCH  17  19
ENDBRANCH  16  17
ENDBRANCH  14  16
ENDBRANCH  11  12
ENDBRANCH   1  11
TORSDOF 13
ENDMDL
MODEL 6
REMARK VINA RESULT:      -5.9     13.421     15.133
REMARK  13 active torsions:
REMARK  status: ('A' for Active; 'I' for Inactive)
REMARK    1  A    between atoms: C_2  and  C_3 
REMARK    2  A    between atoms: C_3  and  C_4 
REMARK    3  A    between atoms: C_4  and  C_5 
REMARK    4  A    between atoms: C_5  and  C_6 
REMARK    5  A    between atoms: C_6  and  C_7 
REMARK    6  A    between atoms: C_7  and  C_8 
REMARK    7  A    between atoms: C_8  and  C_9 
REMARK    8  A    between atoms: C_9  and  C_10 
REMARK    9  A    between atoms: C_10  and  C_11 
REMARK   10  A    between atoms: C_11  and  C_12 
REMARK       I    between atoms: C_12  and  N_14 
REMARK   11  A    between atoms: N_14  and  C_15 
REMARK   12  A    between atoms: C_15  and  C_16 
REMARK   13  A    between atoms: C_16  and  O_18 
ROOT
HETATM    1  C   UNL     1     -35.941  -0.510 -10.893  1.00  0.00     0.009 C 
ENDROOT
BRANCH   1   2
HETATM    2  C   UNL     1     -35.531  -1.914 -10.471  1.00  0.00     0.000 C 
BRANCH   2   3
HETATM    3  C   UNL     1     -34.008  -2.015 -10.403  1.00  0.00     0.000 C 
BRANCH   3   4
HETATM    4  C   UNL     1     -33.495  -3.159 -11.268  1.00  0.00     0.000 C 
BRANCH   4   5
HETATM    5  C   UNL     1     -34.644  -3.829 -12.015  1.00  0.00     0.000 C 
BRANCH   5   6
HETATM    6  C   UNL     1     -34.344  -5.305 -12.246  1.00  0.00     0.000 C 
BRANCH   6   7
HETATM    7  C   UNL     1     -33.834  -5.964 -10.968  1.00  0.00     0.000 C 
BRANCH   7   8
HETATM    8  C   UNL     1     -34.995  -6.306 -10.040  1.00  0.00    -0.000 C 
BRANCH   8   9
HETATM    9  C   UNL     1     -34.770  -7.646  -9.349  1.00  0.00    -0.005 C 
HETATM   10  C   UNL     1     -33.844  -8.530 -10.165  1.00  0.00     0.005 C 
ENDBRANCH   8   9
ENDBRANCH   7   8
ENDBRANCH   6   7
ENDBRANCH   5   6
ENDBRANCH   4   5
ENDBRANCH   3   4
ENDBRANCH   2   3
ENDBRANCH   1   2
BRANCH   1  11
HETATM   11  C   UNL     1     -36.895  -0.509 -12.084  1.00  0.00     0.103 C 
BRANCH  11  12
HETATM   12  C   UNL     1     -36.123  -0.265 -13.367  1.00  0.00     0.217 C 
HETATM   13  O   UNL     1     -34.943  -0.561 -13.508  1.00  0.00    -0.274 OA
HETATM   14  N   UNL     1     -36.873   0.303 -14.368  1.00  0.00    -0.359 N 
HETATM   15  H   UNL     1     -37.820   0.618 -14.184  1.00  0.00     0.162 HD
BRANCH  14  16
HETATM   16  C   UNL     1     -36.299   0.583 -15.672  1.00  0.00     0.153 C 
BRANCH  16  17
HETATM   17  C   UNL     1     -36.553  -0.560 -16.660  1.00  0.00     0.132 C 
HETATM   18  C   UNL     1     -35.372  -1.520 -16.688  1.00  0.00     0.041 C 
BRANCH  17  19
HETATM   19  O   UNL     1     -37.734  -1.275 -16.275  1.00  0.00    -0.394 OA
HETATM   20  H   UNL     1     -38.060  -0.884 -15.446  1.00  0.00     0.210 HD
ENDBRANCH  17  19
ENDBRANCH  16  17
ENDBRANCH  14  16
ENDBRANCH  11  12
ENDBRANCH   1  11
TORSDOF 13
ENDMDL
MODEL 7
REMARK VINA RESULT:      -5.9      4.312      8.583
REMARK  13 active torsions:
REMARK  status: ('A' for Active; 'I' for Inactive)
REMARK    1  A    between atoms: C_2  and  C_3 
REMARK    2  A    between atoms: C_3  and  C_4 
REMARK    3  A    between atoms: C_4  and  C_5 
REMARK    4  A    between atoms: C_5  and  C_6 
REMARK    5  A    between atoms: C_6  and  C_7 
REMARK    6  A    between atoms: C_7  and  C_8 
REMARK    7  A    between atoms: C_8  and  C_9 
REMARK    8  A    between atoms: C_9  and  C_10 
REMARK    9  A    between atoms: C_10  and  C_11 
REMARK   10  A    between atoms: C_11  and  C_12 
REMARK       I    between atoms: C_12  and  N_14 
REMARK   11  A    between atoms: N_14  and  C_15 
REMARK   12  A    between atoms: C_15  and  C_16 
REMARK   13  A    between atoms: C_16  and  O_18 
ROOT
HETATM    1  C   UNL     1     -21.503  -7.198  -3.842  1.00  0.00     0.009 C 
ENDROOT
BRANCH   1   2
HETATM    2  C   UNL     1     -22.228  -6.536  -5.005  1.00  0.00     0.000 C 
BRANCH   2   3
HETATM    3  C   UNL     1     -21.255  -6.294  -6.156  1.00  0.00     0.000 C 
BRANCH   3   4
HETATM    4  C   UNL     1     -20.614  -4.916  -6.052  1.00  0.00     0.000 C 
BRANCH   4   5
HETATM    5  C   UNL     1     -19.406  -4.810  -6.977  1.00  0.00     0.000 C 
BRANCH   5   6
HETATM    6  C   UNL     1     -19.713  -3.896  -8.157  1.00  0.00     0.000 C 
BRANCH   6   7
HETATM    7  C   UNL     1     -20.158  -4.706  -9.372  1.00  0.00     0.000 C 
BRANCH   7   8
HETATM    8  C   UNL     1     -21.361  -4.050 -10.043  1.00  0.00    -0.000 C 
BRANCH   8   9
HETATM    9  C   UNL     1     -22.353  -3.532  -9.007  1.00  0.00    -0.005 C 
HETATM   10  C   UNL     1     -23.583  -4.419  -8.941  1.00  0.00     0.005 C 
ENDBRANCH   8   9
ENDBRANCH   7   8
ENDBRANCH   6   7
ENDBRANCH   5   6
ENDBRANCH   4   5
ENDBRANCH   3   4
ENDBRANCH   2   3
ENDBRANCH   1   2
BRANCH   1  11
HETATM   11  C   UNL     1     -21.552  -6.363  -2.566  1.00  0.00     0.103 C 
BRANCH  11  12
HETATM   12  C   UNL     1     -21.989  -7.226  -1.398  1.00  0.00     0.217 C 
HETATM   13  O   UNL     1     -22.872  -6.901  -0.614  1.00  0.00    -0.274 OA
HETATM   14  N   UNL     1     -21.314  -8.419  -1.305  1.00  0.00    -0.359 N 
HETATM   15  H   UNL     1     -20.527  -8.613  -1.915  1.00  0.00     0.162 HD
BRANCH  14  16
HETATM   16  C   UNL     1     -21.622  -9.379  -0.259  1.00  0.00     0.153 C 
BRANCH  16  17
HETATM   17  C   UNL     1     -22.385 -10.589  -0.808  1.00  0.00     0.132 C 
HETATM   18  C   UNL     1     -23.776 -10.673  -0.195  1.00  0.00     0.041 C 
BRANCH  17  19
HETATM   19  O   UNL     1     -22.502 -10.479  -2.232  1.00  0.00    -0.394 OA
HETATM   20  H   UNL     1     -21.872  -9.801  -2.530  1.00  0.00     0.210 HD
ENDBRANCH  17  19
ENDBRANCH  16  17
ENDBRANCH  14  16
ENDBRANCH  11  12
ENDBRANCH   1  11
TORSDOF 13
ENDMDL
MODEL 8
REMARK VINA RESULT:      -5.9      4.374      8.283
REMARK  13 active torsions:
REMARK  status: ('A' for Active; 'I' for Inactive)
REMARK    1  A    between atoms: C_2  and  C_3 
REMARK    2  A    between atoms: C_3  and  C_4 
REMARK    3  A    between atoms: C_4  and  C_5 
REMARK    4  A    between atoms: C_5  and  C_6 
REMARK    5  A    between atoms: C_6  and  C_7 
REMARK    6  A    between atoms: C_7  and  C_8 
REMARK    7  A    between atoms: C_8  and  C_9 
REMARK    8  A    between atoms: C_9  and  C_10 
REMARK    9  A    between atoms: C_10  and  C_11 
REMARK   10  A    between atoms: C_11  and  C_12 
REMARK       I    between atoms: C_12  and  N_14 
REMARK   11  A    between atoms: N_14  and  C_15 
REMARK   12  A    between atoms: C_15  and  C_16 
REMARK   13  A    between atoms: C_16  and  O_18 
ROOT
HETATM    1  C   UNL     1     -21.190  -8.270  -4.848  1.00  0.00     0.009 C 
ENDROOT
BRANCH   1   2
HETATM    2  C   UNL     1     -20.611  -7.120  -5.659  1.00  0.00     0.000 C 
BRANCH   2   3
HETATM    3  C   UNL     1     -21.098  -5.787  -5.094  1.00  0.00     0.000 C 
BRANCH   3   4
HETATM    4  C   UNL     1     -20.245  -4.631  -5.602  1.00  0.00     0.000 C 
BRANCH   4   5
HETATM    5  C   UNL     1     -20.614  -4.280  -7.040  1.00  0.00     0.000 C 
BRANCH   5   6
HETATM    6  C   UNL     1     -22.126  -4.324  -7.230  1.00  0.00     0.000 C 
BRANCH   6   7
HETATM    7  C   UNL     1     -22.529  -3.657  -8.542  1.00  0.00     0.000 C 
BRANCH   7   8
HETATM    8  C   UNL     1     -22.531  -4.670  -9.682  1.00  0.00    -0.000 C 
BRANCH   8   9
HETATM    9  C   UNL     1     -21.792  -4.127 -10.901  1.00  0.00    -0.005 C 
HETATM   10  C   UNL     1     -20.305  -4.421 -10.810  1.00  0.00     0.005 C 
ENDBRANCH   8   9
ENDBRANCH   7   8
ENDBRANCH   6   7
ENDBRANCH   5   6
ENDBRANCH   4   5
ENDBRANCH   3   4
ENDBRANCH   2   3
ENDBRANCH   1   2
BRANCH   1  11
HETATM   11  C   UNL     1     -20.112  -9.143  -4.213  1.00  0.00     0.103 C 
BRANCH  11  12
HETATM   12  C   UNL     1     -20.377  -9.294  -2.727  1.00  0.00     0.217 C 
HETATM   13  O   UNL     1     -19.558  -9.756  -1.941  1.00  0.00    -0.274 OA
HETATM   14  N   UNL     1     -21.616  -8.849  -2.334  1.00  0.00    -0.359 N 
HETATM   15  H   UNL     1     -22.300  -8.560  -3.026  1.00  0.00     0.162 HD
BRANCH  14  16
HETATM   16  C   UNL     1     -22.027  -8.897  -0.942  1.00  0.00     0.153 C 
BRANCH  16  17
HETATM   17  C   UNL     1     -22.304  -7.496  -0.386  1.00  0.00     0.132 C 
HETATM   18  C   UNL     1     -22.305  -6.462  -1.504  1.00  0.00     0.041 C 
BRANCH  17  19
HETATM   19  O   UNL     1     -23.577  -7.483   0.271  1.00  0.00    -0.394 OA
HETATM   20  H   UNL     1     -23.823  -8.405   0.460  1.00  0.00     0.210 HD
ENDBRANCH  17  19
ENDBRANCH  16  17
ENDBRANCH  14  16
ENDBRANCH  11  12
ENDBRANCH   1  11
TORSDOF 13
ENDMDL
MODEL 9
REMARK VINA RESULT:      -5.8      1.869      2.846
REMARK  13 active torsions:
REMARK  status: ('A' for Active; 'I' for Inactive)
REMARK    1  A    between atoms: C_2  and  C_3 
REMARK    2  A    between atoms: C_3  and  C_4 
REMARK    3  A    between atoms: C_4  and  C_5 
REMARK    4  A    between atoms: C_5  and  C_6 
REMARK    5  A    between atoms: C_6  and  C_7 
REMARK    6  A    between atoms: C_7  and  C_8 
REMARK    7  A    between atoms: C_8  and  C_9 
REMARK    8  A    between atoms: C_9  and  C_10 
REMARK    9  A    between atoms: C_10  and  C_11 
REMARK   10  A    between atoms: C_11  and  C_12 
REMARK       I    between atoms: C_12  and  N_14 
REMARK   11  A    between atoms: N_14  and  C_15 
REMARK   12  A    between atoms: C_15  and  C_16 
REMARK   13  A    between atoms: C_16  and  O_18 
ROOT
HETATM    1  C   UNL     1     -21.068  -5.656  -5.000  1.00  0.00     0.009 C 
ENDROOT
BRANCH   1   2
HETATM    2  C   UNL     1     -20.608  -7.104  -4.916  1.00  0.00     0.000 C 
BRANCH   2   3
HETATM    3  C   UNL     1     -21.819  -8.031  -4.820  1.00  0.00     0.000 C 
BRANCH   3   4
HETATM    4  C   UNL     1     -21.587  -9.133  -3.794  1.00  0.00     0.000 C 
BRANCH   4   5
HETATM    5  C   UNL     1     -20.135  -9.140  -3.329  1.00  0.00     0.000 C 
BRANCH   5   6
HETATM    6  C   UNL     1     -20.060  -9.195  -1.808  1.00  0.00     0.000 C 
BRANCH   6   7
HETATM    7  C   UNL     1     -20.880  -8.071  -1.182  1.00  0.00     0.000 C 
BRANCH   7   8
HETATM    8  C   UNL     1     -21.448  -8.506   0.165  1.00  0.00    -0.000 C 
BRANCH   8   9
HETATM    9  C   UNL     1     -22.965  -8.652   0.101  1.00  0.00    -0.005 C 
HETATM   10  C   UNL     1     -23.360 -10.072  -0.261  1.00  0.00     0.005 C 
ENDBRANCH   8   9
ENDBRANCH   7   8
ENDBRANCH   6   7
ENDBRANCH   5   6
ENDBRANCH   4   5
ENDBRANCH   3   4
ENDBRANCH   2   3
ENDBRANCH   1   2
BRANCH   1  11
HETATM   11  C   UNL     1     -20.149  -4.796  -5.863  1.00  0.00     0.103 C 
BRANCH  11  12
HETATM   12  C   UNL     1     -20.535  -4.928  -7.324  1.00  0.00     0.217 C 
HETATM   13  O   UNL     1     -20.118  -5.821  -8.052  1.00  0.00    -0.274 OA
HETATM   14  N   UNL     1     -21.411  -3.963  -7.757  1.00  0.00    -0.359 N 
HETATM   15  H   UNL     1     -21.661  -3.188  -7.152  1.00  0.00     0.162 HD
BRANCH  14  16
HETATM   16  C   UNL     1     -21.905  -3.953  -9.122  1.00  0.00     0.153 C 
BRANCH  16  17
HETATM   17  C   UNL     1     -23.432  -3.837  -9.171  1.00  0.00     0.132 C 
HETATM   18  C   UNL     1     -24.013  -4.805 -10.194  1.00  0.00     0.041 C 
BRANCH  17  19
HETATM   19  O   UNL     1     -23.979  -4.131  -7.880  1.00  0.00    -0.394 OA
HETATM   20  H   UNL     1     -23.239  -4.356  -7.289  1.00  0.00     0.210 HD
ENDBRANCH  17  19
ENDBRANCH  16  17
ENDBRANCH  14  16
ENDBRANCH  11  12
ENDBRANCH   1  11
TORSDOF 13
ENDMDL
