MODEL 1
REMARK VINA RESULT:      -4.9      0.000      0.000
REMARK  22 active torsions:
REMARK  status: ('A' for Active; 'I' for Inactive)
REMARK    1  A    between atoms: C_2  and  C_3 
REMARK    2  A    between atoms: C_3  and  C_4 
REMARK    3  A    between atoms: C_4  and  C_5 
REMARK    4  A    between atoms: C_5  and  C_6 
REMARK    5  A    between atoms: C_6  and  C_7 
REMARK    6  A    between atoms: C_7  and  C_8 
REMARK    7  A    between atoms: C_8  and  C_9 
REMARK    8  A    between atoms: C_9  and  C_10 
REMARK    9  A    between atoms: C_10  and  C_11 
REMARK   10  A    between atoms: C_11  and  C_12 
REMARK   11  A    between atoms: C_12  and  C_13 
REMARK   12  A    between atoms: C_15  and  S_19 
REMARK   13  A    between atoms: S_19  and  O_22 
REMARK   14  A    between atoms: C_24  and  C_25 
REMARK   15  A    between atoms: C_24  and  N_27 
REMARK   16  A    between atoms: C_25  and  O_26 
REMARK   17  A    between atoms: N_27  and  C_28 
REMARK   18  A    between atoms: N_27  and  C_31 
REMARK   19  A    between atoms: C_28  and  C_29 
REMARK   20  A    between atoms: C_29  and  O_30 
REMARK   21  A    between atoms: C_31  and  C_32 
REMARK   22  A    between atoms: C_32  and  O_33 
ROOT
HETATM    1  N   UNL     2     -23.522  -2.826 -11.690  1.00  0.00     0.094 N 
ENDROOT
BRANCH   1   2
HETATM    2  C   UNL     2     -22.047  -2.719 -11.727  1.00  0.00     0.298 C 
BRANCH   2   3
HETATM    3  C   UNL     2     -21.348  -4.032 -11.371  1.00  0.00     0.194 C 
BRANCH   3   4
HETATM    4  O   UNL     2     -19.960  -3.920 -11.647  1.00  0.00    -0.399 OA
HETATM    5  H   UNL     2     -19.673  -4.773 -12.035  1.00  0.00     0.209 HD
ENDBRANCH   3   4
ENDBRANCH   2   3
ENDBRANCH   1   2
BRANCH   1   6
HETATM    6  C   UNL     2     -24.082  -2.902 -13.050  1.00  0.00     0.298 C 
BRANCH   6   7
HETATM    7  C   UNL     2     -23.177  -2.766 -14.285  1.00  0.00     0.194 C 
BRANCH   7   8
HETATM    8  O   UNL     2     -23.744  -1.843 -15.218  1.00  0.00    -0.399 OA
HETATM    9  H   UNL     2     -24.633  -2.180 -15.434  1.00  0.00     0.209 HD
ENDBRANCH   7   8
ENDBRANCH   6   7
ENDBRANCH   1   6
BRANCH   1  10
HETATM   10  C   UNL     2     -23.926  -4.044 -10.926  1.00  0.00     0.298 C 
BRANCH  10  11
HETATM   11  C   UNL     2     -24.559  -3.712  -9.567  1.00  0.00     0.194 C 
BRANCH  11  12
HETATM   12  O   UNL     2     -25.882  -3.219  -9.760  1.00  0.00    -0.399 OA
HETATM   13  H   UNL     2     -26.395  -3.994 -10.068  1.00  0.00     0.209 HD
ENDBRANCH  11  12
ENDBRANCH  10  11
ENDBRANCH   1  10
TORSDOF 22
ENDMDL
MODEL 2
REMARK VINA RESULT:      -4.8      0.849      3.577
REMARK  22 active torsions:
REMARK  status: ('A' for Active; 'I' for Inactive)
REMARK    1  A    between atoms: C_2  and  C_3 
REMARK    2  A    between atoms: C_3  and  C_4 
REMARK    3  A    between atoms: C_4  and  C_5 
REMARK    4  A    between atoms: C_5  and  C_6 
REMARK    5  A    between atoms: C_6  and  C_7 
REMARK    6  A    between atoms: C_7  and  C_8 
REMARK    7  A    between atoms: C_8  and  C_9 
REMARK    8  A    between atoms: C_9  and  C_10 
REMARK    9  A    between atoms: C_10  and  C_11 
REMARK   10  A    between atoms: C_11  and  C_12 
REMARK   11  A    between atoms: C_12  and  C_13 
REMARK   12  A    between atoms: C_15  and  S_19 
REMARK   13  A    between atoms: S_19  and  O_22 
REMARK   14  A    between atoms: C_24  and  C_25 
REMARK   15  A    between atoms: C_24  and  N_27 
REMARK   16  A    between atoms: C_25  and  O_26 
REMARK   17  A    between atoms: N_27  and  C_28 
REMARK   18  A    between atoms: N_27  and  C_31 
REMARK   19  A    between atoms: C_28  and  C_29 
REMARK   20  A    between atoms: C_29  and  O_30 
REMARK   21  A    between atoms: C_31  and  C_32 
REMARK   22  A    between atoms: C_32  and  O_33 
ROOT
HETATM    1  N   UNL     2     -23.251  -4.066 -11.563  1.00  0.00     0.094 N 
ENDROOT
BRANCH   1   2
HETATM    2  C   UNL     2     -24.118  -4.524 -10.455  1.00  0.00     0.298 C 
BRANCH   2   3
HETATM    3  C   UNL     2     -24.600  -3.375  -9.566  1.00  0.00     0.194 C 
BRANCH   3   4
HETATM    4  O   UNL     2     -26.009  -3.250  -9.676  1.00  0.00    -0.399 OA
HETATM    5  H   UNL     2     -26.240  -3.394 -10.618  1.00  0.00     0.209 HD
ENDBRANCH   3   4
ENDBRANCH   2   3
ENDBRANCH   1   2
BRANCH   1   6
HETATM    6  C   UNL     2     -24.030  -3.333 -12.576  1.00  0.00     0.298 C 
BRANCH   6   7
HETATM    7  C   UNL     2     -23.339  -2.689 -13.788  1.00  0.00     0.194 C 
BRANCH   7   8
HETATM    8  O   UNL     2     -23.519  -3.499 -14.953  1.00  0.00    -0.399 OA
HETATM    9  H   UNL     2     -23.074  -4.348 -14.769  1.00  0.00     0.209 HD
ENDBRANCH   7   8
ENDBRANCH   6   7
ENDBRANCH   1   6
BRANCH   1  10
HETATM   10  C   UNL     2     -22.175  -3.177 -11.035  1.00  0.00     0.298 C 
BRANCH  10  11
HETATM   11  C   UNL     2     -20.871  -3.931 -10.738  1.00  0.00     0.194 C 
BRANCH  11  12
HETATM   12  O   UNL     2     -19.967  -3.778 -11.831  1.00  0.00    -0.399 OA
HETATM   13  H   UNL     2     -19.868  -2.810 -11.939  1.00  0.00     0.209 HD
ENDBRANCH  11  12
ENDBRANCH  10  11
ENDBRANCH   1  10
TORSDOF 22
ENDMDL
MODEL 3
REMARK VINA RESULT:      -4.8      0.467      3.647
REMARK  22 active torsions:
REMARK  status: ('A' for Active; 'I' for Inactive)
REMARK    1  A    between atoms: C_2  and  C_3 
REMARK    2  A    between atoms: C_3  and  C_4 
REMARK    3  A    between atoms: C_4  and  C_5 
REMARK    4  A    between atoms: C_5  and  C_6 
REMARK    5  A    between atoms: C_6  and  C_7 
REMARK    6  A    between atoms: C_7  and  C_8 
REMARK    7  A    between atoms: C_8  and  C_9 
REMARK    8  A    between atoms: C_9  and  C_10 
REMARK    9  A    between atoms: C_10  and  C_11 
REMARK   10  A    between atoms: C_11  and  C_12 
REMARK   11  A    between atoms: C_12  and  C_13 
REMARK   12  A    between atoms: C_15  and  S_19 
REMARK   13  A    between atoms: S_19  and  O_22 
REMARK   14  A    between atoms: C_24  and  C_25 
REMARK   15  A    between atoms: C_24  and  N_27 
REMARK   16  A    between atoms: C_25  and  O_26 
REMARK   17  A    between atoms: N_27  and  C_28 
REMARK   18  A    between atoms: N_27  and  C_31 
REMARK   19  A    between atoms: C_28  and  C_29 
REMARK   20  A    between atoms: C_29  and  O_30 
REMARK   21  A    between atoms: C_31  and  C_32 
REMARK   22  A    between atoms: C_32  and  O_33 
ROOT
HETATM    1  N   UNL     2     -23.135  -3.757 -12.026  1.00  0.00     0.094 N 
ENDROOT
BRANCH   1   2
HETATM    2  C   UNL     2     -22.107  -2.873 -11.435  1.00  0.00     0.298 C 
BRANCH   2   3
HETATM    3  C   UNL     2     -20.935  -3.649 -10.831  1.00  0.00     0.194 C 
BRANCH   3   4
HETATM    4  O   UNL     2     -19.915  -3.801 -11.806  1.00  0.00    -0.399 OA
HETATM    5  H   UNL     2     -20.358  -3.974 -12.663  1.00  0.00     0.209 HD
ENDBRANCH   3   4
ENDBRANCH   2   3
ENDBRANCH   1   2
BRANCH   1   6
HETATM    6  C   UNL     2     -24.049  -4.272 -10.993  1.00  0.00     0.298 C 
BRANCH   6   7
HETATM    7  C   UNL     2     -24.466  -3.396  -9.801  1.00  0.00     0.194 C 
BRANCH   7   8
HETATM    8  O   UNL     2     -25.888  -3.244  -9.768  1.00  0.00    -0.399 OA
HETATM    9  H   UNL     2     -26.255  -4.126  -9.568  1.00  0.00     0.209 HD
ENDBRANCH   7   8
ENDBRANCH   6   7
ENDBRANCH   1   6
BRANCH   1  10
HETATM   10  C   UNL     2     -23.925  -3.007 -13.048  1.00  0.00     0.298 C 
BRANCH  10  11
HETATM   11  C   UNL     2     -23.131  -2.735 -14.334  1.00  0.00     0.194 C 
BRANCH  11  12
HETATM   12  O   UNL     2     -23.862  -1.843 -15.171  1.00  0.00    -0.399 OA
HETATM   13  H   UNL     2     -24.372  -2.425 -15.772  1.00  0.00     0.209 HD
ENDBRANCH  11  12
ENDBRANCH  10  11
ENDBRANCH   1  10
TORSDOF 22
ENDMDL
MODEL 4
REMARK VINA RESULT:      -4.8      1.286      2.995
REMARK  22 active torsions:
REMARK  status: ('A' for Active; 'I' for Inactive)
REMARK    1  A    between atoms: C_2  and  C_3 
REMARK    2  A    between atoms: C_3  and  C_4 
REMARK    3  A    between atoms: C_4  and  C_5 
REMARK    4  A    between atoms: C_5  and  C_6 
REMARK    5  A    between atoms: C_6  and  C_7 
REMARK    6  A    between atoms: C_7  and  C_8 
REMARK    7  A    between atoms: C_8  and  C_9 
REMARK    8  A    between atoms: C_9  and  C_10 
REMARK    9  A    between atoms: C_10  and  C_11 
REMARK   10  A    between atoms: C_11  and  C_12 
REMARK   11  A    between atoms: C_12  and  C_13 
REMARK   12  A    between atoms: C_15  and  S_19 
REMARK   13  A    between atoms: S_19  and  O_22 
REMARK   14  A    between atoms: C_24  and  C_25 
REMARK   15  A    between atoms: C_24  and  N_27 
REMARK   16  A    between atoms: C_25  and  O_26 
REMARK   17  A    between atoms: N_27  and  C_28 
REMARK   18  A    between atoms: N_27  and  C_31 
REMARK   19  A    between atoms: C_28  and  C_29 
REMARK   20  A    between atoms: C_29  and  O_30 
REMARK   21  A    between atoms: C_31  and  C_32 
REMARK   22  A    between atoms: C_32  and  O_33 
ROOT
HETATM    1  N   UNL     2     -23.139  -4.571 -11.096  1.00  0.00     0.094 N 
ENDROOT
BRANCH   1   2
HETATM    2  C   UNL     2     -23.742  -4.133 -12.374  1.00  0.00     0.298 C 
BRANCH   2   3
HETATM    3  C   UNL     2     -23.114  -2.848 -12.917  1.00  0.00     0.194 C 
BRANCH   3   4
HETATM    4  O   UNL     2     -22.246  -3.163 -13.995  1.00  0.00    -0.399 OA
HETATM    5  H   UNL     2     -21.427  -2.640 -13.869  1.00  0.00     0.209 HD
ENDBRANCH   3   4
ENDBRANCH   2   3
ENDBRANCH   1   2
BRANCH   1   6
HETATM    6  C   UNL     2     -22.110  -3.620 -10.643  1.00  0.00     0.298 C 
BRANCH   6   7
HETATM    7  C   UNL     2     -20.629  -4.027 -10.587  1.00  0.00     0.194 C 
BRANCH   7   8
HETATM    8  O   UNL     2     -19.989  -3.750 -11.835  1.00  0.00    -0.399 OA
HETATM    9  H   UNL     2     -20.181  -4.508 -12.418  1.00  0.00     0.209 HD
ENDBRANCH   7   8
ENDBRANCH   6   7
ENDBRANCH   1   6
BRANCH   1  10
HETATM   10  C   UNL     2     -24.195  -4.685 -10.047  1.00  0.00     0.298 C 
BRANCH  10  11
HETATM   11  C   UNL     2     -24.689  -3.319  -9.547  1.00  0.00     0.194 C 
BRANCH  11  12
HETATM   12  O   UNL     2     -26.107  -3.243  -9.677  1.00  0.00    -0.399 OA
HETATM   13  H   UNL     2     -26.441  -3.230  -8.757  1.00  0.00     0.209 HD
ENDBRANCH  11  12
ENDBRANCH  10  11
ENDBRANCH   1  10
TORSDOF 22
ENDMDL
MODEL 5
REMARK VINA RESULT:      -4.7      0.500      4.293
REMARK  22 active torsions:
REMARK  status: ('A' for Active; 'I' for Inactive)
REMARK    1  A    between atoms: C_2  and  C_3 
REMARK    2  A    between atoms: C_3  and  C_4 
REMARK    3  A    between atoms: C_4  and  C_5 
REMARK    4  A    between atoms: C_5  and  C_6 
REMARK    5  A    between atoms: C_6  and  C_7 
REMARK    6  A    between atoms: C_7  and  C_8 
REMARK    7  A    between atoms: C_8  and  C_9 
REMARK    8  A    between atoms: C_9  and  C_10 
REMARK    9  A    between atoms: C_10  and  C_11 
REMARK   10  A    between atoms: C_11  and  C_12 
REMARK   11  A    between atoms: C_12  and  C_13 
REMARK   12  A    between atoms: C_15  and  S_19 
REMARK   13  A    between atoms: S_19  and  O_22 
REMARK   14  A    between atoms: C_24  and  C_25 
REMARK   15  A    between atoms: C_24  and  N_27 
REMARK   16  A    between atoms: C_25  and  O_26 
REMARK   17  A    between atoms: N_27  and  C_28 
REMARK   18  A    between atoms: N_27  and  C_31 
REMARK   19  A    between atoms: C_28  and  C_29 
REMARK   20  A    between atoms: C_29  and  O_30 
REMARK   21  A    between atoms: C_31  and  C_32 
REMARK   22  A    between atoms: C_32  and  O_33 
ROOT
HETATM    1  N   UNL     2     -23.549  -2.864 -11.604  1.00  0.00     0.094 N 
ENDROOT
BRANCH   1   2
HETATM    2  C   UNL     2     -24.169  -3.154 -12.915  1.00  0.00     0.298 C 
BRANCH   2   3
HETATM    3  C   UNL     2     -23.571  -2.322 -14.051  1.00  0.00     0.194 C 
BRANCH   3   4
HETATM    4  O   UNL     2     -24.434  -1.235 -14.347  1.00  0.00    -0.399 OA
HETATM    5  H   UNL     2     -24.143  -0.476 -13.798  1.00  0.00     0.209 HD
ENDBRANCH   3   4
ENDBRANCH   2   3
ENDBRANCH   1   2
BRANCH   1   6
HETATM    6  C   UNL     2     -23.771  -3.970 -10.657  1.00  0.00     0.298 C 
BRANCH   6   7
HETATM    7  C   UNL     2     -24.627  -3.770  -9.396  1.00  0.00     0.194 C 
BRANCH   7   8
HETATM    8  O   UNL     2     -25.896  -3.208  -9.741  1.00  0.00    -0.399 OA
HETATM    9  H   UNL     2     -25.835  -2.944 -10.678  1.00  0.00     0.209 HD
ENDBRANCH   7   8
ENDBRANCH   6   7
ENDBRANCH   1   6
BRANCH   1  10
HETATM   10  C   UNL     2     -22.080  -2.650 -11.770  1.00  0.00     0.298 C 
BRANCH  10  11
HETATM   11  C   UNL     2     -21.238  -3.703 -11.035  1.00  0.00     0.194 C 
BRANCH  11  12
HETATM   12  O   UNL     2     -19.985  -3.864 -11.697  1.00  0.00    -0.399 OA
HETATM   13  H   UNL     2     -19.903  -3.075 -12.271  1.00  0.00     0.209 HD
ENDBRANCH  11  12
ENDBRANCH  10  11
ENDBRANCH   1  10
TORSDOF 22
ENDMDL
MODEL 6
REMARK VINA RESULT:      -4.5      1.584      4.701
REMARK  22 active torsions:
REMARK  status: ('A' for Active; 'I' for Inactive)
REMARK    1  A    between atoms: C_2  and  C_3 
REMARK    2  A    between atoms: C_3  and  C_4 
REMARK    3  A    between atoms: C_4  and  C_5 
REMARK    4  A    between atoms: C_5  and  C_6 
REMARK    5  A    between atoms: C_6  and  C_7 
REMARK    6  A    between atoms: C_7  and  C_8 
REMARK    7  A    between atoms: C_8  and  C_9 
REMARK    8  A    between atoms: C_9  and  C_10 
REMARK    9  A    between atoms: C_10  and  C_11 
REMARK   10  A    between atoms: C_11  and  C_12 
REMARK   11  A    between atoms: C_12  and  C_13 
REMARK   12  A    between atoms: C_15  and  S_19 
REMARK   13  A    between atoms: S_19  and  O_22 
REMARK   14  A    between atoms: C_24  and  C_25 
REMARK   15  A    between atoms: C_24  and  N_27 
REMARK   16  A    between atoms: C_25  and  O_26 
REMARK   17  A    between atoms: N_27  and  C_28 
REMARK   18  A    between atoms: N_27  and  C_31 
REMARK   19  A    between atoms: C_28  and  C_29 
REMARK   20  A    between atoms: C_29  and  O_30 
REMARK   21  A    between atoms: C_31  and  C_32 
REMARK   22  A    between atoms: C_32  and  O_33 
ROOT
HETATM    1  N   UNL     2     -22.743  -3.240 -11.281  1.00  0.00     0.094 N 
ENDROOT
BRANCH   1   2
HETATM    2  C   UNL     2     -24.216  -3.297 -11.154  1.00  0.00     0.298 C 
BRANCH   2   3
HETATM    3  C   UNL     2     -24.686  -3.333  -9.698  1.00  0.00     0.194 C 
BRANCH   3   4
HETATM    4  O   UNL     2     -26.102  -3.263  -9.655  1.00  0.00    -0.399 OA
HETATM    5  H   UNL     2     -26.403  -2.938 -10.530  1.00  0.00     0.209 HD
ENDBRANCH   3   4
ENDBRANCH   2   3
ENDBRANCH   1   2
BRANCH   1   6
HETATM    6  C   UNL     2     -22.115  -4.437 -10.696  1.00  0.00     0.298 C 
BRANCH   6   7
HETATM    7  C   UNL     2     -21.051  -4.312  -9.595  1.00  0.00     0.194 C 
BRANCH   7   8
HETATM    8  O   UNL     2     -21.479  -4.988  -8.410  1.00  0.00    -0.399 OA
HETATM    9  H   UNL     2     -20.668  -5.249  -7.934  1.00  0.00     0.209 HD
ENDBRANCH   7   8
ENDBRANCH   6   7
ENDBRANCH   1   6
BRANCH   1  10
HETATM   10  C   UNL     2     -22.359  -3.139 -12.720  1.00  0.00     0.298 C 
BRANCH  10  11
HETATM   11  C   UNL     2     -23.524  -2.703 -13.620  1.00  0.00     0.194 C 
BRANCH  11  12
HETATM   12  O   UNL     2     -23.536  -3.490 -14.808  1.00  0.00    -0.399 OA
HETATM   13  H   UNL     2     -23.540  -2.838 -15.539  1.00  0.00     0.209 HD
ENDBRANCH  11  12
ENDBRANCH  10  11
ENDBRANCH   1  10
TORSDOF 22
ENDMDL
MODEL 7
REMARK VINA RESULT:      -4.3      2.242      4.021
REMARK  22 active torsions:
REMARK  status: ('A' for Active; 'I' for Inactive)
REMARK    1  A    between atoms: C_2  and  C_3 
REMARK    2  A    between atoms: C_3  and  C_4 
REMARK    3  A    between atoms: C_4  and  C_5 
REMARK    4  A    between atoms: C_5  and  C_6 
REMARK    5  A    between atoms: C_6  and  C_7 
REMARK    6  A    between atoms: C_7  and  C_8 
REMARK    7  A    between atoms: C_8  and  C_9 
REMARK    8  A    between atoms: C_9  and  C_10 
REMARK    9  A    between atoms: C_10  and  C_11 
REMARK   10  A    between atoms: C_11  and  C_12 
REMARK   11  A    between atoms: C_12  and  C_13 
REMARK   12  A    between atoms: C_15  and  S_19 
REMARK   13  A    between atoms: S_19  and  O_22 
REMARK   14  A    between atoms: C_24  and  C_25 
REMARK   15  A    between atoms: C_24  and  N_27 
REMARK   16  A    between atoms: C_25  and  O_26 
REMARK   17  A    between atoms: N_27  and  C_28 
REMARK   18  A    between atoms: N_27  and  C_31 
REMARK   19  A    between atoms: C_28  and  C_29 
REMARK   20  A    between atoms: C_29  and  O_30 
REMARK   21  A    between atoms: C_31  and  C_32 
REMARK   22  A    between atoms: C_32  and  O_33 
ROOT
HETATM    1  N   UNL     2     -22.723  -4.497 -10.539  1.00  0.00     0.094 N 
ENDROOT
BRANCH   1   2
HETATM    2  C   UNL     2     -21.849  -4.114 -11.670  1.00  0.00     0.298 C 
BRANCH   2   3
HETATM    3  C   UNL     2     -22.437  -2.985 -12.519  1.00  0.00     0.194 C 
BRANCH   3   4
HETATM    4  O   UNL     2     -22.217  -3.262 -13.893  1.00  0.00    -0.399 OA
HETATM    5  H   UNL     2     -22.756  -4.050 -14.119  1.00  0.00     0.209 HD
ENDBRANCH   3   4
ENDBRANCH   2   3
ENDBRANCH   1   2
BRANCH   1   6
HETATM    6  C   UNL     2     -22.238  -3.919  -9.275  1.00  0.00     0.298 C 
BRANCH   6   7
HETATM    7  C   UNL     2     -21.704  -4.819  -8.149  1.00  0.00     0.194 C 
BRANCH   7   8
HETATM    8  O   UNL     2     -22.461  -4.621  -6.952  1.00  0.00    -0.399 OA
HETATM    9  H   UNL     2     -23.399  -4.733  -7.198  1.00  0.00     0.209 HD
ENDBRANCH   7   8
ENDBRANCH   6   7
ENDBRANCH   1   6
BRANCH   1  10
HETATM   10  C   UNL     2     -24.117  -4.024 -10.790  1.00  0.00     0.298 C 
BRANCH  10  11
HETATM   11  C   UNL     2     -24.714  -3.269  -9.594  1.00  0.00     0.194 C 
BRANCH  11  12
HETATM   12  O   UNL     2     -26.137  -3.278  -9.681  1.00  0.00    -0.399 OA
HETATM   13  H   UNL     2     -26.341  -2.767 -10.491  1.00  0.00     0.209 HD
ENDBRANCH  11  12
ENDBRANCH  10  11
ENDBRANCH   1  10
TORSDOF 22
ENDMDL
MODEL 8
REMARK VINA RESULT:      -4.3      7.190      7.949
REMARK  22 active torsions:
REMARK  status: ('A' for Active; 'I' for Inactive)
REMARK    1  A    between atoms: C_2  and  C_3 
REMARK    2  A    between atoms: C_3  and  C_4 
REMARK    3  A    between atoms: C_4  and  C_5 
REMARK    4  A    between atoms: C_5  and  C_6 
REMARK    5  A    between atoms: C_6  and  C_7 
REMARK    6  A    between atoms: C_7  and  C_8 
REMARK    7  A    between atoms: C_8  and  C_9 
REMARK    8  A    between atoms: C_9  and  C_10 
REMARK    9  A    between atoms: C_10  and  C_11 
REMARK   10  A    between atoms: C_11  and  C_12 
REMARK   11  A    between atoms: C_12  and  C_13 
REMARK   12  A    between atoms: C_15  and  S_19 
REMARK   13  A    between atoms: S_19  and  O_22 
REMARK   14  A    between atoms: C_24  and  C_25 
REMARK   15  A    between atoms: C_24  and  N_27 
REMARK   16  A    between atoms: C_25  and  O_26 
REMARK   17  A    between atoms: N_27  and  C_28 
REMARK   18  A    between atoms: N_27  and  C_31 
REMARK   19  A    between atoms: C_28  and  C_29 
REMARK   20  A    between atoms: C_29  and  O_30 
REMARK   21  A    between atoms: C_31  and  C_32 
REMARK   22  A    between atoms: C_32  and  O_33 
ROOT
HETATM    1  N   UNL     2     -27.896  -6.164 -17.243  1.00  0.00     0.094 N 
ENDROOT
BRANCH   1   2
HETATM    2  C   UNL     2     -26.433  -6.353 -17.353  1.00  0.00     0.298 C 
BRANCH   2   3
HETATM    3  C   UNL     2     -25.784  -6.743 -16.023  1.00  0.00     0.194 C 
BRANCH   3   4
HETATM    4  O   UNL     2     -24.944  -5.690 -15.578  1.00  0.00    -0.399 OA
HETATM    5  H   UNL     2     -24.282  -5.530 -16.284  1.00  0.00     0.209 HD
ENDBRANCH   3   4
ENDBRANCH   2   3
ENDBRANCH   1   2
BRANCH   1   6
HETATM    6  C   UNL     2     -28.586  -6.668 -18.443  1.00  0.00     0.298 C 
BRANCH   6   7
HETATM    7  C   UNL     2     -29.762  -7.649 -18.323  1.00  0.00     0.194 C 
BRANCH   7   8
HETATM    8  O   UNL     2     -29.596  -8.740 -19.232  1.00  0.00    -0.399 OA
HETATM    9  H   UNL     2     -28.645  -8.956 -19.232  1.00  0.00     0.209 HD
ENDBRANCH   7   8
ENDBRANCH   6   7
ENDBRANCH   1   6
BRANCH   1  10
HETATM   10  C   UNL     2     -28.415  -6.883 -16.042  1.00  0.00     0.298 C 
BRANCH  10  11
HETATM   11  C   UNL     2     -29.127  -5.952 -15.051  1.00  0.00     0.194 C 
BRANCH  11  12
HETATM   12  O   UNL     2     -30.318  -5.438 -15.644  1.00  0.00    -0.399 OA
HETATM   13  H   UNL     2     -30.671  -6.180 -16.177  1.00  0.00     0.209 HD
ENDBRANCH  11  12
ENDBRANCH  10  11
ENDBRANCH   1  10
TORSDOF 22
ENDMDL
MODEL 9
REMARK VINA RESULT:      -4.3      1.873      2.147
REMARK  22 active torsions:
REMARK  status: ('A' for Active; 'I' for Inactive)
REMARK    1  A    between atoms: C_2  and  C_3 
REMARK    2  A    between atoms: C_3  and  C_4 
REMARK    3  A    between atoms: C_4  and  C_5 
REMARK    4  A    between atoms: C_5  and  C_6 
REMARK    5  A    between atoms: C_6  and  C_7 
REMARK    6  A    between atoms: C_7  and  C_8 
REMARK    7  A    between atoms: C_8  and  C_9 
REMARK    8  A    between atoms: C_9  and  C_10 
REMARK    9  A    between atoms: C_10  and  C_11 
REMARK   10  A    between atoms: C_11  and  C_12 
REMARK   11  A    between atoms: C_12  and  C_13 
REMARK   12  A    between atoms: C_15  and  S_19 
REMARK   13  A    between atoms: S_19  and  O_22 
REMARK   14  A    between atoms: C_24  and  C_25 
REMARK   15  A    between atoms: C_24  and  N_27 
REMARK   16  A    between atoms: C_25  and  O_26 
REMARK   17  A    between atoms: N_27  and  C_28 
REMARK   18  A    between atoms: N_27  and  C_31 
REMARK   19  A    between atoms: C_28  and  C_29 
REMARK   20  A    between atoms: C_29  and  O_30 
REMARK   21  A    between atoms: C_31  and  C_32 
REMARK   22  A    between atoms: C_32  and  O_33 
ROOT
HETATM    1  N   UNL     2     -23.055  -3.646 -10.472  1.00  0.00     0.094 N 
ENDROOT
BRANCH   1   2
HETATM    2  C   UNL     2     -21.860  -4.511 -10.356  1.00  0.00     0.298 C 
BRANCH   2   3
HETATM    3  C   UNL     2     -20.565  -3.786 -10.729  1.00  0.00     0.194 C 
BRANCH   3   4
HETATM    4  O   UNL     2     -20.845  -2.779 -11.689  1.00  0.00    -0.399 OA
HETATM    5  H   UNL     2     -20.510  -3.102 -12.552  1.00  0.00     0.209 HD
ENDBRANCH   3   4
ENDBRANCH   2   3
ENDBRANCH   1   2
BRANCH   1   6
HETATM    6  C   UNL     2     -23.910  -4.071 -11.593  1.00  0.00     0.298 C 
BRANCH   6   7
HETATM    7  C   UNL     2     -24.416  -3.056 -12.629  1.00  0.00     0.194 C 
BRANCH   7   8
HETATM    8  O   UNL     2     -23.444  -2.028 -12.835  1.00  0.00    -0.399 OA
HETATM    9  H   UNL     2     -23.889  -1.325 -13.346  1.00  0.00     0.209 HD
ENDBRANCH   7   8
ENDBRANCH   6   7
ENDBRANCH   1   6
BRANCH   1  10
HETATM   10  C   UNL     2     -23.846  -3.697  -9.207  1.00  0.00     0.298 C 
BRANCH  10  11
HETATM   11  C   UNL     2     -23.021  -4.185  -8.007  1.00  0.00     0.194 C 
BRANCH  11  12
HETATM   12  O   UNL     2     -23.871  -4.352  -6.875  1.00  0.00    -0.399 OA
HETATM   13  H   UNL     2     -24.742  -4.598  -7.250  1.00  0.00     0.209 HD
ENDBRANCH  11  12
ENDBRANCH  10  11
ENDBRANCH   1  10
TORSDOF 22
ENDMDL
