MODEL 1
REMARK VINA RESULT:      -7.4      0.000      0.000
REMARK  12 active torsions:
REMARK  status: ('A' for Active; 'I' for Inactive)
REMARK    1  A    between atoms: C_2  and  N_3 
REMARK    2  A    between atoms: N_3  and  C_4 
REMARK    3  A    between atoms: N_3  and  S_6 
REMARK    4  A    between atoms: S_6  and  C_9 
REMARK    5  A    between atoms: C_11  and  N_17 
REMARK    6  A    between atoms: C_12  and  O_15 
REMARK    7  A    between atoms: N_19  and  C_21 
REMARK    8  A    between atoms: C_22  and  O_45 
REMARK    9  A    between atoms: C_23  and  C_31 
REMARK       I    between atoms: C_31  and  N_33 
REMARK   10  A    between atoms: N_33  and  C_34 
REMARK   11  A    between atoms: C_37  and  O_42 
REMARK   12  A    between atoms: C_39  and  O_40 
ROOT
HETATM    1  C   UNL     1     -20.085  -9.051  -3.231  1.00  0.00     0.093 C 
HETATM    2  C   UNL     1     -20.216  -8.393  -4.488  1.00  0.00     0.110 C 
HETATM    3  C   UNL     1     -21.007  -7.237  -4.616  1.00  0.00     0.068 C 
HETATM    4  C   UNL     1     -21.919  -6.959  -3.600  1.00  0.00     0.032 C 
HETATM    5  C   UNL     1     -21.836  -7.613  -2.379  1.00  0.00    -0.022 C 
HETATM    6  C   UNL     1     -22.712  -7.251  -1.366  1.00  0.00     0.012 C 
HETATM    7  C   UNL     1     -22.239  -7.175  -0.070  1.00  0.00     0.001 C 
HETATM    8  C   UNL     1     -21.093  -7.887   0.242  1.00  0.00     0.001 C 
HETATM    9  C   UNL     1     -20.456  -8.657  -0.744  1.00  0.00     0.014 C 
HETATM   10  C   UNL     1     -20.774  -8.486  -2.115  1.00  0.00     0.005 C 
ENDROOT
BRANCH   1  11
HETATM   11  N   UNL     1     -19.187 -10.162  -3.090  1.00  0.00    -0.297 N 
HETATM   12  N   UNL     1     -17.992  -9.784  -3.189  1.00  0.00    -0.297 N 
ATOM     13  HN  UNL     1     -17.747  -8.795  -3.228  1.00  0.00     0.187 HD
ATOM     14  HN  UNL     1     -19.479 -11.126  -2.932  1.00  0.00     0.187 HD
BRANCH  12  15
HETATM   15  C   UNL     1     -16.991 -10.800  -3.243  1.00  0.00     0.082 A 
HETATM   16  C   UNL     1     -16.316 -11.149  -4.438  1.00  0.00     0.058 A 
HETATM   17  C   UNL     1     -15.303 -12.128  -4.447  1.00  0.00     0.077 A 
HETATM   18  C   UNL     1     -14.910 -12.769  -3.279  1.00  0.00     0.028 A 
HETATM   19  C   UNL     1     -15.555 -12.440  -2.097  1.00  0.00     0.040 A 
HETATM   20  C   UNL     1     -16.586 -11.476  -2.061  1.00  0.00     0.096 A 
BRANCH  17  21
HETATM   21  S   UNL     1     -14.490 -12.590  -5.960  1.00  0.00     0.243 S 
HETATM   22  O   UNL     1     -13.087 -12.258  -5.801  1.00  0.00    -0.206 OA
HETATM   23  O   UNL     1     -15.281 -12.094  -7.076  1.00  0.00    -0.206 OA
BRANCH  21  24
HETATM   24  N   UNL     1     -14.622 -14.306  -5.951  1.00  0.00    -0.207 NA
BRANCH  24  25
HETATM   25  C   UNL     1     -15.849 -14.821  -6.626  1.00  0.00     0.103 C 
HETATM   26  C   UNL     1     -17.005 -15.070  -5.669  1.00  0.00     0.021 C 
ENDBRANCH  24  25
BRANCH  24  27
HETATM   27  C   UNL     1     -13.353 -15.033  -6.279  1.00  0.00     0.103 C 
HETATM   28  C   UNL     1     -13.547 -16.520  -6.510  1.00  0.00     0.021 C 
ENDBRANCH  24  27
ENDBRANCH  21  24
ENDBRANCH  17  21
BRANCH  20  29
HETATM   29  O   UNL     1     -17.037 -11.328  -0.772  1.00  0.00    -0.354 OA
HETATM   30  C   UNL     1     -16.424 -12.051   0.277  1.00  0.00     0.210 C 
ENDBRANCH  20  29
ENDBRANCH  12  15
ENDBRANCH   1  11
BRANCH   2  31
HETATM   31  O   UNL     1     -19.560  -8.883  -5.593  1.00  0.00    -0.357 OA
HETATM   32  H   UNL     1     -20.106  -8.652  -6.371  1.00  0.00     0.217 HD
ENDBRANCH   2  31
BRANCH   3  33
HETATM   33  C   UNL     1     -20.923  -6.193  -5.685  1.00  0.00     0.259 C 
HETATM   34  O   UNL     1     -20.884  -5.002  -5.328  1.00  0.00    -0.267 OA
HETATM   35  N   UNL     1     -20.956  -6.605  -6.982  1.00  0.00    -0.320 N 
HETATM   36  H   UNL     1     -21.199  -7.569  -7.146  1.00  0.00     0.169 HD
BRANCH  35  37
HETATM   37  C   UNL     1     -21.181  -5.676  -8.026  1.00  0.00     0.070 A 
HETATM   38  C   UNL     1     -22.495  -5.460  -8.481  1.00  0.00     0.059 A 
HETATM   39  C   UNL     1     -22.791  -4.483  -9.442  1.00  0.00     0.069 A 
HETATM   40  C   UNL     1     -21.756  -3.724  -9.992  1.00  0.00     0.092 A 
HETATM   41 CL   UNL     1     -24.472  -4.262  -9.776  1.00  0.00    -0.081 Cl
HETATM   42  C   UNL     1     -20.438  -3.957  -9.549  1.00  0.00     0.077 A 
HETATM   43  C   UNL     1     -20.136  -4.933  -8.591  1.00  0.00     0.097 A 
BRANCH  40  44
HETATM   44  O   UNL     1     -21.833  -2.686 -10.883  1.00  0.00    -0.354 OA
HETATM   45  C   UNL     1     -22.261  -2.960 -12.210  1.00  0.00     0.210 C 
ENDBRANCH  40  44
BRANCH  43  46
HETATM   46  O   UNL     1     -18.808  -5.049  -8.273  1.00  0.00    -0.354 OA
HETATM   47  C   UNL     1     -18.291  -4.100  -7.341  1.00  0.00     0.210 C 
ENDBRANCH  43  46
ENDBRANCH  35  37
ENDBRANCH   3  33
TORSDOF 12
ENDMDL
MODEL 2
REMARK VINA RESULT:      -7.4      2.214      3.498
REMARK  12 active torsions:
REMARK  status: ('A' for Active; 'I' for Inactive)
REMARK    1  A    between atoms: C_2  and  N_3 
REMARK    2  A    between atoms: N_3  and  C_4 
REMARK    3  A    between atoms: N_3  and  S_6 
REMARK    4  A    between atoms: S_6  and  C_9 
REMARK    5  A    between atoms: C_11  and  N_17 
REMARK    6  A    between atoms: C_12  and  O_15 
REMARK    7  A    between atoms: N_19  and  C_21 
REMARK    8  A    between atoms: C_22  and  O_45 
REMARK    9  A    between atoms: C_23  and  C_31 
REMARK       I    between atoms: C_31  and  N_33 
REMARK   10  A    between atoms: N_33  and  C_34 
REMARK   11  A    between atoms: C_37  and  O_42 
REMARK   12  A    between atoms: C_39  and  O_40 
ROOT
HETATM    1  C   UNL     1     -19.974  -9.191  -2.699  1.00  0.00     0.093 C 
HETATM    2  C   UNL     1     -20.071  -8.531  -3.958  1.00  0.00     0.110 C 
HETATM    3  C   UNL     1     -20.891  -7.400  -4.117  1.00  0.00     0.068 C 
HETATM    4  C   UNL     1     -21.855  -7.154  -3.140  1.00  0.00     0.032 C 
HETATM    5  C   UNL     1     -21.804  -7.811  -1.919  1.00  0.00    -0.022 C 
HETATM    6  C   UNL     1     -22.734  -7.480  -0.944  1.00  0.00     0.012 C 
HETATM    7  C   UNL     1     -22.320  -7.395   0.372  1.00  0.00     0.001 C 
HETATM    8  C   UNL     1     -21.167  -8.074   0.731  1.00  0.00     0.001 C 
HETATM    9  C   UNL     1     -20.465  -8.819  -0.229  1.00  0.00     0.014 C 
HETATM   10  C   UNL     1     -20.728  -8.652  -1.612  1.00  0.00     0.005 C 
ENDROOT
BRANCH   1  11
HETATM   11  N   UNL     1     -19.050 -10.274  -2.523  1.00  0.00    -0.297 N 
HETATM   12  N   UNL     1     -17.863  -9.863  -2.592  1.00  0.00    -0.297 N 
ATOM     13  HN  UNL     1     -17.646  -8.868  -2.634  1.00  0.00     0.187 HD
ATOM     14  HN  UNL     1     -19.319 -11.245  -2.364  1.00  0.00     0.187 HD
BRANCH  12  15
HETATM   15  C   UNL     1     -16.834 -10.851  -2.610  1.00  0.00     0.082 A 
HETATM   16  C   UNL     1     -16.815 -11.956  -1.724  1.00  0.00     0.058 A 
HETATM   17  C   UNL     1     -15.806 -12.936  -1.798  1.00  0.00     0.077 A 
HETATM   18  C   UNL     1     -14.804 -12.868  -2.758  1.00  0.00     0.028 A 
HETATM   19  C   UNL     1     -14.804 -11.796  -3.637  1.00  0.00     0.040 A 
HETATM   20  C   UNL     1     -15.794 -10.791  -3.575  1.00  0.00     0.096 A 
BRANCH  17  21
HETATM   21  S   UNL     1     -15.767 -14.298  -0.655  1.00  0.00     0.243 S 
HETATM   22  O   UNL     1     -15.018 -15.362  -1.294  1.00  0.00    -0.206 OA
HETATM   23  O   UNL     1     -17.112 -14.501  -0.137  1.00  0.00    -0.206 OA
BRANCH  21  24
HETATM   24  N   UNL     1     -14.803 -13.684   0.632  1.00  0.00    -0.207 NA
BRANCH  24  25
HETATM   25  C   UNL     1     -15.591 -13.063   1.736  1.00  0.00     0.103 C 
HETATM   26  C   UNL     1     -15.623 -13.904   3.003  1.00  0.00     0.021 C 
ENDBRANCH  24  25
BRANCH  24  27
HETATM   27  C   UNL     1     -13.689 -14.589   1.066  1.00  0.00     0.103 C 
HETATM   28  C   UNL     1     -12.308 -14.037   0.772  1.00  0.00     0.021 C 
ENDBRANCH  24  27
ENDBRANCH  21  24
ENDBRANCH  17  21
BRANCH  20  29
HETATM   29  O   UNL     1     -15.574  -9.864  -4.564  1.00  0.00    -0.354 OA
HETATM   30  C   UNL     1     -16.052 -10.102  -5.874  1.00  0.00     0.210 C 
ENDBRANCH  20  29
ENDBRANCH  12  15
ENDBRANCH   1  11
BRANCH   2  31
HETATM   31  O   UNL     1     -19.354  -8.996  -5.036  1.00  0.00    -0.357 OA
HETATM   32  H   UNL     1     -18.768  -8.267  -5.321  1.00  0.00     0.217 HD
ENDBRANCH   2  31
BRANCH   3  33
HETATM   33  C   UNL     1     -20.793  -6.348  -5.178  1.00  0.00     0.259 C 
HETATM   34  O   UNL     1     -20.800  -5.158  -4.815  1.00  0.00    -0.267 OA
HETATM   35  N   UNL     1     -20.764  -6.755  -6.476  1.00  0.00    -0.320 N 
HETATM   36  H   UNL     1     -20.974  -7.724  -6.653  1.00  0.00     0.169 HD
BRANCH  35  37
HETATM   37  C   UNL     1     -20.972  -5.827  -7.525  1.00  0.00     0.070 A 
HETATM   38  C   UNL     1     -22.281  -5.597  -7.987  1.00  0.00     0.059 A 
HETATM   39  C   UNL     1     -22.560  -4.620  -8.953  1.00  0.00     0.069 A 
HETATM   40  C   UNL     1     -21.513  -3.876  -9.502  1.00  0.00     0.092 A 
HETATM   41 CL   UNL     1     -24.236  -4.378  -9.296  1.00  0.00    -0.081 Cl
HETATM   42  C   UNL     1     -20.200  -4.124  -9.051  1.00  0.00     0.077 A 
HETATM   43  C   UNL     1     -19.915  -5.099  -8.088  1.00  0.00     0.097 A 
BRANCH  40  44
HETATM   44  O   UNL     1     -21.573  -2.841 -10.396  1.00  0.00    -0.354 OA
HETATM   45  C   UNL     1     -21.894  -3.130 -11.750  1.00  0.00     0.210 C 
ENDBRANCH  40  44
BRANCH  43  46
HETATM   46  O   UNL     1     -18.590  -5.232  -7.764  1.00  0.00    -0.354 OA
HETATM   47  C   UNL     1     -17.925  -4.052  -7.311  1.00  0.00     0.210 C 
ENDBRANCH  43  46
ENDBRANCH  35  37
ENDBRANCH   3  33
TORSDOF 12
ENDMDL
MODEL 3
REMARK VINA RESULT:      -7.4      6.432     12.804
REMARK  12 active torsions:
REMARK  status: ('A' for Active; 'I' for Inactive)
REMARK    1  A    between atoms: C_2  and  N_3 
REMARK    2  A    between atoms: N_3  and  C_4 
REMARK    3  A    between atoms: N_3  and  S_6 
REMARK    4  A    between atoms: S_6  and  C_9 
REMARK    5  A    between atoms: C_11  and  N_17 
REMARK    6  A    between atoms: C_12  and  O_15 
REMARK    7  A    between atoms: N_19  and  C_21 
REMARK    8  A    between atoms: C_22  and  O_45 
REMARK    9  A    between atoms: C_23  and  C_31 
REMARK       I    between atoms: C_31  and  N_33 
REMARK   10  A    between atoms: N_33  and  C_34 
REMARK   11  A    between atoms: C_37  and  O_42 
REMARK   12  A    between atoms: C_39  and  O_40 
ROOT
HETATM    1  C   UNL     1     -16.493 -12.594  -1.469  1.00  0.00     0.093 C 
HETATM    2  C   UNL     1     -15.623 -13.532  -0.842  1.00  0.00     0.110 C 
HETATM    3  C   UNL     1     -14.371 -13.840  -1.404  1.00  0.00     0.068 C 
HETATM    4  C   UNL     1     -14.153 -13.488  -2.735  1.00  0.00     0.032 C 
HETATM    5  C   UNL     1     -15.008 -12.605  -3.380  1.00  0.00    -0.022 C 
HETATM    6  C   UNL     1     -14.712 -12.218  -4.679  1.00  0.00     0.012 C 
HETATM    7  C   UNL     1     -14.914 -10.900  -5.045  1.00  0.00     0.001 C 
HETATM    8  C   UNL     1     -15.809 -10.152  -4.298  1.00  0.00     0.001 C 
HETATM    9  C   UNL     1     -16.477 -10.739  -3.212  1.00  0.00     0.014 C 
HETATM   10  C   UNL     1     -16.040 -11.976  -2.674  1.00  0.00     0.005 C 
ENDROOT
BRANCH   1  11
HETATM   11  N   UNL     1     -17.717 -12.207  -0.827  1.00  0.00    -0.297 N 
HETATM   12  N   UNL     1     -18.525 -13.171  -0.791  1.00  0.00    -0.297 N 
ATOM     13  HN  UNL     1     -18.247 -14.110  -1.073  1.00  0.00     0.187 HD
ATOM     14  HN  UNL     1     -17.906 -11.278  -0.451  1.00  0.00     0.187 HD
BRANCH  12  15
HETATM   15  C   UNL     1     -19.849 -12.892  -0.339  1.00  0.00     0.082 A 
HETATM   16  C   UNL     1     -20.570 -11.740  -0.738  1.00  0.00     0.058 A 
HETATM   17  C   UNL     1     -21.893 -11.518  -0.306  1.00  0.00     0.077 A 
HETATM   18  C   UNL     1     -22.548 -12.433   0.507  1.00  0.00     0.028 A 
HETATM   19  C   UNL     1     -21.863 -13.569   0.908  1.00  0.00     0.040 A 
HETATM   20  C   UNL     1     -20.532 -13.809   0.504  1.00  0.00     0.096 A 
BRANCH  17  21
HETATM   21  S   UNL     1     -22.775 -10.047  -0.778  1.00  0.00     0.243 S 
HETATM   22  O   UNL     1     -23.835  -9.863   0.194  1.00  0.00    -0.206 OA
HETATM   23  O   UNL     1     -23.039 -10.110  -2.208  1.00  0.00    -0.206 OA
BRANCH  21  24
HETATM   24  N   UNL     1     -21.610  -8.807  -0.520  1.00  0.00    -0.207 NA
BRANCH  24  25
HETATM   25  C   UNL     1     -21.491  -7.843  -1.651  1.00  0.00     0.103 C 
HETATM   26  C   UNL     1     -22.316  -6.580  -1.458  1.00  0.00     0.021 C 
ENDBRANCH  24  25
BRANCH  24  27
HETATM   27  C   UNL     1     -21.642  -8.195   0.848  1.00  0.00     0.103 C 
HETATM   28  C   UNL     1     -20.747  -8.900   1.850  1.00  0.00     0.021 C 
ENDBRANCH  24  27
ENDBRANCH  21  24
ENDBRANCH  17  21
BRANCH  20  29
HETATM   29  O   UNL     1     -20.100 -15.007   1.021  1.00  0.00    -0.354 OA
HETATM   30  C   UNL     1     -20.757 -15.571   2.138  1.00  0.00     0.210 C 
ENDBRANCH  20  29
ENDBRANCH  12  15
ENDBRANCH   1  11
BRANCH   2  31
HETATM   31  O   UNL     1     -16.000 -14.145   0.330  1.00  0.00    -0.357 OA
HETATM   32  H   UNL     1     -15.190 -14.257   0.864  1.00  0.00     0.217 HD
ENDBRANCH   2  31
BRANCH   3  33
HETATM   33  C   UNL     1     -13.182 -14.425  -0.709  1.00  0.00     0.259 C 
HETATM   34  O   UNL     1     -12.530 -15.296  -1.312  1.00  0.00    -0.267 OA
HETATM   35  N   UNL     1     -12.922 -14.014   0.562  1.00  0.00    -0.320 N 
HETATM   36  H   UNL     1     -13.634 -13.466   1.017  1.00  0.00     0.169 HD
BRANCH  35  37
HETATM   37  C   UNL     1     -12.012 -14.729   1.378  1.00  0.00     0.070 A 
HETATM   38  C   UNL     1     -10.637 -14.451   1.278  1.00  0.00     0.059 A 
HETATM   39  C   UNL     1      -9.700 -15.055   2.128  1.00  0.00     0.069 A 
HETATM   40  C   UNL     1     -10.130 -15.985   3.077  1.00  0.00     0.092 A 
HETATM   41 CL   UNL     1      -8.076 -14.490   1.957  1.00  0.00    -0.081 Cl
HETATM   42  C   UNL     1     -11.507 -16.276   3.160  1.00  0.00     0.077 A 
HETATM   43  C   UNL     1     -12.448 -15.677   2.313  1.00  0.00     0.097 A 
BRANCH  40  44
HETATM   44  O   UNL     1      -9.399 -16.632   4.038  1.00  0.00    -0.354 OA
HETATM   45  C   UNL     1      -9.057 -15.926   5.223  1.00  0.00     0.210 C 
ENDBRANCH  40  44
BRANCH  43  46
HETATM   46  O   UNL     1     -13.745 -16.073   2.507  1.00  0.00    -0.354 OA
HETATM   47  C   UNL     1     -14.272 -15.905   3.823  1.00  0.00     0.210 C 
ENDBRANCH  43  46
ENDBRANCH  35  37
ENDBRANCH   3  33
TORSDOF 12
ENDMDL
MODEL 4
REMARK VINA RESULT:      -7.4      6.072     13.046
REMARK  12 active torsions:
REMARK  status: ('A' for Active; 'I' for Inactive)
REMARK    1  A    between atoms: C_2  and  N_3 
REMARK    2  A    between atoms: N_3  and  C_4 
REMARK    3  A    between atoms: N_3  and  S_6 
REMARK    4  A    between atoms: S_6  and  C_9 
REMARK    5  A    between atoms: C_11  and  N_17 
REMARK    6  A    between atoms: C_12  and  O_15 
REMARK    7  A    between atoms: N_19  and  C_21 
REMARK    8  A    between atoms: C_22  and  O_45 
REMARK    9  A    between atoms: C_23  and  C_31 
REMARK       I    between atoms: C_31  and  N_33 
REMARK   10  A    between atoms: N_33  and  C_34 
REMARK   11  A    between atoms: C_37  and  O_42 
REMARK   12  A    between atoms: C_39  and  O_40 
ROOT
HETATM    1  C   UNL     1     -15.222 -12.955  -2.765  1.00  0.00     0.093 C 
HETATM    2  C   UNL     1     -14.742 -13.740  -1.677  1.00  0.00     0.110 C 
HETATM    3  C   UNL     1     -13.671 -14.634  -1.852  1.00  0.00     0.068 C 
HETATM    4  C   UNL     1     -13.328 -14.989  -3.155  1.00  0.00     0.032 C 
HETATM    5  C   UNL     1     -13.812 -14.262  -4.235  1.00  0.00    -0.022 C 
HETATM    6  C   UNL     1     -13.383 -14.597  -5.511  1.00  0.00     0.012 C 
HETATM    7  C   UNL     1     -13.107 -13.584  -6.409  1.00  0.00     0.001 C 
HETATM    8  C   UNL     1     -13.692 -12.348  -6.189  1.00  0.00     0.001 C 
HETATM    9  C   UNL     1     -14.537 -12.160  -5.084  1.00  0.00     0.014 C 
HETATM   10  C   UNL     1     -14.567 -13.102  -4.025  1.00  0.00     0.005 C 
ENDROOT
BRANCH   1  11
HETATM   11  N   UNL     1     -16.240 -11.968  -2.546  1.00  0.00    -0.297 N 
HETATM   12  N   UNL     1     -17.344 -12.515  -2.292  1.00  0.00    -0.297 N 
ATOM     13  HN  UNL     1     -17.418 -13.521  -2.143  1.00  0.00     0.187 HD
ATOM     14  HN  UNL     1     -16.090 -10.960  -2.589  1.00  0.00     0.187 HD
BRANCH  12  15
HETATM   15  C   UNL     1     -18.489 -11.667  -2.222  1.00  0.00     0.082 A 
HETATM   16  C   UNL     1     -19.245 -11.494  -1.037  1.00  0.00     0.058 A 
HETATM   17  C   UNL     1     -20.345 -10.615  -0.993  1.00  0.00     0.077 A 
HETATM   18  C   UNL     1     -20.715  -9.866  -2.103  1.00  0.00     0.028 A 
HETATM   19  C   UNL     1     -19.987 -10.017  -3.273  1.00  0.00     0.040 A 
HETATM   20  C   UNL     1     -18.890 -10.903  -3.351  1.00  0.00     0.096 A 
BRANCH  17  21
HETATM   21  S   UNL     1     -21.315 -10.436   0.488  1.00  0.00     0.243 S 
HETATM   22  O   UNL     1     -20.638  -9.459   1.318  1.00  0.00    -0.206 OA
HETATM   23  O   UNL     1     -21.655 -11.764   0.976  1.00  0.00    -0.206 OA
BRANCH  21  24
HETATM   24  N   UNL     1     -22.763  -9.710  -0.094  1.00  0.00    -0.207 NA
BRANCH  24  25
HETATM   25  C   UNL     1     -23.942 -10.623  -0.089  1.00  0.00     0.103 C 
HETATM   26  C   UNL     1     -24.051 -11.476  -1.344  1.00  0.00     0.021 C 
ENDBRANCH  24  25
BRANCH  24  27
HETATM   27  C   UNL     1     -23.018  -8.325   0.421  1.00  0.00     0.103 C 
HETATM   28  C   UNL     1     -22.514  -7.232  -0.501  1.00  0.00     0.021 C 
ENDBRANCH  24  27
ENDBRANCH  21  24
ENDBRANCH  17  21
BRANCH  20  29
HETATM   29  O   UNL     1     -18.338 -10.846  -4.607  1.00  0.00    -0.354 OA
HETATM   30  C   UNL     1     -17.808  -9.627  -5.090  1.00  0.00     0.210 C 
ENDBRANCH  20  29
ENDBRANCH  12  15
ENDBRANCH   1  11
BRANCH   2  31
HETATM   31  O   UNL     1     -15.324 -13.626  -0.436  1.00  0.00    -0.357 OA
HETATM   32  H   UNL     1     -14.726 -14.067   0.199  1.00  0.00     0.217 HD
ENDBRANCH   2  31
BRANCH   3  33
HETATM   33  C   UNL     1     -12.770 -15.191  -0.794  1.00  0.00     0.259 C 
HETATM   34  O   UNL     1     -12.495 -16.403  -0.848  1.00  0.00    -0.267 OA
HETATM   35  N   UNL     1     -12.355 -14.353   0.194  1.00  0.00    -0.320 N 
HETATM   36  H   UNL     1     -12.808 -13.454   0.248  1.00  0.00     0.169 HD
BRANCH  35  37
HETATM   37  C   UNL     1     -11.760 -14.868   1.371  1.00  0.00     0.070 A 
HETATM   38  C   UNL     1     -10.393 -14.637   1.606  1.00  0.00     0.059 A 
HETATM   39  C   UNL     1      -9.772 -15.036   2.798  1.00  0.00     0.069 A 
HETATM   40  C   UNL     1     -10.516 -15.712   3.768  1.00  0.00     0.092 A 
HETATM   41 CL   UNL     1      -8.124 -14.546   2.972  1.00  0.00    -0.081 Cl
HETATM   42  C   UNL     1     -11.881 -15.959   3.521  1.00  0.00     0.077 A 
HETATM   43  C   UNL     1     -12.507 -15.564   2.331  1.00  0.00     0.097 A 
BRANCH  40  44
HETATM   44  O   UNL     1     -10.126 -16.124   5.015  1.00  0.00    -0.354 OA
HETATM   45  C   UNL     1     -10.081 -15.167   6.064  1.00  0.00     0.210 C 
ENDBRANCH  40  44
BRANCH  43  46
HETATM   46  O   UNL     1     -13.834 -15.888   2.233  1.00  0.00    -0.354 OA
HETATM   47  C   UNL     1     -14.752 -15.015   2.891  1.00  0.00     0.210 C 
ENDBRANCH  43  46
ENDBRANCH  35  37
ENDBRANCH   3  33
TORSDOF 12
ENDMDL
MODEL 5
REMARK VINA RESULT:      -7.2      4.567     10.697
REMARK  12 active torsions:
REMARK  status: ('A' for Active; 'I' for Inactive)
REMARK    1  A    between atoms: C_2  and  N_3 
REMARK    2  A    between atoms: N_3  and  C_4 
REMARK    3  A    between atoms: N_3  and  S_6 
REMARK    4  A    between atoms: S_6  and  C_9 
REMARK    5  A    between atoms: C_11  and  N_17 
REMARK    6  A    between atoms: C_12  and  O_15 
REMARK    7  A    between atoms: N_19  and  C_21 
REMARK    8  A    between atoms: C_22  and  O_45 
REMARK    9  A    between atoms: C_23  and  C_31 
REMARK       I    between atoms: C_31  and  N_33 
REMARK   10  A    between atoms: N_33  and  C_34 
REMARK   11  A    between atoms: C_37  and  O_42 
REMARK   12  A    between atoms: C_39  and  O_40 
ROOT
HETATM    1  C   UNL     1     -19.300  -9.525  -4.988  1.00  0.00     0.093 C 
HETATM    2  C   UNL     1     -20.247 -10.285  -4.242  1.00  0.00     0.110 C 
HETATM    3  C   UNL     1     -20.040 -11.654  -3.998  1.00  0.00     0.068 C 
HETATM    4  C   UNL     1     -19.095 -12.316  -4.780  1.00  0.00     0.032 C 
HETATM    5  C   UNL     1     -18.185 -11.600  -5.544  1.00  0.00    -0.022 C 
HETATM    6  C   UNL     1     -17.209 -12.294  -6.245  1.00  0.00     0.012 C 
HETATM    7  C   UNL     1     -15.928 -11.778  -6.293  1.00  0.00     0.001 C 
HETATM    8  C   UNL     1     -15.769 -10.421  -6.065  1.00  0.00     0.001 C 
HETATM    9  C   UNL     1     -16.890  -9.619  -5.802  1.00  0.00     0.014 C 
HETATM   10  C   UNL     1     -18.137 -10.204  -5.462  1.00  0.00     0.005 C 
ENDROOT
BRANCH   1  11
HETATM   11  N   UNL     1     -19.469  -8.108  -5.133  1.00  0.00    -0.297 N 
HETATM   12  N   UNL     1     -20.335  -7.849  -6.008  1.00  0.00    -0.297 N 
ATOM     13  HN  UNL     1     -20.904  -8.585  -6.428  1.00  0.00     0.187 HD
ATOM     14  HN  UNL     1     -18.956  -7.405  -4.600  1.00  0.00     0.187 HD
BRANCH  12  15
HETATM   15  C   UNL     1     -20.488  -6.483  -6.388  1.00  0.00     0.082 A 
HETATM   16  C   UNL     1     -20.416  -6.047  -7.733  1.00  0.00     0.058 A 
HETATM   17  C   UNL     1     -20.615  -4.695  -8.077  1.00  0.00     0.077 A 
HETATM   18  C   UNL     1     -20.915  -3.743  -7.111  1.00  0.00     0.028 A 
HETATM   19  C   UNL     1     -20.993  -4.147  -5.788  1.00  0.00     0.040 A 
HETATM   20  C   UNL     1     -20.782  -5.492  -5.413  1.00  0.00     0.096 A 
BRANCH  17  21
HETATM   21  S   UNL     1     -20.481  -4.151  -9.765  1.00  0.00     0.243 S 
HETATM   22  O   UNL     1     -20.148  -5.318 -10.558  1.00  0.00    -0.206 OA
HETATM   23  O   UNL     1     -19.673  -2.940  -9.793  1.00  0.00    -0.206 OA
BRANCH  21  24
HETATM   24  N   UNL     1     -22.098  -3.705 -10.148  1.00  0.00    -0.207 NA
BRANCH  24  25
HETATM   25  C   UNL     1     -22.211  -2.787 -11.318  1.00  0.00     0.103 C 
HETATM   26  C   UNL     1     -22.344  -3.515 -12.647  1.00  0.00     0.021 C 
ENDBRANCH  24  25
BRANCH  24  27
HETATM   27  C   UNL     1     -23.082  -4.835 -10.119  1.00  0.00     0.103 C 
HETATM   28  C   UNL     1     -24.495  -4.402  -9.776  1.00  0.00     0.021 C 
ENDBRANCH  24  27
ENDBRANCH  21  24
ENDBRANCH  17  21
BRANCH  20  29
HETATM   29  O   UNL     1     -20.938  -5.624  -4.054  1.00  0.00    -0.354 OA
HETATM   30  C   UNL     1     -22.066  -6.301  -3.536  1.00  0.00     0.210 C 
ENDBRANCH  20  29
ENDBRANCH  12  15
ENDBRANCH   1  11
BRANCH   2  31
HETATM   31  O   UNL     1     -21.378  -9.679  -3.746  1.00  0.00    -0.357 OA
HETATM   32  H   UNL     1     -21.159  -8.735  -3.616  1.00  0.00     0.217 HD
ENDBRANCH   2  31
BRANCH   3  33
HETATM   33  C   UNL     1     -20.652 -12.487  -2.916  1.00  0.00     0.259 C 
HETATM   34  O   UNL     1     -21.279 -13.507  -3.256  1.00  0.00    -0.267 OA
HETATM   35  N   UNL     1     -20.539 -12.048  -1.634  1.00  0.00    -0.320 N 
HETATM   36  H   UNL     1     -20.195 -11.110  -1.503  1.00  0.00     0.169 HD
BRANCH  35  37
HETATM   37  C   UNL     1     -21.335 -12.611  -0.607  1.00  0.00     0.070 A 
HETATM   38  C   UNL     1     -20.834 -13.698   0.131  1.00  0.00     0.059 A 
HETATM   39  C   UNL     1     -21.533 -14.234   1.222  1.00  0.00     0.069 A 
HETATM   40  C   UNL     1     -22.777 -13.702   1.570  1.00  0.00     0.092 A 
HETATM   41 CL   UNL     1     -20.702 -15.471   2.096  1.00  0.00    -0.081 Cl
HETATM   42  C   UNL     1     -23.286 -12.626   0.815  1.00  0.00     0.077 A 
HETATM   43  C   UNL     1     -22.593 -12.088  -0.277  1.00  0.00     0.097 A 
BRANCH  40  44
HETATM   44  O   UNL     1     -23.583 -14.028   2.627  1.00  0.00    -0.354 OA
HETATM   45  C   UNL     1     -24.228 -15.295   2.626  1.00  0.00     0.210 C 
ENDBRANCH  40  44
BRANCH  43  46
HETATM   46  O   UNL     1     -23.223 -11.054  -0.918  1.00  0.00    -0.354 OA
HETATM   47  C   UNL     1     -23.340  -9.831  -0.191  1.00  0.00     0.210 C 
ENDBRANCH  43  46
ENDBRANCH  35  37
ENDBRANCH   3  33
TORSDOF 12
ENDMDL
MODEL 6
REMARK VINA RESULT:      -7.1      5.967     12.908
REMARK  12 active torsions:
REMARK  status: ('A' for Active; 'I' for Inactive)
REMARK    1  A    between atoms: C_2  and  N_3 
REMARK    2  A    between atoms: N_3  and  C_4 
REMARK    3  A    between atoms: N_3  and  S_6 
REMARK    4  A    between atoms: S_6  and  C_9 
REMARK    5  A    between atoms: C_11  and  N_17 
REMARK    6  A    between atoms: C_12  and  O_15 
REMARK    7  A    between atoms: N_19  and  C_21 
REMARK    8  A    between atoms: C_22  and  O_45 
REMARK    9  A    between atoms: C_23  and  C_31 
REMARK       I    between atoms: C_31  and  N_33 
REMARK   10  A    between atoms: N_33  and  C_34 
REMARK   11  A    between atoms: C_37  and  O_42 
REMARK   12  A    between atoms: C_39  and  O_40 
ROOT
HETATM    1  C   UNL     1     -15.227 -12.641  -2.739  1.00  0.00     0.093 C 
HETATM    2  C   UNL     1     -14.823 -13.450  -1.638  1.00  0.00     0.110 C 
HETATM    3  C   UNL     1     -13.869 -14.469  -1.806  1.00  0.00     0.068 C 
HETATM    4  C   UNL     1     -13.596 -14.895  -3.104  1.00  0.00     0.032 C 
HETATM    5  C   UNL     1     -14.010 -14.144  -4.195  1.00  0.00    -0.022 C 
HETATM    6  C   UNL     1     -13.649 -14.560  -5.468  1.00  0.00     0.012 C 
HETATM    7  C   UNL     1     -13.272 -13.610  -6.399  1.00  0.00     0.001 C 
HETATM    8  C   UNL     1     -13.702 -12.308  -6.203  1.00  0.00     0.001 C 
HETATM    9  C   UNL     1     -14.496 -11.992  -5.090  1.00  0.00     0.014 C 
HETATM   10  C   UNL     1     -14.618 -12.897  -4.005  1.00  0.00     0.005 C 
ENDROOT
BRANCH   1  11
HETATM   11  N   UNL     1     -16.116 -11.534  -2.531  1.00  0.00    -0.297 N 
HETATM   12  N   UNL     1     -17.278 -11.939  -2.268  1.00  0.00    -0.297 N 
ATOM     13  HN  UNL     1     -17.473 -12.927  -2.105  1.00  0.00     0.187 HD
ATOM     14  HN  UNL     1     -15.844 -10.553  -2.588  1.00  0.00     0.187 HD
BRANCH  12  15
HETATM   15  C   UNL     1     -18.311 -10.957  -2.207  1.00  0.00     0.082 A 
HETATM   16  C   UNL     1     -19.256 -10.902  -1.154  1.00  0.00     0.058 A 
HETATM   17  C   UNL     1     -20.237  -9.891  -1.103  1.00  0.00     0.077 A 
HETATM   18  C   UNL     1     -20.297  -8.897  -2.071  1.00  0.00     0.028 A 
HETATM   19  C   UNL     1     -19.380  -8.929  -3.109  1.00  0.00     0.040 A 
HETATM   20  C   UNL     1     -18.397  -9.939  -3.194  1.00  0.00     0.096 A 
BRANCH  17  21
HETATM   21  S   UNL     1     -21.446  -9.855   0.200  1.00  0.00     0.243 S 
HETATM   22  O   UNL     1     -22.434  -8.860  -0.171  1.00  0.00    -0.206 OA
HETATM   23  O   UNL     1     -20.746  -9.812   1.475  1.00  0.00    -0.206 OA
BRANCH  21  24
HETATM   24  N   UNL     1     -22.191 -11.401   0.069  1.00  0.00    -0.207 NA
BRANCH  24  25
HETATM   25  C   UNL     1     -21.636 -12.421   1.005  1.00  0.00     0.103 C 
HETATM   26  C   UNL     1     -22.669 -13.433   1.476  1.00  0.00     0.021 C 
ENDBRANCH  24  25
BRANCH  24  27
HETATM   27  C   UNL     1     -23.686 -11.368  -0.036  1.00  0.00     0.103 C 
HETATM   28  C   UNL     1     -24.200 -11.558  -1.451  1.00  0.00     0.021 C 
ENDBRANCH  24  27
ENDBRANCH  21  24
ENDBRANCH  17  21
BRANCH  20  29
HETATM   29  O   UNL     1     -17.610  -9.727  -4.300  1.00  0.00    -0.354 OA
HETATM   30  C   UNL     1     -17.972 -10.296  -5.543  1.00  0.00     0.210 C 
ENDBRANCH  20  29
ENDBRANCH  12  15
ENDBRANCH   1  11
BRANCH   2  31
HETATM   31  O   UNL     1     -15.363 -13.235  -0.392  1.00  0.00    -0.357 OA
HETATM   32  H   UNL     1     -15.167 -12.308  -0.154  1.00  0.00     0.217 HD
ENDBRANCH   2  31
BRANCH   3  33
HETATM   33  C   UNL     1     -13.021 -15.102  -0.748  1.00  0.00     0.259 C 
HETATM   34  O   UNL     1     -12.820 -16.328  -0.823  1.00  0.00    -0.267 OA
HETATM   35  N   UNL     1     -12.570 -14.312   0.265  1.00  0.00    -0.320 N 
HETATM   36  H   UNL     1     -12.968 -13.389   0.331  1.00  0.00     0.169 HD
BRANCH  35  37
HETATM   37  C   UNL     1     -12.026 -14.887   1.438  1.00  0.00     0.070 A 
HETATM   38  C   UNL     1     -12.896 -15.391   2.422  1.00  0.00     0.059 A 
HETATM   39  C   UNL     1     -12.417 -16.059   3.558  1.00  0.00     0.069 A 
HETATM   40  C   UNL     1     -11.040 -16.202   3.742  1.00  0.00     0.092 A 
HETATM   41 CL   UNL     1     -13.631 -16.732   4.586  1.00  0.00    -0.081 Cl
HETATM   42  C   UNL     1     -10.170 -15.678   2.764  1.00  0.00     0.077 A 
HETATM   43  C   UNL     1     -10.643 -15.008   1.628  1.00  0.00     0.097 A 
BRANCH  40  44
HETATM   44  O   UNL     1     -10.371 -16.870   4.733  1.00  0.00    -0.354 OA
HETATM   45  C   UNL     1      -9.185 -16.293   5.262  1.00  0.00     0.210 C 
ENDBRANCH  40  44
BRANCH  43  46
HETATM   46  O   UNL     1      -9.675 -14.545   0.777  1.00  0.00    -0.354 OA
HETATM   47  C   UNL     1      -8.335 -14.558   1.269  1.00  0.00     0.210 C 
ENDBRANCH  43  46
ENDBRANCH  35  37
ENDBRANCH   3  33
TORSDOF 12
ENDMDL
MODEL 7
REMARK VINA RESULT:      -7.1      5.576     12.778
REMARK  12 active torsions:
REMARK  status: ('A' for Active; 'I' for Inactive)
REMARK    1  A    between atoms: C_2  and  N_3 
REMARK    2  A    between atoms: N_3  and  C_4 
REMARK    3  A    between atoms: N_3  and  S_6 
REMARK    4  A    between atoms: S_6  and  C_9 
REMARK    5  A    between atoms: C_11  and  N_17 
REMARK    6  A    between atoms: C_12  and  O_15 
REMARK    7  A    between atoms: N_19  and  C_21 
REMARK    8  A    between atoms: C_22  and  O_45 
REMARK    9  A    between atoms: C_23  and  C_31 
REMARK       I    between atoms: C_31  and  N_33 
REMARK   10  A    between atoms: N_33  and  C_34 
REMARK   11  A    between atoms: C_37  and  O_42 
REMARK   12  A    between atoms: C_39  and  O_40 
ROOT
HETATM    1  C   UNL     1     -15.971 -12.327  -2.097  1.00  0.00     0.093 C 
HETATM    2  C   UNL     1     -15.581 -12.955  -0.879  1.00  0.00     0.110 C 
HETATM    3  C   UNL     1     -14.427 -13.757  -0.820  1.00  0.00     0.068 C 
HETATM    4  C   UNL     1     -13.883 -14.202  -2.023  1.00  0.00     0.032 C 
HETATM    5  C   UNL     1     -14.273 -13.632  -3.228  1.00  0.00    -0.022 C 
HETATM    6  C   UNL     1     -13.650 -14.047  -4.395  1.00  0.00     0.012 C 
HETATM    7  C   UNL     1     -13.338 -13.104  -5.356  1.00  0.00     0.001 C 
HETATM    8  C   UNL     1     -14.046 -11.913  -5.347  1.00  0.00     0.001 C 
HETATM    9  C   UNL     1     -15.044 -11.700  -4.384  1.00  0.00     0.014 C 
HETATM   10  C   UNL     1     -15.141 -12.534  -3.242  1.00  0.00     0.005 C 
ENDROOT
BRANCH   1  11
HETATM   11  N   UNL     1     -17.086 -11.425  -2.117  1.00  0.00    -0.297 N 
HETATM   12  N   UNL     1     -18.168 -12.056  -2.226  1.00  0.00    -0.297 N 
ATOM     13  HN  UNL     1     -18.199 -13.073  -2.168  1.00  0.00     0.187 HD
ATOM     14  HN  UNL     1     -17.011 -10.410  -2.052  1.00  0.00     0.187 HD
BRANCH  12  15
HETATM   15  C   UNL     1     -19.352 -11.286  -2.433  1.00  0.00     0.082 A 
HETATM   16  C   UNL     1     -19.470 -10.324  -3.466  1.00  0.00     0.058 A 
HETATM   17  C   UNL     1     -20.669  -9.613  -3.669  1.00  0.00     0.077 A 
HETATM   18  C   UNL     1     -21.788  -9.846  -2.879  1.00  0.00     0.028 A 
HETATM   19  C   UNL     1     -21.696 -10.786  -1.864  1.00  0.00     0.040 A 
HETATM   20  C   UNL     1     -20.502 -11.501  -1.628  1.00  0.00     0.096 A 
BRANCH  17  21
HETATM   21  S   UNL     1     -20.796  -8.376  -4.941  1.00  0.00     0.243 S 
HETATM   22  O   UNL     1     -21.494  -8.989  -6.054  1.00  0.00    -0.206 OA
HETATM   23  O   UNL     1     -19.494  -7.744  -5.098  1.00  0.00    -0.206 OA
BRANCH  21  24
HETATM   24  N   UNL     1     -21.855  -7.217  -4.238  1.00  0.00    -0.207 NA
BRANCH  24  25
HETATM   25  C   UNL     1     -21.234  -6.416  -3.143  1.00  0.00     0.103 C 
HETATM   26  C   UNL     1     -22.154  -6.208  -1.950  1.00  0.00     0.021 C 
ENDBRANCH  24  25
BRANCH  24  27
HETATM   27  C   UNL     1     -22.672  -6.436  -5.223  1.00  0.00     0.103 C 
HETATM   28  C   UNL     1     -21.849  -5.497  -6.085  1.00  0.00     0.021 C 
ENDBRANCH  24  27
ENDBRANCH  21  24
ENDBRANCH  17  21
BRANCH  20  29
HETATM   29  O   UNL     1     -20.686 -12.376  -0.585  1.00  0.00    -0.354 OA
HETATM   30  C   UNL     1     -21.255 -11.920   0.627  1.00  0.00     0.210 C 
ENDBRANCH  20  29
ENDBRANCH  12  15
ENDBRANCH   1  11
BRANCH   2  31
HETATM   31  O   UNL     1     -16.332 -12.777   0.258  1.00  0.00    -0.357 OA
HETATM   32  H   UNL     1     -15.720 -12.854   1.017  1.00  0.00     0.217 HD
ENDBRANCH   2  31
BRANCH   3  33
HETATM   33  C   UNL     1     -13.635 -14.121   0.397  1.00  0.00     0.259 C 
HETATM   34  O   UNL     1     -13.649 -13.327   1.355  1.00  0.00    -0.267 OA
HETATM   35  N   UNL     1     -12.901 -15.266   0.360  1.00  0.00    -0.320 N 
HETATM   36  H   UNL     1     -12.804 -15.714  -0.537  1.00  0.00     0.169 HD
BRANCH  35  37
HETATM   37  C   UNL     1     -11.910 -15.517   1.339  1.00  0.00     0.070 A 
HETATM   38  C   UNL     1     -10.594 -15.077   1.111  1.00  0.00     0.059 A 
HETATM   39  C   UNL     1      -9.593 -15.209   2.084  1.00  0.00     0.069 A 
HETATM   40  C   UNL     1      -9.895 -15.824   3.301  1.00  0.00     0.092 A 
HETATM   41 CL   UNL     1      -8.075 -14.487   1.685  1.00  0.00    -0.081 Cl
HETATM   42  C   UNL     1     -11.210 -16.282   3.519  1.00  0.00     0.077 A 
HETATM   43  C   UNL     1     -12.213 -16.155   2.550  1.00  0.00     0.097 A 
BRANCH  40  44
HETATM   44  O   UNL     1      -9.093 -15.991   4.399  1.00  0.00    -0.354 OA
HETATM   45  C   UNL     1      -9.531 -15.468   5.646  1.00  0.00     0.210 C 
ENDBRANCH  40  44
BRANCH  43  46
HETATM   46  O   UNL     1     -13.436 -16.661   2.904  1.00  0.00    -0.354 OA
HETATM   47  C   UNL     1     -14.217 -15.869   3.799  1.00  0.00     0.210 C 
ENDBRANCH  43  46
ENDBRANCH  35  37
ENDBRANCH   3  33
TORSDOF 12
ENDMDL
MODEL 8
REMARK VINA RESULT:      -6.9      2.012      3.150
REMARK  12 active torsions:
REMARK  status: ('A' for Active; 'I' for Inactive)
REMARK    1  A    between atoms: C_2  and  N_3 
REMARK    2  A    between atoms: N_3  and  C_4 
REMARK    3  A    between atoms: N_3  and  S_6 
REMARK    4  A    between atoms: S_6  and  C_9 
REMARK    5  A    between atoms: C_11  and  N_17 
REMARK    6  A    between atoms: C_12  and  O_15 
REMARK    7  A    between atoms: N_19  and  C_21 
REMARK    8  A    between atoms: C_22  and  O_45 
REMARK    9  A    between atoms: C_23  and  C_31 
REMARK       I    between atoms: C_31  and  N_33 
REMARK   10  A    between atoms: N_33  and  C_34 
REMARK   11  A    between atoms: C_37  and  O_42 
REMARK   12  A    between atoms: C_39  and  O_40 
ROOT
HETATM    1  C   UNL     1     -20.958  -9.517  -3.350  1.00  0.00     0.093 C 
HETATM    2  C   UNL     1     -21.112  -8.736  -4.531  1.00  0.00     0.110 C 
HETATM    3  C   UNL     1     -21.535  -7.396  -4.458  1.00  0.00     0.068 C 
HETATM    4  C   UNL     1     -22.124  -6.966  -3.270  1.00  0.00     0.032 C 
HETATM    5  C   UNL     1     -22.019  -7.727  -2.114  1.00  0.00    -0.022 C 
HETATM    6  C   UNL     1     -22.550  -7.225  -0.935  1.00  0.00     0.012 C 
HETATM    7  C   UNL     1     -21.849  -7.407   0.242  1.00  0.00     0.001 C 
HETATM    8  C   UNL     1     -20.930  -8.441   0.294  1.00  0.00     0.001 C 
HETATM    9  C   UNL     1     -20.739  -9.266  -0.826  1.00  0.00     0.014 C 
HETATM   10  C   UNL     1     -21.234  -8.885  -2.099  1.00  0.00     0.005 C 
ENDROOT
BRANCH   1  11
HETATM   11  N   UNL     1     -20.420 -10.845  -3.431  1.00  0.00    -0.297 N 
HETATM   12  N   UNL     1     -19.240 -10.823  -3.866  1.00  0.00    -0.297 N 
ATOM     13  HN  UNL     1     -18.739  -9.945  -3.999  1.00  0.00     0.187 HD
ATOM     14  HN  UNL     1     -20.926 -11.692  -3.171  1.00  0.00     0.187 HD
BRANCH  12  15
HETATM   15  C   UNL     1     -18.634 -12.079  -4.165  1.00  0.00     0.082 A 
HETATM   16  C   UNL     1     -17.770 -12.749  -3.264  1.00  0.00     0.058 A 
HETATM   17  C   UNL     1     -17.223 -14.009  -3.575  1.00  0.00     0.077 A 
HETATM   18  C   UNL     1     -17.530 -14.654  -4.767  1.00  0.00     0.028 A 
HETATM   19  C   UNL     1     -18.375 -14.018  -5.663  1.00  0.00     0.040 A 
HETATM   20  C   UNL     1     -18.925 -12.748  -5.384  1.00  0.00     0.096 A 
BRANCH  17  21
HETATM   21  S   UNL     1     -16.106 -14.823  -2.456  1.00  0.00     0.243 S 
HETATM   22  O   UNL     1     -15.315 -15.745  -3.248  1.00  0.00    -0.206 OA
HETATM   23  O   UNL     1     -16.860 -15.256  -1.289  1.00  0.00    -0.206 OA
BRANCH  21  24
HETATM   24  N   UNL     1     -15.069 -13.543  -1.959  1.00  0.00    -0.207 NA
BRANCH  24  25
HETATM   25  C   UNL     1     -15.119 -13.258  -0.496  1.00  0.00     0.103 C 
HETATM   26  C   UNL     1     -15.753 -11.916  -0.163  1.00  0.00     0.021 C 
ENDBRANCH  24  25
BRANCH  24  27
HETATM   27  C   UNL     1     -13.697 -13.580  -2.562  1.00  0.00     0.103 C 
HETATM   28  C   UNL     1     -13.550 -12.704  -3.792  1.00  0.00     0.021 C 
ENDBRANCH  24  27
ENDBRANCH  21  24
ENDBRANCH  17  21
BRANCH  20  29
HETATM   29  O   UNL     1     -19.738 -12.358  -6.421  1.00  0.00    -0.354 OA
HETATM   30  C   UNL     1     -19.496 -12.842  -7.727  1.00  0.00     0.210 C 
ENDBRANCH  20  29
ENDBRANCH  12  15
ENDBRANCH   1  11
BRANCH   2  31
HETATM   31  O   UNL     1     -20.843  -9.287  -5.762  1.00  0.00    -0.357 OA
HETATM   32  H   UNL     1     -21.705  -9.446  -6.195  1.00  0.00     0.217 HD
ENDBRANCH   2  31
BRANCH   3  33
HETATM   33  C   UNL     1     -21.339  -6.325  -5.484  1.00  0.00     0.259 C 
HETATM   34  O   UNL     1     -21.401  -5.141  -5.104  1.00  0.00    -0.267 OA
HETATM   35  N   UNL     1     -21.167  -6.707  -6.779  1.00  0.00    -0.320 N 
HETATM   36  H   UNL     1     -21.344  -7.675  -6.994  1.00  0.00     0.169 HD
BRANCH  35  37
HETATM   37  C   UNL     1     -21.276  -5.763  -7.828  1.00  0.00     0.070 A 
HETATM   38  C   UNL     1     -22.545  -5.473  -8.361  1.00  0.00     0.059 A 
HETATM   39  C   UNL     1     -22.727  -4.478  -9.331  1.00  0.00     0.069 A 
HETATM   40  C   UNL     1     -21.620  -3.774  -9.811  1.00  0.00     0.092 A 
HETATM   41 CL   UNL     1     -24.369  -4.163  -9.767  1.00  0.00    -0.081 Cl
HETATM   42  C   UNL     1     -20.347  -4.081  -9.289  1.00  0.00     0.077 A 
HETATM   43  C   UNL     1     -20.159  -5.076  -8.322  1.00  0.00     0.097 A 
BRANCH  40  44
HETATM   44  O   UNL     1     -21.586  -2.730 -10.697  1.00  0.00    -0.354 OA
HETATM   45  C   UNL     1     -21.986  -2.964 -12.041  1.00  0.00     0.210 C 
ENDBRANCH  40  44
BRANCH  43  46
HETATM   46  O   UNL     1     -18.862  -5.266  -7.923  1.00  0.00    -0.354 OA
HETATM   47  C   UNL     1     -18.242  -4.181  -7.233  1.00  0.00     0.210 C 
ENDBRANCH  43  46
ENDBRANCH  35  37
ENDBRANCH   3  33
TORSDOF 12
ENDMDL
MODEL 9
REMARK VINA RESULT:      -6.9     18.731     22.079
REMARK  12 active torsions:
REMARK  status: ('A' for Active; 'I' for Inactive)
REMARK    1  A    between atoms: C_2  and  N_3 
REMARK    2  A    between atoms: N_3  and  C_4 
REMARK    3  A    between atoms: N_3  and  S_6 
REMARK    4  A    between atoms: S_6  and  C_9 
REMARK    5  A    between atoms: C_11  and  N_17 
REMARK    6  A    between atoms: C_12  and  O_15 
REMARK    7  A    between atoms: N_19  and  C_21 
REMARK    8  A    between atoms: C_22  and  O_45 
REMARK    9  A    between atoms: C_23  and  C_31 
REMARK       I    between atoms: C_31  and  N_33 
REMARK   10  A    between atoms: N_33  and  C_34 
REMARK   11  A    between atoms: C_37  and  O_42 
REMARK   12  A    between atoms: C_39  and  O_40 
ROOT
HETATM    1  C   UNL     1     -26.112   8.614  -4.052  1.00  0.00     0.093 C 
HETATM    2  C   UNL     1     -27.102   8.614  -3.027  1.00  0.00     0.110 C 
HETATM    3  C   UNL     1     -26.764   8.301  -1.699  1.00  0.00     0.068 C 
HETATM    4  C   UNL     1     -25.546   7.662  -1.473  1.00  0.00     0.032 C 
HETATM    5  C   UNL     1     -24.578   7.616  -2.467  1.00  0.00    -0.022 C 
HETATM    6  C   UNL     1     -23.349   7.042  -2.177  1.00  0.00     0.012 C 
HETATM    7  C   UNL     1     -22.203   7.634  -2.670  1.00  0.00     0.001 C 
HETATM    8  C   UNL     1     -22.326   8.458  -3.777  1.00  0.00     0.001 C 
HETATM    9  C   UNL     1     -23.586   8.663  -4.361  1.00  0.00     0.014 C 
HETATM   10  C   UNL     1     -24.771   8.298  -3.674  1.00  0.00     0.005 C 
ENDROOT
BRANCH   1  11
HETATM   11  N   UNL     1     -26.449   9.043  -5.379  1.00  0.00    -0.297 N 
HETATM   12  N   UNL     1     -26.472  10.299  -5.449  1.00  0.00    -0.297 N 
ATOM     13  HN  UNL     1     -26.155  10.881  -4.674  1.00  0.00     0.187 HD
ATOM     14  HN  UNL     1     -26.644   8.416  -6.159  1.00  0.00     0.187 HD
BRANCH  12  15
HETATM   15  C   UNL     1     -26.961  10.874  -6.660  1.00  0.00     0.082 A 
HETATM   16  C   UNL     1     -26.221  10.864  -7.867  1.00  0.00     0.058 A 
HETATM   17  C   UNL     1     -26.753  11.403  -9.055  1.00  0.00     0.077 A 
HETATM   18  C   UNL     1     -28.032  11.942  -9.093  1.00  0.00     0.028 A 
HETATM   19  C   UNL     1     -28.776  11.960  -7.923  1.00  0.00     0.040 A 
HETATM   20  C   UNL     1     -28.262  11.442  -6.714  1.00  0.00     0.096 A 
BRANCH  17  21
HETATM   21  S   UNL     1     -25.800  11.424 -10.558  1.00  0.00     0.243 S 
HETATM   22  O   UNL     1     -24.529  12.045 -10.240  1.00  0.00    -0.206 OA
HETATM   23  O   UNL     1     -26.651  11.909 -11.634  1.00  0.00    -0.206 OA
BRANCH  21  24
HETATM   24  N   UNL     1     -25.506   9.752 -10.842  1.00  0.00    -0.207 NA
BRANCH  24  25
HETATM   25  C   UNL     1     -26.743   8.920 -10.894  1.00  0.00     0.103 C 
HETATM   26  C   UNL     1     -26.464   7.427 -10.966  1.00  0.00     0.021 C 
ENDBRANCH  24  25
BRANCH  24  27
HETATM   27  C   UNL     1     -24.493   9.468 -11.910  1.00  0.00     0.103 C 
HETATM   28  C   UNL     1     -23.150   9.016 -11.370  1.00  0.00     0.021 C 
ENDBRANCH  24  27
ENDBRANCH  21  24
ENDBRANCH  17  21
BRANCH  20  29
HETATM   29  O   UNL     1     -29.203  11.564  -5.721  1.00  0.00    -0.354 OA
HETATM   30  C   UNL     1     -30.325  10.703  -5.703  1.00  0.00     0.210 C 
ENDBRANCH  20  29
ENDBRANCH  12  15
ENDBRANCH   1  11
BRANCH   2  31
HETATM   31  O   UNL     1     -28.406   8.929  -3.330  1.00  0.00    -0.357 OA
HETATM   32  H   UNL     1     -28.911   8.092  -3.309  1.00  0.00     0.217 HD
ENDBRANCH   2  31
BRANCH   3  33
HETATM   33  C   UNL     1     -27.520   8.661  -0.459  1.00  0.00     0.259 C 
HETATM   34  O   UNL     1     -28.550   9.348  -0.589  1.00  0.00    -0.267 OA
HETATM   35  N   UNL     1     -27.005   8.270   0.738  1.00  0.00    -0.320 N 
HETATM   36  H   UNL     1     -26.066   7.905   0.730  1.00  0.00     0.169 HD
BRANCH  35  37
HETATM   37  C   UNL     1     -27.494   8.821   1.946  1.00  0.00     0.070 A 
HETATM   38  C   UNL     1     -28.411   8.083   2.716  1.00  0.00     0.059 A 
HETATM   39  C   UNL     1     -28.853   8.533   3.968  1.00  0.00     0.069 A 
HETATM   40  C   UNL     1     -28.403   9.763   4.455  1.00  0.00     0.092 A 
HETATM   41 CL   UNL     1     -29.865   7.432   4.834  1.00  0.00    -0.081 Cl
HETATM   42  C   UNL     1     -27.501  10.510   3.672  1.00  0.00     0.077 A 
HETATM   43  C   UNL     1     -27.057  10.066   2.420  1.00  0.00     0.097 A 
BRANCH  40  44
HETATM   44  O   UNL     1     -28.655  10.349   5.667  1.00  0.00    -0.354 OA
HETATM   45  C   UNL     1     -27.911   9.918   6.799  1.00  0.00     0.210 C 
ENDBRANCH  40  44
BRANCH  43  46
HETATM   46  O   UNL     1     -26.192  10.909   1.773  1.00  0.00    -0.354 OA
HETATM   47  C   UNL     1     -26.766  12.068   1.168  1.00  0.00     0.210 C 
ENDBRANCH  43  46
ENDBRANCH  35  37
ENDBRANCH   3  33
TORSDOF 12
ENDMDL
