MODEL 1
REMARK VINA RESULT:      -3.7      0.000      0.000
REMARK  3 active torsions:
REMARK  status: ('A' for Active; 'I' for Inactive)
REMARK    1  A    between atoms: CA_1  and  C_2 
REMARK    2  A    between atoms: CA_1  and  N_5 
REMARK    3  A    between atoms: C_2  and  OXT_4 
ROOT
ATOM      1  CA  GLY A   1     -23.021  -2.971 -13.150  1.00  0.00     0.376 C 
ENDROOT
BRANCH   1   2
ATOM      2  C   GLY A   1     -23.101  -2.555 -14.616  1.00  0.00     0.168 C 
ATOM      3  O   GLY A   1     -23.897  -1.755 -15.077  1.00  0.00    -0.649 OA
BRANCH   2   4
ATOM      4  OXT GLY A   1     -22.140  -3.176 -15.354  1.00  0.00    -0.775 OA
ATOM      5  HXT GLY A   1     -21.327  -3.188 -14.792  1.00  0.00     0.167 HD
ENDBRANCH   2   4
ENDBRANCH   1   2
BRANCH   1   6
ATOM      6  N   GLY A   1     -21.714  -3.630 -12.902  1.00  0.00     0.088 N 
ATOM      7  H1  GLY A   1     -21.403  -3.362 -11.961  1.00  0.00     0.313 HD
ATOM      8  H2  GLY A   1     -21.027  -3.191 -13.522  1.00  0.00     0.313 HD
ENDBRANCH   1   6
TORSDOF 3
ENDMDL
MODEL 2
REMARK VINA RESULT:      -3.6      4.521      4.964
REMARK  3 active torsions:
REMARK  status: ('A' for Active; 'I' for Inactive)
REMARK    1  A    between atoms: CA_1  and  C_2 
REMARK    2  A    between atoms: CA_1  and  N_5 
REMARK    3  A    between atoms: C_2  and  OXT_4 
ROOT
ATOM      1  CA  GLY A   1     -23.489  -3.898  -9.517  1.00  0.00     0.376 C 
ENDROOT
BRANCH   1   2
ATOM      2  C   GLY A   1     -24.614  -3.320 -10.372  1.00  0.00     0.168 C 
ATOM      3  O   GLY A   1     -24.503  -2.963 -11.532  1.00  0.00    -0.649 OA
BRANCH   2   4
ATOM      4  OXT GLY A   1     -25.784  -3.276  -9.678  1.00  0.00    -0.775 OA
ATOM      5  HXT GLY A   1     -26.499  -3.169 -10.352  1.00  0.00     0.167 HD
ENDBRANCH   2   4
ENDBRANCH   1   2
BRANCH   1   6
ATOM      6  N   GLY A   1     -23.959  -4.020  -8.114  1.00  0.00     0.088 N 
ATOM      7  H1  GLY A   1     -23.525  -4.859  -7.713  1.00  0.00     0.313 HD
ATOM      8  H2  GLY A   1     -24.956  -4.249  -8.144  1.00  0.00     0.313 HD
ENDBRANCH   1   6
TORSDOF 3
ENDMDL
MODEL 3
REMARK VINA RESULT:      -3.6     15.195     15.313
REMARK  3 active torsions:
REMARK  status: ('A' for Active; 'I' for Inactive)
REMARK    1  A    between atoms: CA_1  and  C_2 
REMARK    2  A    between atoms: CA_1  and  N_5 
REMARK    3  A    between atoms: C_2  and  OXT_4 
ROOT
ATOM      1  CA  GLY A   1     -29.663 -15.798 -20.295  1.00  0.00     0.376 C 
ENDROOT
BRANCH   1   2
ATOM      2  C   GLY A   1     -29.636 -14.272 -20.282  1.00  0.00     0.168 C 
ATOM      3  O   GLY A   1     -30.113 -13.569 -19.408  1.00  0.00    -0.649 OA
BRANCH   2   4
ATOM      4  OXT GLY A   1     -28.978 -13.784 -21.368  1.00  0.00    -0.775 OA
ATOM      5  HXT GLY A   1     -28.101 -14.242 -21.386  1.00  0.00     0.167 HD
ENDBRANCH   2   4
ENDBRANCH   1   2
BRANCH   1   6
ATOM      6  N   GLY A   1     -30.954 -16.256 -20.866  1.00  0.00     0.088 N 
ATOM      7  H1  GLY A   1     -31.676 -16.121 -20.149  1.00  0.00     0.313 HD
ATOM      8  H2  GLY A   1     -30.899 -17.274 -20.971  1.00  0.00     0.313 HD
ENDBRANCH   1   6
TORSDOF 3
ENDMDL
MODEL 4
REMARK VINA RESULT:      -3.6      2.288      2.760
REMARK  3 active torsions:
REMARK  status: ('A' for Active; 'I' for Inactive)
REMARK    1  A    between atoms: CA_1  and  C_2 
REMARK    2  A    between atoms: CA_1  and  N_5 
REMARK    3  A    between atoms: C_2  and  OXT_4 
ROOT
ATOM      1  CA  GLY A   1     -22.649  -3.018 -11.979  1.00  0.00     0.376 C 
ENDROOT
BRANCH   1   2
ATOM      2  C   GLY A   1     -24.165  -2.885 -12.098  1.00  0.00     0.168 C 
ATOM      3  O   GLY A   1     -24.969  -3.215 -11.244  1.00  0.00    -0.649 OA
BRANCH   2   4
ATOM      4  OXT GLY A   1     -24.515  -2.317 -13.285  1.00  0.00    -0.775 OA
ATOM      5  HXT GLY A   1     -25.445  -1.998 -13.173  1.00  0.00     0.167 HD
ENDBRANCH   2   4
ENDBRANCH   1   2
BRANCH   1   6
ATOM      6  N   GLY A   1     -22.091  -3.408 -13.297  1.00  0.00     0.088 N 
ATOM      7  H1  GLY A   1     -22.278  -2.642 -13.954  1.00  0.00     0.313 HD
ATOM      8  H2  GLY A   1     -22.659  -4.182 -13.654  1.00  0.00     0.313 HD
ENDBRANCH   1   6
TORSDOF 3
ENDMDL
MODEL 5
REMARK VINA RESULT:      -3.5      2.426      2.605
REMARK  3 active torsions:
REMARK  status: ('A' for Active; 'I' for Inactive)
REMARK    1  A    between atoms: CA_1  and  C_2 
REMARK    2  A    between atoms: CA_1  and  N_5 
REMARK    3  A    between atoms: C_2  and  OXT_4 
ROOT
ATOM      1  CA  GLY A   1     -23.195  -1.617 -15.084  1.00  0.00     0.376 C 
ENDROOT
BRANCH   1   2
ATOM      2  C   GLY A   1     -23.402  -2.552 -13.895  1.00  0.00     0.168 C 
ATOM      3  O   GLY A   1     -24.438  -2.665 -13.262  1.00  0.00    -0.649 OA
BRANCH   2   4
ATOM      4  OXT GLY A   1     -22.279  -3.277 -13.641  1.00  0.00    -0.775 OA
ATOM      5  HXT GLY A   1     -21.942  -3.578 -14.520  1.00  0.00     0.167 HD
ENDBRANCH   2   4
ENDBRANCH   1   2
BRANCH   1   6
ATOM      6  N   GLY A   1     -24.206  -0.531 -15.030  1.00  0.00     0.088 N 
ATOM      7  H1  GLY A   1     -24.756  -0.574 -15.895  1.00  0.00     0.313 HD
ATOM      8  H2  GLY A   1     -23.704   0.358 -15.101  1.00  0.00     0.313 HD
ENDBRANCH   1   6
TORSDOF 3
ENDMDL
MODEL 6
REMARK VINA RESULT:      -3.2     16.168     16.306
REMARK  3 active torsions:
REMARK  status: ('A' for Active; 'I' for Inactive)
REMARK    1  A    between atoms: CA_1  and  C_2 
REMARK    2  A    between atoms: CA_1  and  N_5 
REMARK    3  A    between atoms: C_2  and  OXT_4 
ROOT
ATOM      1  CA  GLY A   1     -30.050 -14.820 -20.949  1.00  0.00     0.376 C 
ENDROOT
BRANCH   1   2
ATOM      2  C   GLY A   1     -31.297 -14.957 -21.819  1.00  0.00     0.168 C 
ATOM      3  O   GLY A   1     -31.973 -15.966 -21.924  1.00  0.00    -0.649 OA
BRANCH   2   4
ATOM      4  OXT GLY A   1     -31.584 -13.787 -22.451  1.00  0.00    -0.775 OA
ATOM      5  HXT GLY A   1     -32.558 -13.801 -22.626  1.00  0.00     0.167 HD
ENDBRANCH   2   4
ENDBRANCH   1   2
BRANCH   1   6
ATOM      6  N   GLY A   1     -29.012 -14.073 -21.703  1.00  0.00     0.088 N 
ATOM      7  H1  GLY A   1     -28.118 -14.559 -21.567  1.00  0.00     0.313 HD
ATOM      8  H2  GLY A   1     -28.877 -13.175 -21.230  1.00  0.00     0.313 HD
ENDBRANCH   1   6
TORSDOF 3
ENDMDL
MODEL 7
REMARK VINA RESULT:      -3.2     16.195     16.468
REMARK  3 active torsions:
REMARK  status: ('A' for Active; 'I' for Inactive)
REMARK    1  A    between atoms: CA_1  and  C_2 
REMARK    2  A    between atoms: CA_1  and  N_5 
REMARK    3  A    between atoms: C_2  and  OXT_4 
ROOT
ATOM      1  CA  GLY A   1      -9.667   5.937 -20.418  1.00  0.00     0.376 C 
ENDROOT
BRANCH   1   2
ATOM      2  C   GLY A   1     -10.386   5.656 -19.101  1.00  0.00     0.168 C 
ATOM      3  O   GLY A   1     -11.555   5.327 -18.994  1.00  0.00    -0.649 OA
BRANCH   2   4
ATOM      4  OXT GLY A   1      -9.540   5.791 -18.043  1.00  0.00    -0.775 OA
ATOM      5  HXT GLY A   1     -10.071   5.574 -17.237  1.00  0.00     0.167 HD
ENDBRANCH   2   4
ENDBRANCH   1   2
BRANCH   1   6
ATOM      6  N   GLY A   1      -9.340   7.383 -20.493  1.00  0.00     0.088 N 
ATOM      7  H1  GLY A   1      -9.942   7.874 -19.822  1.00  0.00     0.313 HD
ATOM      8  H2  GLY A   1      -9.661   7.723 -21.404  1.00  0.00     0.313 HD
ENDBRANCH   1   6
TORSDOF 3
ENDMDL
MODEL 8
REMARK VINA RESULT:      -3.2      3.143      3.582
REMARK  3 active torsions:
REMARK  status: ('A' for Active; 'I' for Inactive)
REMARK    1  A    between atoms: CA_1  and  C_2 
REMARK    2  A    between atoms: CA_1  and  N_5 
REMARK    3  A    between atoms: C_2  and  OXT_4 
ROOT
ATOM      1  CA  GLY A   1     -22.777  -2.823 -11.957  1.00  0.00     0.376 C 
ENDROOT
BRANCH   1   2
ATOM      2  C   GLY A   1     -23.835  -3.805 -11.462  1.00  0.00     0.168 C 
ATOM      3  O   GLY A   1     -23.671  -5.005 -11.323  1.00  0.00    -0.649 OA
BRANCH   2   4
ATOM      4  OXT GLY A   1     -24.997  -3.163 -11.162  1.00  0.00    -0.775 OA
ATOM      5  HXT GLY A   1     -25.018  -3.079 -10.177  1.00  0.00     0.167 HD
ENDBRANCH   2   4
ENDBRANCH   1   2
BRANCH   1   6
ATOM      6  N   GLY A   1     -22.030  -3.440 -13.081  1.00  0.00     0.088 N 
ATOM      7  H1  GLY A   1     -22.599  -4.213 -13.446  1.00  0.00     0.313 HD
ATOM      8  H2  GLY A   1     -21.208  -3.906 -12.684  1.00  0.00     0.313 HD
ENDBRANCH   1   6
TORSDOF 3
ENDMDL
MODEL 9
REMARK VINA RESULT:      -3.0      3.494      3.701
REMARK  3 active torsions:
REMARK  status: ('A' for Active; 'I' for Inactive)
REMARK    1  A    between atoms: CA_1  and  C_2 
REMARK    2  A    between atoms: CA_1  and  N_5 
REMARK    3  A    between atoms: C_2  and  OXT_4 
ROOT
ATOM      1  CA  GLY A   1     -23.896  -4.828 -10.412  1.00  0.00     0.376 C 
ENDROOT
BRANCH   1   2
ATOM      2  C   GLY A   1     -23.823  -3.890 -11.615  1.00  0.00     0.168 C 
ATOM      3  O   GLY A   1     -24.547  -2.927 -11.799  1.00  0.00    -0.649 OA
BRANCH   2   4
ATOM      4  OXT GLY A   1     -22.816  -4.250 -12.457  1.00  0.00    -0.775 OA
ATOM      5  HXT GLY A   1     -23.081  -3.929 -13.354  1.00  0.00     0.167 HD
ENDBRANCH   2   4
ENDBRANCH   1   2
BRANCH   1   6
ATOM      6  N   GLY A   1     -25.047  -4.438  -9.561  1.00  0.00     0.088 N 
ATOM      7  H1  GLY A   1     -25.675  -5.247  -9.497  1.00  0.00     0.313 HD
ATOM      8  H2  GLY A   1     -25.592  -3.744 -10.082  1.00  0.00     0.313 HD
ENDBRANCH   1   6
TORSDOF 3
ENDMDL
