MODEL 1
REMARK VINA RESULT:      -6.4      0.000      0.000
REMARK  32 active torsions:
REMARK  status: ('A' for Active; 'I' for Inactive)
REMARK    1  A    between atoms: C_2  and  C_3 
REMARK    2  A    between atoms: C_3  and  C_4 
REMARK    3  A    between atoms: C_4  and  C_5 
REMARK    4  A    between atoms: C_5  and  C_6 
REMARK    5  A    between atoms: C_6  and  C_7 
REMARK    6  A    between atoms: C_7  and  C_8 
REMARK    7  A    between atoms: C_8  and  C_9 
REMARK    8  A    between atoms: C_9  and  C_10 
REMARK    9  A    between atoms: C_10  and  C_11 
REMARK   10  A    between atoms: C_11  and  C_12 
REMARK   11  A    between atoms: C_12  and  C_13 
REMARK   12  A    between atoms: C_13  and  C_14 
REMARK   13  A    between atoms: C_14  and  C_15 
REMARK   14  A    between atoms: C_15  and  C_16 
REMARK   15  A    between atoms: C_16  and  C_17 
REMARK   16  A    between atoms: C_17  and  C_18 
REMARK   17  A    between atoms: C_18  and  O_19 
REMARK   18  A    between atoms: C_22  and  C_23 
REMARK   19  A    between atoms: C_23  and  C_24 
REMARK   20  A    between atoms: C_24  and  C_25 
REMARK   21  A    between atoms: C_25  and  C_26 
REMARK   22  A    between atoms: C_26  and  C_27 
REMARK   23  A    between atoms: C_27  and  C_28 
REMARK   24  A    between atoms: C_28  and  C_29 
REMARK   25  A    between atoms: C_29  and  C_30 
REMARK   26  A    between atoms: C_30  and  C_31 
REMARK   27  A    between atoms: C_31  and  C_32 
REMARK   28  A    between atoms: C_32  and  C_33 
REMARK   29  A    between atoms: C_33  and  C_34 
REMARK   30  A    between atoms: C_34  and  C_35 
REMARK   31  A    between atoms: C_35  and  C_36 
REMARK   32  A    between atoms: C_36  and  O_37 
ROOT
HETATM    1  C   UNL     2     -34.735  -1.850 -10.933  1.00  0.00     0.000 C 
ENDROOT
BRANCH   1   2
HETATM    2  C   UNL     2     -36.177  -2.046 -10.450  1.00  0.00     0.000 C 
BRANCH   2   3
HETATM    3  C   UNL     2     -37.050  -0.788 -10.561  1.00  0.00     0.000 C 
BRANCH   3   4
HETATM    4  C   UNL     2     -37.603  -0.301  -9.219  1.00  0.00     0.000 C 
BRANCH   4   5
HETATM    5  C   UNL     2     -37.420   1.213  -9.049  1.00  0.00     0.000 C 
BRANCH   5   6
HETATM    6  C   UNL     2     -37.005   1.612  -7.631  1.00  0.00     0.000 C 
BRANCH   6   7
HETATM    7  C   UNL     2     -37.001   0.471  -6.612  1.00  0.00    -0.000 C 
BRANCH   7   8
HETATM    8  C   UNL     2     -37.448   0.849  -5.200  1.00  0.00    -0.005 C 
HETATM    9  C   UNL     2     -37.707  -0.351  -4.306  1.00  0.00     0.005 C 
ENDBRANCH   7   8
ENDBRANCH   6   7
ENDBRANCH   5   6
ENDBRANCH   4   5
ENDBRANCH   3   4
ENDBRANCH   2   3
ENDBRANCH   1   2
BRANCH   1  10
HETATM   10  C   UNL     2     -34.580  -2.163 -12.431  1.00  0.00     0.000 C 
BRANCH  10  11
HETATM   11  C   UNL     2     -34.235  -3.642 -12.665  1.00  0.00     0.000 C 
BRANCH  11  12
HETATM   12  C   UNL     2     -32.951  -4.073 -11.943  1.00  0.00     0.000 C 
BRANCH  12  13
HETATM   13  C   UNL     2     -33.141  -5.409 -11.217  1.00  0.00     0.000 C 
BRANCH  13  14
HETATM   14  C   UNL     2     -34.615  -5.732 -10.944  1.00  0.00     0.002 C 
BRANCH  14  15
HETATM   15  C   UNL     2     -34.771  -6.721  -9.783  1.00  0.00     0.026 C 
BRANCH  15  16
HETATM   16  C   UNL     2     -34.357  -8.136 -10.171  1.00  0.00     0.164 C 
BRANCH  16  17
HETATM   17  O   UNL     2     -34.213  -8.933  -9.002  1.00  0.00    -0.401 OA
HETATM   18  H   UNL     2     -34.524  -8.407  -8.246  1.00  0.00     0.209 HD
ENDBRANCH  16  17
ENDBRANCH  15  16
ENDBRANCH  14  15
ENDBRANCH  13  14
ENDBRANCH  12  13
ENDBRANCH  11  12
ENDBRANCH  10  11
ENDBRANCH   1  10
TORSDOF 32
ENDMDL
MODEL 2
REMARK VINA RESULT:      -6.3      2.450      4.420
REMARK  32 active torsions:
REMARK  status: ('A' for Active; 'I' for Inactive)
REMARK    1  A    between atoms: C_2  and  C_3 
REMARK    2  A    between atoms: C_3  and  C_4 
REMARK    3  A    between atoms: C_4  and  C_5 
REMARK    4  A    between atoms: C_5  and  C_6 
REMARK    5  A    between atoms: C_6  and  C_7 
REMARK    6  A    between atoms: C_7  and  C_8 
REMARK    7  A    between atoms: C_8  and  C_9 
REMARK    8  A    between atoms: C_9  and  C_10 
REMARK    9  A    between atoms: C_10  and  C_11 
REMARK   10  A    between atoms: C_11  and  C_12 
REMARK   11  A    between atoms: C_12  and  C_13 
REMARK   12  A    between atoms: C_13  and  C_14 
REMARK   13  A    between atoms: C_14  and  C_15 
REMARK   14  A    between atoms: C_15  and  C_16 
REMARK   15  A    between atoms: C_16  and  C_17 
REMARK   16  A    between atoms: C_17  and  C_18 
REMARK   17  A    between atoms: C_18  and  O_19 
REMARK   18  A    between atoms: C_22  and  C_23 
REMARK   19  A    between atoms: C_23  and  C_24 
REMARK   20  A    between atoms: C_24  and  C_25 
REMARK   21  A    between atoms: C_25  and  C_26 
REMARK   22  A    between atoms: C_26  and  C_27 
REMARK   23  A    between atoms: C_27  and  C_28 
REMARK   24  A    between atoms: C_28  and  C_29 
REMARK   25  A    between atoms: C_29  and  C_30 
REMARK   26  A    between atoms: C_30  and  C_31 
REMARK   27  A    between atoms: C_31  and  C_32 
REMARK   28  A    between atoms: C_32  and  C_33 
REMARK   29  A    between atoms: C_33  and  C_34 
REMARK   30  A    between atoms: C_34  and  C_35 
REMARK   31  A    between atoms: C_35  and  C_36 
REMARK   32  A    between atoms: C_36  and  O_37 
ROOT
HETATM    1  C   UNL     2     -34.163  -2.116 -10.223  1.00  0.00     0.000 C 
ENDROOT
BRANCH   1   2
HETATM    2  C   UNL     2     -35.678  -2.174 -10.457  1.00  0.00     0.000 C 
BRANCH   2   3
HETATM    3  C   UNL     2     -36.451  -0.999  -9.839  1.00  0.00     0.000 C 
BRANCH   3   4
HETATM    4  C   UNL     2     -36.639   0.184 -10.793  1.00  0.00     0.000 C 
BRANCH   4   5
HETATM    5  C   UNL     2     -37.474  -0.206 -12.018  1.00  0.00     0.000 C 
BRANCH   5   6
HETATM    6  C   UNL     2     -36.655  -0.263 -13.310  1.00  0.00     0.000 C 
BRANCH   6   7
HETATM    7  C   UNL     2     -35.187   0.140 -13.164  1.00  0.00    -0.000 C 
BRANCH   7   8
HETATM    8  C   UNL     2     -34.660   1.102 -14.229  1.00  0.00    -0.005 C 
HETATM    9  C   UNL     2     -35.602   1.273 -15.408  1.00  0.00     0.005 C 
ENDBRANCH   7   8
ENDBRANCH   6   7
ENDBRANCH   5   6
ENDBRANCH   4   5
ENDBRANCH   3   4
ENDBRANCH   2   3
ENDBRANCH   1   2
BRANCH   1  10
HETATM   10  C   UNL     2     -33.385  -2.916 -11.281  1.00  0.00     0.000 C 
BRANCH  10  11
HETATM   11  C   UNL     2     -34.316  -3.457 -12.376  1.00  0.00     0.000 C 
BRANCH  11  12
HETATM   12  C   UNL     2     -34.506  -4.977 -12.296  1.00  0.00     0.000 C 
BRANCH  12  13
HETATM   13  C   UNL     2     -33.699  -5.581 -11.142  1.00  0.00     0.000 C 
BRANCH  13  14
HETATM   14  C   UNL     2     -34.589  -6.198 -10.056  1.00  0.00     0.002 C 
BRANCH  14  15
HETATM   15  C   UNL     2     -34.898  -7.671 -10.349  1.00  0.00     0.026 C 
BRANCH  15  16
HETATM   16  C   UNL     2     -33.934  -8.616  -9.641  1.00  0.00     0.164 C 
BRANCH  16  17
HETATM   17  O   UNL     2     -33.357  -9.510 -10.584  1.00  0.00    -0.401 OA
HETATM   18  H   UNL     2     -34.083  -9.937 -11.069  1.00  0.00     0.209 HD
ENDBRANCH  16  17
ENDBRANCH  15  16
ENDBRANCH  14  15
ENDBRANCH  13  14
ENDBRANCH  12  13
ENDBRANCH  11  12
ENDBRANCH  10  11
ENDBRANCH   1  10
TORSDOF 32
ENDMDL
MODEL 3
REMARK VINA RESULT:      -6.2     13.463     15.741
REMARK  32 active torsions:
REMARK  status: ('A' for Active; 'I' for Inactive)
REMARK    1  A    between atoms: C_2  and  C_3 
REMARK    2  A    between atoms: C_3  and  C_4 
REMARK    3  A    between atoms: C_4  and  C_5 
REMARK    4  A    between atoms: C_5  and  C_6 
REMARK    5  A    between atoms: C_6  and  C_7 
REMARK    6  A    between atoms: C_7  and  C_8 
REMARK    7  A    between atoms: C_8  and  C_9 
REMARK    8  A    between atoms: C_9  and  C_10 
REMARK    9  A    between atoms: C_10  and  C_11 
REMARK   10  A    between atoms: C_11  and  C_12 
REMARK   11  A    between atoms: C_12  and  C_13 
REMARK   12  A    between atoms: C_13  and  C_14 
REMARK   13  A    between atoms: C_14  and  C_15 
REMARK   14  A    between atoms: C_15  and  C_16 
REMARK   15  A    between atoms: C_16  and  C_17 
REMARK   16  A    between atoms: C_17  and  C_18 
REMARK   17  A    between atoms: C_18  and  O_19 
REMARK   18  A    between atoms: C_22  and  C_23 
REMARK   19  A    between atoms: C_23  and  C_24 
REMARK   20  A    between atoms: C_24  and  C_25 
REMARK   21  A    between atoms: C_25  and  C_26 
REMARK   22  A    between atoms: C_26  and  C_27 
REMARK   23  A    between atoms: C_27  and  C_28 
REMARK   24  A    between atoms: C_28  and  C_29 
REMARK   25  A    between atoms: C_29  and  C_30 
REMARK   26  A    between atoms: C_30  and  C_31 
REMARK   27  A    between atoms: C_31  and  C_32 
REMARK   28  A    between atoms: C_32  and  C_33 
REMARK   29  A    between atoms: C_33  and  C_34 
REMARK   30  A    between atoms: C_34  and  C_35 
REMARK   31  A    between atoms: C_35  and  C_36 
REMARK   32  A    between atoms: C_36  and  O_37 
ROOT
HETATM    1  C   UNL     2     -19.769  -5.391  -7.206  1.00  0.00     0.000 C 
ENDROOT
BRANCH   1   2
HETATM    2  C   UNL     2     -20.492  -6.453  -6.369  1.00  0.00     0.000 C 
BRANCH   2   3
HETATM    3  C   UNL     2     -21.611  -5.893  -5.479  1.00  0.00     0.000 C 
BRANCH   3   4
HETATM    4  C   UNL     2     -21.872  -6.726  -4.221  1.00  0.00     0.000 C 
BRANCH   4   5
HETATM    5  C   UNL     2     -21.369  -6.014  -2.959  1.00  0.00     0.000 C 
BRANCH   5   6
HETATM    6  C   UNL     2     -22.186  -6.356  -1.711  1.00  0.00     0.000 C 
BRANCH   6   7
HETATM    7  C   UNL     2     -21.832  -7.690  -1.052  1.00  0.00    -0.000 C 
BRANCH   7   8
HETATM    8  C   UNL     2     -22.280  -7.844   0.402  1.00  0.00    -0.005 C 
HETATM    9  C   UNL     2     -21.280  -8.591   1.267  1.00  0.00     0.005 C 
ENDBRANCH   7   8
ENDBRANCH   6   7
ENDBRANCH   5   6
ENDBRANCH   4   5
ENDBRANCH   3   4
ENDBRANCH   2   3
ENDBRANCH   1   2
BRANCH   1  10
HETATM   10  C   UNL     2     -20.676  -4.193  -7.528  1.00  0.00     0.000 C 
BRANCH  10  11
HETATM   11  C   UNL     2     -21.338  -4.341  -8.907  1.00  0.00     0.000 C 
BRANCH  11  12
HETATM   12  C   UNL     2     -20.317  -4.485 -10.043  1.00  0.00     0.000 C 
BRANCH  12  13
HETATM   13  C   UNL     2     -20.725  -3.662 -11.268  1.00  0.00     0.000 C 
BRANCH  13  14
HETATM   14  C   UNL     2     -22.165  -3.141 -11.181  1.00  0.00     0.002 C 
BRANCH  14  15
HETATM   15  C   UNL     2     -23.048  -3.736 -12.284  1.00  0.00     0.026 C 
BRANCH  15  16
HETATM   16  C   UNL     2     -23.357  -2.727 -13.383  1.00  0.00     0.164 C 
BRANCH  16  17
HETATM   17  O   UNL     2     -23.414  -3.388 -14.641  1.00  0.00    -0.401 OA
HETATM   18  H   UNL     2     -24.192  -3.050 -15.117  1.00  0.00     0.209 HD
ENDBRANCH  16  17
ENDBRANCH  15  16
ENDBRANCH  14  15
ENDBRANCH  13  14
ENDBRANCH  12  13
ENDBRANCH  11  12
ENDBRANCH  10  11
ENDBRANCH   1  10
TORSDOF 32
ENDMDL
MODEL 4
REMARK VINA RESULT:      -6.0     12.919     15.138
REMARK  32 active torsions:
REMARK  status: ('A' for Active; 'I' for Inactive)
REMARK    1  A    between atoms: C_2  and  C_3 
REMARK    2  A    between atoms: C_3  and  C_4 
REMARK    3  A    between atoms: C_4  and  C_5 
REMARK    4  A    between atoms: C_5  and  C_6 
REMARK    5  A    between atoms: C_6  and  C_7 
REMARK    6  A    between atoms: C_7  and  C_8 
REMARK    7  A    between atoms: C_8  and  C_9 
REMARK    8  A    between atoms: C_9  and  C_10 
REMARK    9  A    between atoms: C_10  and  C_11 
REMARK   10  A    between atoms: C_11  and  C_12 
REMARK   11  A    between atoms: C_12  and  C_13 
REMARK   12  A    between atoms: C_13  and  C_14 
REMARK   13  A    between atoms: C_14  and  C_15 
REMARK   14  A    between atoms: C_15  and  C_16 
REMARK   15  A    between atoms: C_16  and  C_17 
REMARK   16  A    between atoms: C_17  and  C_18 
REMARK   17  A    between atoms: C_18  and  O_19 
REMARK   18  A    between atoms: C_22  and  C_23 
REMARK   19  A    between atoms: C_23  and  C_24 
REMARK   20  A    between atoms: C_24  and  C_25 
REMARK   21  A    between atoms: C_25  and  C_26 
REMARK   22  A    between atoms: C_26  and  C_27 
REMARK   23  A    between atoms: C_27  and  C_28 
REMARK   24  A    between atoms: C_28  and  C_29 
REMARK   25  A    between atoms: C_29  and  C_30 
REMARK   26  A    between atoms: C_30  and  C_31 
REMARK   27  A    between atoms: C_31  and  C_32 
REMARK   28  A    between atoms: C_32  and  C_33 
REMARK   29  A    between atoms: C_33  and  C_34 
REMARK   30  A    between atoms: C_34  and  C_35 
REMARK   31  A    between atoms: C_35  and  C_36 
REMARK   32  A    between atoms: C_36  and  O_37 
ROOT
HETATM    1  C   UNL     2     -22.079  -4.354  -7.129  1.00  0.00     0.000 C 
ENDROOT
BRANCH   1   2
HETATM    2  C   UNL     2     -20.576  -4.408  -6.829  1.00  0.00     0.000 C 
BRANCH   2   3
HETATM    3  C   UNL     2     -20.196  -5.385  -5.707  1.00  0.00     0.000 C 
BRANCH   3   4
HETATM    4  C   UNL     2     -20.960  -6.711  -5.760  1.00  0.00     0.000 C 
BRANCH   4   5
HETATM    5  C   UNL     2     -21.443  -7.140  -4.369  1.00  0.00     0.000 C 
BRANCH   5   6
HETATM    6  C   UNL     2     -21.438  -5.996  -3.352  1.00  0.00     0.000 C 
BRANCH   6   7
HETATM    7  C   UNL     2     -22.092  -6.320  -2.009  1.00  0.00    -0.000 C 
BRANCH   7   8
HETATM    8  C   UNL     2     -21.728  -7.680  -1.411  1.00  0.00    -0.005 C 
HETATM    9  C   UNL     2     -22.166  -7.842   0.033  1.00  0.00     0.005 C 
ENDBRANCH   7   8
ENDBRANCH   6   7
ENDBRANCH   5   6
ENDBRANCH   4   5
ENDBRANCH   3   4
ENDBRANCH   2   3
ENDBRANCH   1   2
BRANCH   1  10
HETATM   10  C   UNL     2     -22.370  -3.761  -8.517  1.00  0.00     0.000 C 
BRANCH  10  11
HETATM   11  C   UNL     2     -23.610  -4.405  -9.156  1.00  0.00     0.000 C 
BRANCH  11  12
HETATM   12  C   UNL     2     -23.439  -4.657 -10.660  1.00  0.00     0.000 C 
BRANCH  12  13
HETATM   13  C   UNL     2     -21.997  -4.401 -11.110  1.00  0.00     0.000 C 
BRANCH  13  14
HETATM   14  C   UNL     2     -21.877  -3.203 -12.061  1.00  0.00     0.002 C 
BRANCH  14  15
HETATM   15  C   UNL     2     -23.254  -2.701 -12.513  1.00  0.00     0.026 C 
BRANCH  15  16
HETATM   16  C   UNL     2     -23.315  -2.460 -14.017  1.00  0.00     0.164 C 
BRANCH  16  17
HETATM   17  O   UNL     2     -24.277  -1.453 -14.304  1.00  0.00    -0.401 OA
HETATM   18  H   UNL     2     -23.796  -0.664 -14.607  1.00  0.00     0.209 HD
ENDBRANCH  16  17
ENDBRANCH  15  16
ENDBRANCH  14  15
ENDBRANCH  13  14
ENDBRANCH  12  13
ENDBRANCH  11  12
ENDBRANCH  10  11
ENDBRANCH   1  10
TORSDOF 32
ENDMDL
MODEL 5
REMARK VINA RESULT:      -6.0      3.408      7.318
REMARK  32 active torsions:
REMARK  status: ('A' for Active; 'I' for Inactive)
REMARK    1  A    between atoms: C_2  and  C_3 
REMARK    2  A    between atoms: C_3  and  C_4 
REMARK    3  A    between atoms: C_4  and  C_5 
REMARK    4  A    between atoms: C_5  and  C_6 
REMARK    5  A    between atoms: C_6  and  C_7 
REMARK    6  A    between atoms: C_7  and  C_8 
REMARK    7  A    between atoms: C_8  and  C_9 
REMARK    8  A    between atoms: C_9  and  C_10 
REMARK    9  A    between atoms: C_10  and  C_11 
REMARK   10  A    between atoms: C_11  and  C_12 
REMARK   11  A    between atoms: C_12  and  C_13 
REMARK   12  A    between atoms: C_13  and  C_14 
REMARK   13  A    between atoms: C_14  and  C_15 
REMARK   14  A    between atoms: C_15  and  C_16 
REMARK   15  A    between atoms: C_16  and  C_17 
REMARK   16  A    between atoms: C_17  and  C_18 
REMARK   17  A    between atoms: C_18  and  O_19 
REMARK   18  A    between atoms: C_22  and  C_23 
REMARK   19  A    between atoms: C_23  and  C_24 
REMARK   20  A    between atoms: C_24  and  C_25 
REMARK   21  A    between atoms: C_25  and  C_26 
REMARK   22  A    between atoms: C_26  and  C_27 
REMARK   23  A    between atoms: C_27  and  C_28 
REMARK   24  A    between atoms: C_28  and  C_29 
REMARK   25  A    between atoms: C_29  and  C_30 
REMARK   26  A    between atoms: C_30  and  C_31 
REMARK   27  A    between atoms: C_31  and  C_32 
REMARK   28  A    between atoms: C_32  and  C_33 
REMARK   29  A    between atoms: C_33  and  C_34 
REMARK   30  A    between atoms: C_34  and  C_35 
REMARK   31  A    between atoms: C_35  and  C_36 
REMARK   32  A    between atoms: C_36  and  O_37 
ROOT
HETATM    1  C   UNL     2     -34.482  -2.152  -9.870  1.00  0.00     0.000 C 
ENDROOT
BRANCH   1   2
HETATM    2  C   UNL     2     -33.359  -2.185 -10.914  1.00  0.00     0.000 C 
BRANCH   2   3
HETATM    3  C   UNL     2     -33.586  -3.200 -12.044  1.00  0.00     0.000 C 
BRANCH   3   4
HETATM    4  C   UNL     2     -32.499  -4.275 -12.134  1.00  0.00     0.000 C 
BRANCH   4   5
HETATM    5  C   UNL     2     -32.898  -5.546 -11.374  1.00  0.00     0.000 C 
BRANCH   5   6
HETATM    6  C   UNL     2     -34.391  -5.604 -11.045  1.00  0.00     0.000 C 
BRANCH   6   7
HETATM    7  C   UNL     2     -34.749  -6.422  -9.804  1.00  0.00    -0.000 C 
BRANCH   7   8
HETATM    8  C   UNL     2     -35.002  -7.910 -10.047  1.00  0.00    -0.005 C 
HETATM    9  C   UNL     2     -33.782  -8.779  -9.799  1.00  0.00     0.005 C 
ENDBRANCH   7   8
ENDBRANCH   6   7
ENDBRANCH   5   6
ENDBRANCH   4   5
ENDBRANCH   3   4
ENDBRANCH   2   3
ENDBRANCH   1   2
BRANCH   1  10
HETATM   10  C   UNL     2     -35.875  -2.141 -10.520  1.00  0.00     0.000 C 
BRANCH  10  11
HETATM   11  C   UNL     2     -36.704  -0.934 -10.055  1.00  0.00     0.000 C 
BRANCH  11  12
HETATM   12  C   UNL     2     -36.697   0.218 -11.068  1.00  0.00     0.000 C 
BRANCH  12  13
HETATM   13  C   UNL     2     -36.442  -0.290 -12.490  1.00  0.00     0.000 C 
BRANCH  13  14
HETATM   14  C   UNL     2     -35.113   0.209 -13.070  1.00  0.00     0.002 C 
BRANCH  14  15
HETATM   15  C   UNL     2     -35.284   0.742 -14.497  1.00  0.00     0.026 C 
BRANCH  15  16
HETATM   16  C   UNL     2     -35.860  -0.308 -15.440  1.00  0.00     0.164 C 
BRANCH  16  17
HETATM   17  O   UNL     2     -35.117  -1.515 -15.327  1.00  0.00    -0.401 OA
HETATM   18  H   UNL     2     -34.313  -1.321 -14.816  1.00  0.00     0.209 HD
ENDBRANCH  16  17
ENDBRANCH  15  16
ENDBRANCH  14  15
ENDBRANCH  13  14
ENDBRANCH  12  13
ENDBRANCH  11  12
ENDBRANCH  10  11
ENDBRANCH   1  10
TORSDOF 32
ENDMDL
MODEL 6
REMARK VINA RESULT:      -5.9     14.340     16.417
REMARK  32 active torsions:
REMARK  status: ('A' for Active; 'I' for Inactive)
REMARK    1  A    between atoms: C_2  and  C_3 
REMARK    2  A    between atoms: C_3  and  C_4 
REMARK    3  A    between atoms: C_4  and  C_5 
REMARK    4  A    between atoms: C_5  and  C_6 
REMARK    5  A    between atoms: C_6  and  C_7 
REMARK    6  A    between atoms: C_7  and  C_8 
REMARK    7  A    between atoms: C_8  and  C_9 
REMARK    8  A    between atoms: C_9  and  C_10 
REMARK    9  A    between atoms: C_10  and  C_11 
REMARK   10  A    between atoms: C_11  and  C_12 
REMARK   11  A    between atoms: C_12  and  C_13 
REMARK   12  A    between atoms: C_13  and  C_14 
REMARK   13  A    between atoms: C_14  and  C_15 
REMARK   14  A    between atoms: C_15  and  C_16 
REMARK   15  A    between atoms: C_16  and  C_17 
REMARK   16  A    between atoms: C_17  and  C_18 
REMARK   17  A    between atoms: C_18  and  O_19 
REMARK   18  A    between atoms: C_22  and  C_23 
REMARK   19  A    between atoms: C_23  and  C_24 
REMARK   20  A    between atoms: C_24  and  C_25 
REMARK   21  A    between atoms: C_25  and  C_26 
REMARK   22  A    between atoms: C_26  and  C_27 
REMARK   23  A    between atoms: C_27  and  C_28 
REMARK   24  A    between atoms: C_28  and  C_29 
REMARK   25  A    between atoms: C_29  and  C_30 
REMARK   26  A    between atoms: C_30  and  C_31 
REMARK   27  A    between atoms: C_31  and  C_32 
REMARK   28  A    between atoms: C_32  and  C_33 
REMARK   29  A    between atoms: C_33  and  C_34 
REMARK   30  A    between atoms: C_34  and  C_35 
REMARK   31  A    between atoms: C_35  and  C_36 
REMARK   32  A    between atoms: C_36  and  O_37 
ROOT
HETATM    1  C   UNL     2     -20.671  -6.397  -5.658  1.00  0.00     0.000 C 
ENDROOT
BRANCH   1   2
HETATM    2  C   UNL     2     -21.847  -6.717  -4.728  1.00  0.00     0.000 C 
BRANCH   2   3
HETATM    3  C   UNL     2     -21.546  -7.811  -3.693  1.00  0.00     0.000 C 
BRANCH   3   4
HETATM    4  C   UNL     2     -21.024  -7.270  -2.359  1.00  0.00     0.000 C 
BRANCH   4   5
HETATM    5  C   UNL     2     -22.127  -6.551  -1.571  1.00  0.00     0.000 C 
BRANCH   5   6
HETATM    6  C   UNL     2     -22.593  -7.333  -0.341  1.00  0.00     0.000 C 
BRANCH   6   7
HETATM    7  C   UNL     2     -22.529  -8.855  -0.479  1.00  0.00    -0.000 C 
BRANCH   7   8
HETATM    8  C   UNL     2     -21.596  -9.565   0.503  1.00  0.00    -0.005 C 
HETATM    9  C   UNL     2     -21.025  -8.645   1.567  1.00  0.00     0.005 C 
ENDBRANCH   7   8
ENDBRANCH   6   7
ENDBRANCH   5   6
ENDBRANCH   4   5
ENDBRANCH   3   4
ENDBRANCH   2   3
ENDBRANCH   1   2
BRANCH   1  10
HETATM   10  C   UNL     2     -20.267  -4.915  -5.590  1.00  0.00     0.000 C 
BRANCH  10  11
HETATM   11  C   UNL     2     -20.451  -4.218  -6.946  1.00  0.00     0.000 C 
BRANCH  11  12
HETATM   12  C   UNL     2     -21.104  -5.125  -7.997  1.00  0.00     0.000 C 
BRANCH  12  13
HETATM   13  C   UNL     2     -21.500  -4.336  -9.249  1.00  0.00     0.000 C 
BRANCH  13  14
HETATM   14  C   UNL     2     -20.405  -4.338 -10.323  1.00  0.00     0.002 C 
BRANCH  14  15
HETATM   15  C   UNL     2     -20.684  -3.299 -11.415  1.00  0.00     0.026 C 
BRANCH  15  16
HETATM   16  C   UNL     2     -22.108  -3.391 -11.950  1.00  0.00     0.164 C 
BRANCH  16  17
HETATM   17  O   UNL     2     -22.089  -3.401 -13.372  1.00  0.00    -0.401 OA
HETATM   18  H   UNL     2     -21.161  -3.347 -13.655  1.00  0.00     0.209 HD
ENDBRANCH  16  17
ENDBRANCH  15  16
ENDBRANCH  14  15
ENDBRANCH  13  14
ENDBRANCH  12  13
ENDBRANCH  11  12
ENDBRANCH  10  11
ENDBRANCH   1  10
TORSDOF 32
ENDMDL
MODEL 7
REMARK VINA RESULT:      -5.6     13.467     16.099
REMARK  32 active torsions:
REMARK  status: ('A' for Active; 'I' for Inactive)
REMARK    1  A    between atoms: C_2  and  C_3 
REMARK    2  A    between atoms: C_3  and  C_4 
REMARK    3  A    between atoms: C_4  and  C_5 
REMARK    4  A    between atoms: C_5  and  C_6 
REMARK    5  A    between atoms: C_6  and  C_7 
REMARK    6  A    between atoms: C_7  and  C_8 
REMARK    7  A    between atoms: C_8  and  C_9 
REMARK    8  A    between atoms: C_9  and  C_10 
REMARK    9  A    between atoms: C_10  and  C_11 
REMARK   10  A    between atoms: C_11  and  C_12 
REMARK   11  A    between atoms: C_12  and  C_13 
REMARK   12  A    between atoms: C_13  and  C_14 
REMARK   13  A    between atoms: C_14  and  C_15 
REMARK   14  A    between atoms: C_15  and  C_16 
REMARK   15  A    between atoms: C_16  and  C_17 
REMARK   16  A    between atoms: C_17  and  C_18 
REMARK   17  A    between atoms: C_18  and  O_19 
REMARK   18  A    between atoms: C_22  and  C_23 
REMARK   19  A    between atoms: C_23  and  C_24 
REMARK   20  A    between atoms: C_24  and  C_25 
REMARK   21  A    between atoms: C_25  and  C_26 
REMARK   22  A    between atoms: C_26  and  C_27 
REMARK   23  A    between atoms: C_27  and  C_28 
REMARK   24  A    between atoms: C_28  and  C_29 
REMARK   25  A    between atoms: C_29  and  C_30 
REMARK   26  A    between atoms: C_30  and  C_31 
REMARK   27  A    between atoms: C_31  and  C_32 
REMARK   28  A    between atoms: C_32  and  C_33 
REMARK   29  A    between atoms: C_33  and  C_34 
REMARK   30  A    between atoms: C_34  and  C_35 
REMARK   31  A    between atoms: C_35  and  C_36 
REMARK   32  A    between atoms: C_36  and  O_37 
ROOT
HETATM    1  C   UNL     2     -21.195  -5.937  -3.601  1.00  0.00     0.000 C 
ENDROOT
BRANCH   1   2
HETATM    2  C   UNL     2     -21.884  -6.361  -2.299  1.00  0.00     0.000 C 
BRANCH   2   3
HETATM    3  C   UNL     2     -21.694  -7.843  -1.943  1.00  0.00     0.000 C 
BRANCH   3   4
HETATM    4  C   UNL     2     -21.314  -8.081  -0.479  1.00  0.00     0.000 C 
BRANCH   4   5
HETATM    5  C   UNL     2     -22.510  -7.867   0.456  1.00  0.00     0.000 C 
BRANCH   5   6
HETATM    6  C   UNL     2     -23.556  -8.980   0.358  1.00  0.00     0.000 C 
BRANCH   6   7
HETATM    7  C   UNL     2     -23.004 -10.355  -0.018  1.00  0.00    -0.000 C 
BRANCH   7   8
HETATM    8  C   UNL     2     -23.810 -11.123  -1.066  1.00  0.00    -0.005 C 
HETATM    9  C   UNL     2     -23.070 -11.314  -2.378  1.00  0.00     0.005 C 
ENDBRANCH   7   8
ENDBRANCH   6   7
ENDBRANCH   5   6
ENDBRANCH   4   5
ENDBRANCH   3   4
ENDBRANCH   2   3
ENDBRANCH   1   2
BRANCH   1  10
HETATM   10  C   UNL     2     -21.742  -6.699  -4.819  1.00  0.00     0.000 C 
BRANCH  10  11
HETATM   11  C   UNL     2     -21.031  -6.277  -6.114  1.00  0.00     0.000 C 
BRANCH  11  12
HETATM   12  C   UNL     2     -21.242  -4.796  -6.451  1.00  0.00     0.000 C 
BRANCH  12  13
HETATM   13  C   UNL     2     -22.539  -4.581  -7.238  1.00  0.00     0.000 C 
BRANCH  13  14
HETATM   14  C   UNL     2     -22.335  -3.728  -8.497  1.00  0.00     0.002 C 
BRANCH  14  15
HETATM   15  C   UNL     2     -22.968  -4.382  -9.730  1.00  0.00     0.026 C 
BRANCH  15  16
HETATM   16  C   UNL     2     -24.478  -4.183  -9.779  1.00  0.00     0.164 C 
BRANCH  16  17
HETATM   17  O   UNL     2     -24.817  -2.928  -9.202  1.00  0.00    -0.401 OA
HETATM   18  H   UNL     2     -25.627  -3.054  -8.677  1.00  0.00     0.209 HD
ENDBRANCH  16  17
ENDBRANCH  15  16
ENDBRANCH  14  15
ENDBRANCH  13  14
ENDBRANCH  12  13
ENDBRANCH  11  12
ENDBRANCH  10  11
ENDBRANCH   1  10
TORSDOF 32
ENDMDL
MODEL 8
REMARK VINA RESULT:      -5.6     14.186     16.776
REMARK  32 active torsions:
REMARK  status: ('A' for Active; 'I' for Inactive)
REMARK    1  A    between atoms: C_2  and  C_3 
REMARK    2  A    between atoms: C_3  and  C_4 
REMARK    3  A    between atoms: C_4  and  C_5 
REMARK    4  A    between atoms: C_5  and  C_6 
REMARK    5  A    between atoms: C_6  and  C_7 
REMARK    6  A    between atoms: C_7  and  C_8 
REMARK    7  A    between atoms: C_8  and  C_9 
REMARK    8  A    between atoms: C_9  and  C_10 
REMARK    9  A    between atoms: C_10  and  C_11 
REMARK   10  A    between atoms: C_11  and  C_12 
REMARK   11  A    between atoms: C_12  and  C_13 
REMARK   12  A    between atoms: C_13  and  C_14 
REMARK   13  A    between atoms: C_14  and  C_15 
REMARK   14  A    between atoms: C_15  and  C_16 
REMARK   15  A    between atoms: C_16  and  C_17 
REMARK   16  A    between atoms: C_17  and  C_18 
REMARK   17  A    between atoms: C_18  and  O_19 
REMARK   18  A    between atoms: C_22  and  C_23 
REMARK   19  A    between atoms: C_23  and  C_24 
REMARK   20  A    between atoms: C_24  and  C_25 
REMARK   21  A    between atoms: C_25  and  C_26 
REMARK   22  A    between atoms: C_26  and  C_27 
REMARK   23  A    between atoms: C_27  and  C_28 
REMARK   24  A    between atoms: C_28  and  C_29 
REMARK   25  A    between atoms: C_29  and  C_30 
REMARK   26  A    between atoms: C_30  and  C_31 
REMARK   27  A    between atoms: C_31  and  C_32 
REMARK   28  A    between atoms: C_32  and  C_33 
REMARK   29  A    between atoms: C_33  and  C_34 
REMARK   30  A    between atoms: C_34  and  C_35 
REMARK   31  A    between atoms: C_35  and  C_36 
REMARK   32  A    between atoms: C_36  and  O_37 
ROOT
HETATM    1  C   UNL     2     -21.305  -5.961  -3.255  1.00  0.00     0.000 C 
ENDROOT
BRANCH   1   2
HETATM    2  C   UNL     2     -22.109  -6.159  -1.964  1.00  0.00     0.000 C 
BRANCH   2   3
HETATM    3  C   UNL     2     -21.986  -7.565  -1.359  1.00  0.00     0.000 C 
BRANCH   3   4
HETATM    4  C   UNL     2     -22.334  -7.628   0.131  1.00  0.00     0.000 C 
BRANCH   4   5
HETATM    5  C   UNL     2     -23.363  -8.727   0.424  1.00  0.00     0.000 C 
BRANCH   5   6
HETATM    6  C   UNL     2     -23.032 -10.057  -0.257  1.00  0.00     0.000 C 
BRANCH   6   7
HETATM    7  C   UNL     2     -23.955 -11.219   0.110  1.00  0.00    -0.000 C 
BRANCH   7   8
HETATM    8  C   UNL     2     -23.306 -12.604   0.096  1.00  0.00    -0.005 C 
HETATM    9  C   UNL     2     -23.394 -13.326   1.429  1.00  0.00     0.005 C 
ENDBRANCH   7   8
ENDBRANCH   6   7
ENDBRANCH   5   6
ENDBRANCH   4   5
ENDBRANCH   3   4
ENDBRANCH   2   3
ENDBRANCH   1   2
BRANCH   1  10
HETATM   10  C   UNL     2     -21.681  -6.991  -4.333  1.00  0.00     0.000 C 
BRANCH  10  11
HETATM   11  C   UNL     2     -20.434  -7.576  -5.012  1.00  0.00     0.000 C 
BRANCH  11  12
HETATM   12  C   UNL     2     -19.847  -6.645  -6.081  1.00  0.00     0.000 C 
BRANCH  12  13
HETATM   13  C   UNL     2     -20.950  -6.000  -6.926  1.00  0.00     0.000 C 
BRANCH  13  14
HETATM   14  C   UNL     2     -20.569  -4.603  -7.433  1.00  0.00     0.002 C 
BRANCH  14  15
HETATM   15  C   UNL     2     -21.708  -3.963  -8.235  1.00  0.00     0.026 C 
BRANCH  15  16
HETATM   16  C   UNL     2     -23.078  -4.277  -7.644  1.00  0.00     0.164 C 
BRANCH  16  17
HETATM   17  O   UNL     2     -24.094  -3.677  -8.438  1.00  0.00    -0.401 OA
HETATM   18  H   UNL     2     -24.931  -3.747  -7.948  1.00  0.00     0.209 HD
ENDBRANCH  16  17
ENDBRANCH  15  16
ENDBRANCH  14  15
ENDBRANCH  13  14
ENDBRANCH  12  13
ENDBRANCH  11  12
ENDBRANCH  10  11
ENDBRANCH   1  10
TORSDOF 32
ENDMDL
MODEL 9
REMARK VINA RESULT:      -5.6      4.395      6.692
REMARK  32 active torsions:
REMARK  status: ('A' for Active; 'I' for Inactive)
REMARK    1  A    between atoms: C_2  and  C_3 
REMARK    2  A    between atoms: C_3  and  C_4 
REMARK    3  A    between atoms: C_4  and  C_5 
REMARK    4  A    between atoms: C_5  and  C_6 
REMARK    5  A    between atoms: C_6  and  C_7 
REMARK    6  A    between atoms: C_7  and  C_8 
REMARK    7  A    between atoms: C_8  and  C_9 
REMARK    8  A    between atoms: C_9  and  C_10 
REMARK    9  A    between atoms: C_10  and  C_11 
REMARK   10  A    between atoms: C_11  and  C_12 
REMARK   11  A    between atoms: C_12  and  C_13 
REMARK   12  A    between atoms: C_13  and  C_14 
REMARK   13  A    between atoms: C_14  and  C_15 
REMARK   14  A    between atoms: C_15  and  C_16 
REMARK   15  A    between atoms: C_16  and  C_17 
REMARK   16  A    between atoms: C_17  and  C_18 
REMARK   17  A    between atoms: C_18  and  O_19 
REMARK   18  A    between atoms: C_22  and  C_23 
REMARK   19  A    between atoms: C_23  and  C_24 
REMARK   20  A    between atoms: C_24  and  C_25 
REMARK   21  A    between atoms: C_25  and  C_26 
REMARK   22  A    between atoms: C_26  and  C_27 
REMARK   23  A    between atoms: C_27  and  C_28 
REMARK   24  A    between atoms: C_28  and  C_29 
REMARK   25  A    between atoms: C_29  and  C_30 
REMARK   26  A    between atoms: C_30  and  C_31 
REMARK   27  A    between atoms: C_31  and  C_32 
REMARK   28  A    between atoms: C_32  and  C_33 
REMARK   29  A    between atoms: C_33  and  C_34 
REMARK   30  A    between atoms: C_34  and  C_35 
REMARK   31  A    between atoms: C_35  and  C_36 
REMARK   32  A    between atoms: C_36  and  O_37 
ROOT
HETATM    1  C   UNL     2     -34.844   0.545 -13.445  1.00  0.00     0.000 C 
ENDROOT
BRANCH   1   2
HETATM    2  C   UNL     2     -36.142  -0.028 -12.863  1.00  0.00     0.000 C 
BRANCH   2   3
HETATM    3  C   UNL     2     -35.932  -1.222 -11.920  1.00  0.00     0.000 C 
BRANCH   3   4
HETATM    4  C   UNL     2     -34.795  -2.153 -12.350  1.00  0.00     0.000 C 
BRANCH   4   5
HETATM    5  C   UNL     2     -33.718  -2.268 -11.264  1.00  0.00     0.000 C 
BRANCH   5   6
HETATM    6  C   UNL     2     -33.778  -3.591 -10.498  1.00  0.00     0.000 C 
BRANCH   6   7
HETATM    7  C   UNL     2     -33.401  -4.829 -11.312  1.00  0.00    -0.000 C 
BRANCH   7   8
HETATM    8  C   UNL     2     -34.481  -5.908 -11.407  1.00  0.00    -0.005 C 
HETATM    9  C   UNL     2     -34.592  -6.762 -10.156  1.00  0.00     0.005 C 
ENDBRANCH   7   8
ENDBRANCH   6   7
ENDBRANCH   5   6
ENDBRANCH   4   5
ENDBRANCH   3   4
ENDBRANCH   2   3
ENDBRANCH   1   2
BRANCH   1  10
HETATM   10  C   UNL     2     -34.944   0.775 -14.962  1.00  0.00     0.000 C 
BRANCH  10  11
HETATM   11  C   UNL     2     -36.169   0.067 -15.560  1.00  0.00     0.000 C 
BRANCH  11  12
HETATM   12  C   UNL     2     -35.796  -0.952 -16.644  1.00  0.00     0.000 C 
BRANCH  12  13
HETATM   13  C   UNL     2     -35.099  -2.177 -16.044  1.00  0.00     0.000 C 
BRANCH  13  14
HETATM   14  C   UNL     2     -34.110  -2.833 -17.016  1.00  0.00     0.002 C 
BRANCH  14  15
HETATM   15  C   UNL     2     -33.372  -4.007 -16.363  1.00  0.00     0.026 C 
BRANCH  15  16
HETATM   16  C   UNL     2     -32.016  -4.268 -17.009  1.00  0.00     0.164 C 
BRANCH  16  17
HETATM   17  O   UNL     2     -31.441  -3.040 -17.435  1.00  0.00    -0.401 OA
HETATM   18  H   UNL     2     -30.969  -3.208 -18.269  1.00  0.00     0.209 HD
ENDBRANCH  16  17
ENDBRANCH  15  16
ENDBRANCH  14  15
ENDBRANCH  13  14
ENDBRANCH  12  13
ENDBRANCH  11  12
ENDBRANCH  10  11
ENDBRANCH   1  10
TORSDOF 32
ENDMDL
