MODEL 1
REMARK VINA RESULT:      -7.0      0.000      0.000
REMARK  27 active torsions:
REMARK  status: ('A' for Active; 'I' for Inactive)
REMARK    1  A    between atoms: C_2  and  C_3 
REMARK    2  A    between atoms: C_3  and  C_4 
REMARK    3  A    between atoms: C_4  and  C_5 
REMARK    4  A    between atoms: C_5  and  C_6 
REMARK    5  A    between atoms: C_6  and  C_7 
REMARK    6  A    between atoms: C_7  and  C_8 
REMARK    7  A    between atoms: C_8  and  C_9 
REMARK    8  A    between atoms: C_9  and  C_10 
REMARK    9  A    between atoms: C_10  and  C_11 
REMARK   10  A    between atoms: C_11  and  C_12 
REMARK   11  A    between atoms: C_12  and  C_13 
REMARK   12  A    between atoms: C_13  and  C_14 
REMARK   13  A    between atoms: C_14  and  C_15 
REMARK   14  A    between atoms: C_15  and  C_16 
REMARK   15  A    between atoms: C_16  and  O_17 
REMARK   16  A    between atoms: O_17  and  C_18 
REMARK   17  A    between atoms: C_18  and  C_20 
REMARK   18  A    between atoms: C_20  and  C_21 
REMARK   19  A    between atoms: C_20  and  N_29 
REMARK   20  A    between atoms: C_21  and  C_22 
REMARK   21  A    between atoms: C_22  and  C_23 
REMARK   22  A    between atoms: C_23  and  N_24 
REMARK       I    between atoms: N_24  and  C_26 
REMARK       I    between atoms: C_26  and  N_27 
REMARK       I    between atoms: N_29  and  C_30 
REMARK   23  A    between atoms: C_30  and  C_32 
REMARK   24  A    between atoms: C_32  and  C_33 
REMARK   25  A    between atoms: C_32  and  N_41 
REMARK   26  A    between atoms: C_33  and  C_34 
REMARK   27  A    between atoms: C_37  and  O_40 
REMARK       I    between atoms: N_41  and  C_42 
ROOT
HETATM    1  C   UNL     1     -17.449 -11.946  -3.582  1.00  0.00     0.184 C 
ENDROOT
BRANCH   1   2
HETATM    2  C   UNL     1     -17.180 -10.609  -4.322  1.00  0.00     0.281 C 
HETATM    3  O   UNL     1     -16.659 -10.519  -5.411  1.00  0.00    -0.263 OA
BRANCH   2   4
HETATM    4  O   UNL     1     -17.586  -9.542  -3.561  1.00  0.00    -0.320 OA
BRANCH   4   5
HETATM    5  C   UNL     1     -18.923  -9.079  -3.812  1.00  0.00     0.178 C 
BRANCH   5   6
HETATM    6  C   UNL     1     -19.687  -8.860  -2.509  1.00  0.00     0.027 C 
BRANCH   6   7
HETATM    7  C   UNL     1     -20.804  -7.835  -2.689  1.00  0.00     0.002 C 
BRANCH   7   8
HETATM    8  C   UNL     1     -21.456  -7.973  -4.057  1.00  0.00     0.000 C 
BRANCH   8   9
HETATM    9  C   UNL     1     -22.315  -6.754  -4.360  1.00  0.00     0.000 C 
BRANCH   9  10
HETATM   10  C   UNL     1     -21.627  -5.867  -5.384  1.00  0.00     0.000 C 
BRANCH  10  11
HETATM   11  C   UNL     1     -20.841  -6.716  -6.367  1.00  0.00     0.000 C 
BRANCH  11  12
HETATM   12  C   UNL     1     -19.639  -5.942  -6.875  1.00  0.00     0.000 C 
BRANCH  12  13
HETATM   13  C   UNL     1     -20.020  -4.493  -7.117  1.00  0.00     0.000 C 
BRANCH  13  14
HETATM   14  C   UNL     1     -19.726  -4.115  -8.557  1.00  0.00     0.000 C 
BRANCH  14  15
HETATM   15  C   UNL     1     -21.010  -4.130  -9.367  1.00  0.00     0.000 C 
BRANCH  15  16
HETATM   16  C   UNL     1     -22.197  -3.855  -8.463  1.00  0.00     0.000 C 
BRANCH  16  17
HETATM   17  C   UNL     1     -23.484  -3.884  -9.271  1.00  0.00     0.000 C 
BRANCH  17  18
HETATM   18  C   UNL     1     -23.181  -4.192 -10.727  1.00  0.00    -0.000 C 
BRANCH  18  19
HETATM   19  C   UNL     1     -23.322  -2.937 -11.577  1.00  0.00    -0.005 C 
HETATM   20  C   UNL     1     -24.498  -3.071 -12.523  1.00  0.00     0.005 C 
ENDBRANCH  18  19
ENDBRANCH  17  18
ENDBRANCH  16  17
ENDBRANCH  15  16
ENDBRANCH  14  15
ENDBRANCH  13  14
ENDBRANCH  12  13
ENDBRANCH  11  12
ENDBRANCH  10  11
ENDBRANCH   9  10
ENDBRANCH   8   9
ENDBRANCH   7   8
ENDBRANCH   6   7
ENDBRANCH   5   6
ENDBRANCH   4   5
ENDBRANCH   2   4
ENDBRANCH   1   2
BRANCH   1  21
HETATM   21  C   UNL     1     -16.230 -12.890  -3.753  1.00  0.00     0.037 C 
BRANCH  21  22
HETATM   22  C   UNL     1     -14.999 -12.427  -2.971  1.00  0.00     0.023 C 
BRANCH  22  23
HETATM   23  C   UNL     1     -13.713 -12.672  -3.748  1.00  0.00     0.138 C 
BRANCH  23  24
HETATM   24  N   UNL     1     -13.870 -12.077  -5.086  1.00  0.00    -0.227 N 
HETATM   25  C   UNL     1     -13.588 -12.832  -6.084  1.00  0.00     0.665 C 
HETATM   26  N   UNL     1     -13.197 -14.124  -6.063  1.00  0.00    -0.235 N 
HETATM   27  N   UNL     1     -13.655 -12.378  -7.347  1.00  0.00    -0.235 N 
HETATM   28  H   UNL     1     -13.022 -14.588  -5.181  1.00  0.00     0.174 HD
HETATM   29  H   UNL     1     -12.970 -14.660  -6.876  1.00  0.00     0.174 HD
HETATM   30  H   UNL     1     -13.962 -11.424  -7.487  1.00  0.00     0.174 HD
HETATM   31  H   UNL     1     -13.462 -12.949  -8.151  1.00  0.00     0.174 HD
ATOM     32  HN  UNL     1     -14.186 -11.116  -5.211  1.00  0.00     0.177 HD
ENDBRANCH  23  24
ENDBRANCH  22  23
ENDBRANCH  21  22
ENDBRANCH   1  21
BRANCH   1  33
HETATM   33  N   UNL     1     -17.688 -11.750  -2.140  1.00  0.00    -0.345 N 
HETATM   34  C   UNL     1     -18.790 -12.225  -1.478  1.00  0.00     0.241 C 
HETATM   35  O   UNL     1     -19.664 -12.922  -2.021  1.00  0.00    -0.271 OA
HETATM   36  H   UNL     1     -17.002 -11.186  -1.638  1.00  0.00     0.163 HD
BRANCH  34  37
HETATM   37  C   UNL     1     -18.840 -11.971   0.057  1.00  0.00     0.180 C 
BRANCH  37  38
HETATM   38  C   UNL     1     -20.297 -12.181   0.531  1.00  0.00     0.073 C 
BRANCH  38  39
HETATM   39  C   UNL     1     -21.171 -10.950   0.427  1.00  0.00    -0.056 A 
HETATM   40  C   UNL     1     -22.393 -10.978  -0.259  1.00  0.00     0.010 A 
HETATM   41  C   UNL     1     -23.189  -9.831  -0.331  1.00  0.00     0.037 A 
HETATM   42  C   UNL     1     -22.753  -8.657   0.282  1.00  0.00     0.065 A 
HETATM   43  C   UNL     1     -21.537  -8.606   0.947  1.00  0.00     0.037 A 
HETATM   44  C   UNL     1     -20.753  -9.752   1.033  1.00  0.00     0.010 A 
BRANCH  42  45
HETATM   45  O   UNL     1     -23.500  -7.517   0.276  1.00  0.00    -0.361 OA
HETATM   46  H   UNL     1     -23.633  -7.226   1.192  1.00  0.00     0.217 HD
ENDBRANCH  42  45
ENDBRANCH  38  39
ENDBRANCH  37  38
BRANCH  37  47
HETATM   47  N   UNL     1     -17.928 -12.859   0.807  1.00  0.00    -0.348 N 
HETATM   48  C   UNL     1     -16.609 -12.541   1.017  1.00  0.00     0.214 C 
HETATM   49  O   UNL     1     -16.083 -11.556   0.515  1.00  0.00    -0.274 OA
HETATM   50  C   UNL     1     -15.827 -13.514   1.874  1.00  0.00     0.117 C 
HETATM   51  H   UNL     1     -18.320 -13.686   1.244  1.00  0.00     0.163 HD
ENDBRANCH  37  47
ENDBRANCH  34  37
ENDBRANCH   1  33
TORSDOF 27
ENDMDL
MODEL 2
REMARK VINA RESULT:      -6.9      2.555      4.135
REMARK  27 active torsions:
REMARK  status: ('A' for Active; 'I' for Inactive)
REMARK    1  A    between atoms: C_2  and  C_3 
REMARK    2  A    between atoms: C_3  and  C_4 
REMARK    3  A    between atoms: C_4  and  C_5 
REMARK    4  A    between atoms: C_5  and  C_6 
REMARK    5  A    between atoms: C_6  and  C_7 
REMARK    6  A    between atoms: C_7  and  C_8 
REMARK    7  A    between atoms: C_8  and  C_9 
REMARK    8  A    between atoms: C_9  and  C_10 
REMARK    9  A    between atoms: C_10  and  C_11 
REMARK   10  A    between atoms: C_11  and  C_12 
REMARK   11  A    between atoms: C_12  and  C_13 
REMARK   12  A    between atoms: C_13  and  C_14 
REMARK   13  A    between atoms: C_14  and  C_15 
REMARK   14  A    between atoms: C_15  and  C_16 
REMARK   15  A    between atoms: C_16  and  O_17 
REMARK   16  A    between atoms: O_17  and  C_18 
REMARK   17  A    between atoms: C_18  and  C_20 
REMARK   18  A    between atoms: C_20  and  C_21 
REMARK   19  A    between atoms: C_20  and  N_29 
REMARK   20  A    between atoms: C_21  and  C_22 
REMARK   21  A    between atoms: C_22  and  C_23 
REMARK   22  A    between atoms: C_23  and  N_24 
REMARK       I    between atoms: N_24  and  C_26 
REMARK       I    between atoms: C_26  and  N_27 
REMARK       I    between atoms: N_29  and  C_30 
REMARK   23  A    between atoms: C_30  and  C_32 
REMARK   24  A    between atoms: C_32  and  C_33 
REMARK   25  A    between atoms: C_32  and  N_41 
REMARK   26  A    between atoms: C_33  and  C_34 
REMARK   27  A    between atoms: C_37  and  O_40 
REMARK       I    between atoms: N_41  and  C_42 
ROOT
HETATM    1  C   UNL     1     -17.162 -12.633  -0.865  1.00  0.00     0.184 C 
ENDROOT
BRANCH   1   2
HETATM    2  C   UNL     1     -15.984 -11.708  -0.459  1.00  0.00     0.281 C 
HETATM    3  O   UNL     1     -15.571 -11.577   0.671  1.00  0.00    -0.263 OA
BRANCH   2   4
HETATM    4  O   UNL     1     -15.495 -11.036  -1.551  1.00  0.00    -0.320 OA
BRANCH   4   5
HETATM    5  C   UNL     1     -16.263 -11.179  -2.758  1.00  0.00     0.178 C 
BRANCH   5   6
HETATM    6  C   UNL     1     -17.042  -9.906  -3.072  1.00  0.00     0.027 C 
BRANCH   6   7
HETATM    7  C   UNL     1     -17.845 -10.055  -4.362  1.00  0.00     0.002 C 
BRANCH   7   8
HETATM    8  C   UNL     1     -18.841  -8.915  -4.521  1.00  0.00     0.000 C 
BRANCH   8   9
HETATM    9  C   UNL     1     -20.243  -9.464  -4.742  1.00  0.00     0.000 C 
BRANCH   9  10
HETATM   10  C   UNL     1     -21.131  -8.402  -5.368  1.00  0.00     0.000 C 
BRANCH  10  11
HETATM   11  C   UNL     1     -20.324  -7.148  -5.655  1.00  0.00     0.000 C 
BRANCH  11  12
HETATM   12  C   UNL     1     -20.976  -5.949  -4.993  1.00  0.00     0.000 C 
BRANCH  12  13
HETATM   13  C   UNL     1     -20.382  -4.666  -5.543  1.00  0.00     0.000 C 
BRANCH  13  14
HETATM   14  C   UNL     1     -19.495  -4.977  -6.735  1.00  0.00     0.000 C 
BRANCH  14  15
HETATM   15  C   UNL     1     -20.026  -4.274  -7.971  1.00  0.00     0.000 C 
BRANCH  15  16
HETATM   16  C   UNL     1     -21.399  -3.694  -7.688  1.00  0.00     0.000 C 
BRANCH  16  17
HETATM   17  C   UNL     1     -22.262  -3.766  -8.937  1.00  0.00     0.000 C 
BRANCH  17  18
HETATM   18  C   UNL     1     -21.417  -4.170 -10.134  1.00  0.00    -0.000 C 
BRANCH  18  19
HETATM   19  C   UNL     1     -22.210  -4.009 -11.423  1.00  0.00    -0.005 C 
HETATM   20  C   UNL     1     -23.501  -4.798 -11.349  1.00  0.00     0.005 C 
ENDBRANCH  18  19
ENDBRANCH  17  18
ENDBRANCH  16  17
ENDBRANCH  15  16
ENDBRANCH  14  15
ENDBRANCH  13  14
ENDBRANCH  12  13
ENDBRANCH  11  12
ENDBRANCH  10  11
ENDBRANCH   9  10
ENDBRANCH   8   9
ENDBRANCH   7   8
ENDBRANCH   6   7
ENDBRANCH   5   6
ENDBRANCH   4   5
ENDBRANCH   2   4
ENDBRANCH   1   2
BRANCH   1  21
HETATM   21  C   UNL     1     -16.804 -14.106  -0.534  1.00  0.00     0.037 C 
BRANCH  21  22
HETATM   22  C   UNL     1     -17.090 -14.479   0.923  1.00  0.00     0.023 C 
BRANCH  22  23
HETATM   23  C   UNL     1     -15.943 -15.270   1.536  1.00  0.00     0.138 C 
BRANCH  23  24
HETATM   24  N   UNL     1     -14.771 -14.382   1.619  1.00  0.00    -0.227 N 
HETATM   25  C   UNL     1     -13.717 -14.767   0.998  1.00  0.00     0.665 C 
HETATM   26  N   UNL     1     -13.556 -15.875   0.243  1.00  0.00    -0.235 N 
HETATM   27  N   UNL     1     -12.578 -14.055   1.043  1.00  0.00    -0.235 N 
HETATM   28  H   UNL     1     -14.301 -16.557   0.176  1.00  0.00     0.174 HD
HETATM   29  H   UNL     1     -12.701 -16.137  -0.204  1.00  0.00     0.174 HD
HETATM   30  H   UNL     1     -12.588 -13.187   1.562  1.00  0.00     0.174 HD
HETATM   31  H   UNL     1     -11.742 -14.318   0.550  1.00  0.00     0.174 HD
ATOM     32  HN  UNL     1     -14.797 -13.508   2.142  1.00  0.00     0.177 HD
ENDBRANCH  23  24
ENDBRANCH  22  23
ENDBRANCH  21  22
ENDBRANCH   1  21
BRANCH   1  33
HETATM   33  N   UNL     1     -18.412 -12.288  -0.164  1.00  0.00    -0.345 N 
HETATM   34  C   UNL     1     -19.592 -12.004  -0.803  1.00  0.00     0.241 C 
HETATM   35  O   UNL     1     -19.732 -12.071  -2.037  1.00  0.00    -0.271 OA
HETATM   36  H   UNL     1     -18.361 -12.219   0.852  1.00  0.00     0.163 HD
BRANCH  34  37
HETATM   37  C   UNL     1     -20.823 -11.720   0.106  1.00  0.00     0.180 C 
BRANCH  37  38
HETATM   38  C   UNL     1     -20.585 -10.373   0.828  1.00  0.00     0.073 C 
BRANCH  38  39
HETATM   39  C   UNL     1     -21.108  -9.164   0.084  1.00  0.00    -0.056 A 
HETATM   40  C   UNL     1     -20.470  -8.683  -1.067  1.00  0.00     0.010 A 
HETATM   41  C   UNL     1     -20.979  -7.571  -1.744  1.00  0.00     0.037 A 
HETATM   42  C   UNL     1     -22.125  -6.942  -1.261  1.00  0.00     0.065 A 
HETATM   43  C   UNL     1     -22.758  -7.392  -0.112  1.00  0.00     0.037 A 
HETATM   44  C   UNL     1     -22.260  -8.509   0.553  1.00  0.00     0.010 A 
BRANCH  42  45
HETATM   45  O   UNL     1     -22.689  -5.876  -1.897  1.00  0.00    -0.361 OA
HETATM   46  H   UNL     1     -21.985  -5.268  -2.171  1.00  0.00     0.217 HD
ENDBRANCH  42  45
ENDBRANCH  38  39
ENDBRANCH  37  38
BRANCH  37  47
HETATM   47  N   UNL     1     -22.089 -11.675  -0.653  1.00  0.00    -0.348 N 
HETATM   48  C   UNL     1     -23.280 -12.087  -0.111  1.00  0.00     0.214 C 
HETATM   49  O   UNL     1     -23.353 -12.608   0.996  1.00  0.00    -0.274 OA
HETATM   50  C   UNL     1     -24.501 -11.901  -0.987  1.00  0.00     0.117 C 
HETATM   51  H   UNL     1     -22.077 -11.250  -1.574  1.00  0.00     0.163 HD
ENDBRANCH  37  47
ENDBRANCH  34  37
ENDBRANCH   1  33
TORSDOF 27
ENDMDL
MODEL 3
REMARK VINA RESULT:      -6.9      2.183      5.427
REMARK  27 active torsions:
REMARK  status: ('A' for Active; 'I' for Inactive)
REMARK    1  A    between atoms: C_2  and  C_3 
REMARK    2  A    between atoms: C_3  and  C_4 
REMARK    3  A    between atoms: C_4  and  C_5 
REMARK    4  A    between atoms: C_5  and  C_6 
REMARK    5  A    between atoms: C_6  and  C_7 
REMARK    6  A    between atoms: C_7  and  C_8 
REMARK    7  A    between atoms: C_8  and  C_9 
REMARK    8  A    between atoms: C_9  and  C_10 
REMARK    9  A    between atoms: C_10  and  C_11 
REMARK   10  A    between atoms: C_11  and  C_12 
REMARK   11  A    between atoms: C_12  and  C_13 
REMARK   12  A    between atoms: C_13  and  C_14 
REMARK   13  A    between atoms: C_14  and  C_15 
REMARK   14  A    between atoms: C_15  and  C_16 
REMARK   15  A    between atoms: C_16  and  O_17 
REMARK   16  A    between atoms: O_17  and  C_18 
REMARK   17  A    between atoms: C_18  and  C_20 
REMARK   18  A    between atoms: C_20  and  C_21 
REMARK   19  A    between atoms: C_20  and  N_29 
REMARK   20  A    between atoms: C_21  and  C_22 
REMARK   21  A    between atoms: C_22  and  C_23 
REMARK   22  A    between atoms: C_23  and  N_24 
REMARK       I    between atoms: N_24  and  C_26 
REMARK       I    between atoms: C_26  and  N_27 
REMARK       I    between atoms: N_29  and  C_30 
REMARK   23  A    between atoms: C_30  and  C_32 
REMARK   24  A    between atoms: C_32  and  C_33 
REMARK   25  A    between atoms: C_32  and  N_41 
REMARK   26  A    between atoms: C_33  and  C_34 
REMARK   27  A    between atoms: C_37  and  O_40 
REMARK       I    between atoms: N_41  and  C_42 
ROOT
HETATM    1  C   UNL     1     -20.881 -11.541  -0.736  1.00  0.00     0.184 C 
ENDROOT
BRANCH   1   2
HETATM    2  C   UNL     1     -21.103 -10.313   0.187  1.00  0.00     0.281 C 
HETATM    3  O   UNL     1     -20.651 -10.203   1.304  1.00  0.00    -0.263 OA
BRANCH   2   4
HETATM    4  O   UNL     1     -21.904  -9.383  -0.426  1.00  0.00    -0.320 OA
BRANCH   4   5
HETATM    5  C   UNL     1     -21.390  -8.041  -0.444  1.00  0.00     0.178 C 
BRANCH   5   6
HETATM    6  C   UNL     1     -22.461  -7.044  -0.879  1.00  0.00     0.027 C 
BRANCH   6   7
HETATM    7  C   UNL     1     -22.001  -6.233  -2.088  1.00  0.00     0.002 C 
BRANCH   7   8
HETATM    8  C   UNL     1     -20.998  -7.017  -2.922  1.00  0.00     0.000 C 
BRANCH   8   9
HETATM    9  C   UNL     1     -21.692  -7.675  -4.105  1.00  0.00     0.000 C 
BRANCH   9  10
HETATM   10  C   UNL     1     -21.748  -6.715  -5.282  1.00  0.00     0.000 C 
BRANCH  10  11
HETATM   11  C   UNL     1     -20.343  -6.393  -5.760  1.00  0.00     0.000 C 
BRANCH  11  12
HETATM   12  C   UNL     1     -20.225  -4.909  -6.058  1.00  0.00     0.000 C 
BRANCH  12  13
HETATM   13  C   UNL     1     -19.220  -4.683  -7.172  1.00  0.00     0.000 C 
BRANCH  13  14
HETATM   14  C   UNL     1     -19.883  -3.953  -8.326  1.00  0.00     0.000 C 
BRANCH  14  15
HETATM   15  C   UNL     1     -21.385  -3.912  -8.116  1.00  0.00     0.000 C 
BRANCH  15  16
HETATM   16  C   UNL     1     -22.098  -4.372  -9.374  1.00  0.00     0.000 C 
BRANCH  16  17
HETATM   17  C   UNL     1     -21.175  -4.240 -10.573  1.00  0.00     0.000 C 
BRANCH  17  18
HETATM   18  C   UNL     1     -21.961  -3.786 -11.791  1.00  0.00    -0.000 C 
BRANCH  18  19
HETATM   19  C   UNL     1     -23.414  -4.226 -11.682  1.00  0.00    -0.005 C 
HETATM   20  C   UNL     1     -24.335  -3.129 -12.173  1.00  0.00     0.005 C 
ENDBRANCH  18  19
ENDBRANCH  17  18
ENDBRANCH  16  17
ENDBRANCH  15  16
ENDBRANCH  14  15
ENDBRANCH  13  14
ENDBRANCH  12  13
ENDBRANCH  11  12
ENDBRANCH  10  11
ENDBRANCH   9  10
ENDBRANCH   8   9
ENDBRANCH   7   8
ENDBRANCH   6   7
ENDBRANCH   5   6
ENDBRANCH   4   5
ENDBRANCH   2   4
ENDBRANCH   1   2
BRANCH   1  21
HETATM   21  C   UNL     1     -21.428 -11.232  -2.154  1.00  0.00     0.037 C 
BRANCH  21  22
HETATM   22  C   UNL     1     -21.750 -12.492  -2.960  1.00  0.00     0.023 C 
BRANCH  22  23
HETATM   23  C   UNL     1     -21.208 -12.405  -4.380  1.00  0.00     0.138 C 
BRANCH  23  24
HETATM   24  N   UNL     1     -20.659 -11.053  -4.575  1.00  0.00    -0.227 N 
HETATM   25  C   UNL     1     -19.634 -10.957  -5.339  1.00  0.00     0.665 C 
HETATM   26  N   UNL     1     -19.011 -11.943  -6.021  1.00  0.00    -0.235 N 
HETATM   27  N   UNL     1     -19.026  -9.778  -5.552  1.00  0.00    -0.235 N 
HETATM   28  H   UNL     1     -19.301 -12.905  -5.901  1.00  0.00     0.174 HD
HETATM   29  H   UNL     1     -18.198 -11.813  -6.588  1.00  0.00     0.174 HD
HETATM   30  H   UNL     1     -19.423  -8.959  -5.110  1.00  0.00     0.174 HD
HETATM   31  H   UNL     1     -18.235  -9.665  -6.162  1.00  0.00     0.174 HD
ATOM     32  HN  UNL     1     -21.073 -10.236  -4.126  1.00  0.00     0.177 HD
ENDBRANCH  23  24
ENDBRANCH  22  23
ENDBRANCH  21  22
ENDBRANCH   1  21
BRANCH   1  33
HETATM   33  N   UNL     1     -19.456 -11.902  -0.854  1.00  0.00    -0.345 N 
HETATM   34  C   UNL     1     -18.550 -11.196  -1.603  1.00  0.00     0.241 C 
HETATM   35  O   UNL     1     -18.833 -10.145  -2.204  1.00  0.00    -0.271 OA
HETATM   36  H   UNL     1     -19.162 -12.757  -0.380  1.00  0.00     0.163 HD
BRANCH  34  37
HETATM   37  C   UNL     1     -17.076 -11.695  -1.559  1.00  0.00     0.180 C 
BRANCH  37  38
HETATM   38  C   UNL     1     -16.199 -10.665  -2.309  1.00  0.00     0.073 C 
BRANCH  38  39
HETATM   39  C   UNL     1     -15.390 -11.245  -3.448  1.00  0.00    -0.056 A 
HETATM   40  C   UNL     1     -14.372 -12.180  -3.219  1.00  0.00     0.010 A 
HETATM   41  C   UNL     1     -13.646 -12.711  -4.290  1.00  0.00     0.037 A 
HETATM   42  C   UNL     1     -13.942 -12.296  -5.587  1.00  0.00     0.065 A 
HETATM   43  C   UNL     1     -14.932 -11.357  -5.831  1.00  0.00     0.037 A 
HETATM   44  C   UNL     1     -15.665 -10.841  -4.766  1.00  0.00     0.010 A 
BRANCH  42  45
HETATM   45  O   UNL     1     -13.293 -12.803  -6.674  1.00  0.00    -0.361 OA
HETATM   46  H   UNL     1     -12.621 -12.166  -6.963  1.00  0.00     0.217 HD
ENDBRANCH  42  45
ENDBRANCH  38  39
ENDBRANCH  37  38
BRANCH  37  47
HETATM   47  N   UNL     1     -16.581 -11.877  -0.179  1.00  0.00    -0.348 N 
HETATM   48  C   UNL     1     -15.895 -13.000   0.208  1.00  0.00     0.214 C 
HETATM   49  O   UNL     1     -15.736 -13.962  -0.535  1.00  0.00    -0.274 OA
HETATM   50  C   UNL     1     -15.383 -13.001   1.633  1.00  0.00     0.117 C 
HETATM   51  H   UNL     1     -16.688 -11.106   0.471  1.00  0.00     0.163 HD
ENDBRANCH  37  47
ENDBRANCH  34  37
ENDBRANCH   1  33
TORSDOF 27
ENDMDL
MODEL 4
REMARK VINA RESULT:      -6.8      3.250      5.813
REMARK  27 active torsions:
REMARK  status: ('A' for Active; 'I' for Inactive)
REMARK    1  A    between atoms: C_2  and  C_3 
REMARK    2  A    between atoms: C_3  and  C_4 
REMARK    3  A    between atoms: C_4  and  C_5 
REMARK    4  A    between atoms: C_5  and  C_6 
REMARK    5  A    between atoms: C_6  and  C_7 
REMARK    6  A    between atoms: C_7  and  C_8 
REMARK    7  A    between atoms: C_8  and  C_9 
REMARK    8  A    between atoms: C_9  and  C_10 
REMARK    9  A    between atoms: C_10  and  C_11 
REMARK   10  A    between atoms: C_11  and  C_12 
REMARK   11  A    between atoms: C_12  and  C_13 
REMARK   12  A    between atoms: C_13  and  C_14 
REMARK   13  A    between atoms: C_14  and  C_15 
REMARK   14  A    between atoms: C_15  and  C_16 
REMARK   15  A    between atoms: C_16  and  O_17 
REMARK   16  A    between atoms: O_17  and  C_18 
REMARK   17  A    between atoms: C_18  and  C_20 
REMARK   18  A    between atoms: C_20  and  C_21 
REMARK   19  A    between atoms: C_20  and  N_29 
REMARK   20  A    between atoms: C_21  and  C_22 
REMARK   21  A    between atoms: C_22  and  C_23 
REMARK   22  A    between atoms: C_23  and  N_24 
REMARK       I    between atoms: N_24  and  C_26 
REMARK       I    between atoms: C_26  and  N_27 
REMARK       I    between atoms: N_29  and  C_30 
REMARK   23  A    between atoms: C_30  and  C_32 
REMARK   24  A    between atoms: C_32  and  C_33 
REMARK   25  A    between atoms: C_32  and  N_41 
REMARK   26  A    between atoms: C_33  and  C_34 
REMARK   27  A    between atoms: C_37  and  O_40 
REMARK       I    between atoms: N_41  and  C_42 
ROOT
HETATM    1  C   UNL     1     -18.400 -11.526  -6.819  1.00  0.00     0.184 C 
ENDROOT
BRANCH   1   2
HETATM    2  C   UNL     1     -17.727 -10.280  -6.183  1.00  0.00     0.281 C 
HETATM    3  O   UNL     1     -18.144  -9.149  -6.282  1.00  0.00    -0.263 OA
BRANCH   2   4
HETATM    4  O   UNL     1     -16.580 -10.634  -5.519  1.00  0.00    -0.320 OA
BRANCH   4   5
HETATM    5  C   UNL     1     -16.101  -9.676  -4.561  1.00  0.00     0.178 C 
BRANCH   5   6
HETATM    6  C   UNL     1     -16.332 -10.159  -3.132  1.00  0.00     0.027 C 
BRANCH   6   7
HETATM    7  C   UNL     1     -17.771  -9.906  -2.689  1.00  0.00     0.002 C 
BRANCH   7   8
HETATM    8  C   UNL     1     -18.555 -11.208  -2.607  1.00  0.00     0.000 C 
BRANCH   8   9
HETATM    9  C   UNL     1     -19.093 -11.413  -1.199  1.00  0.00     0.000 C 
BRANCH   9  10
HETATM   10  C   UNL     1     -20.120 -10.344  -0.867  1.00  0.00     0.000 C 
BRANCH  10  11
HETATM   11  C   UNL     1     -20.542 -10.457   0.587  1.00  0.00     0.000 C 
BRANCH  11  12
HETATM   12  C   UNL     1     -21.426  -9.282   0.963  1.00  0.00     0.000 C 
BRANCH  12  13
HETATM   13  C   UNL     1     -21.154  -8.112   0.037  1.00  0.00     0.000 C 
BRANCH  13  14
HETATM   14  C   UNL     1     -22.465  -7.492  -0.410  1.00  0.00     0.000 C 
BRANCH  14  15
HETATM   15  C   UNL     1     -22.237  -6.633  -1.641  1.00  0.00     0.000 C 
BRANCH  15  16
HETATM   16  C   UNL     1     -21.036  -7.143  -2.414  1.00  0.00     0.000 C 
BRANCH  16  17
HETATM   17  C   UNL     1     -21.487  -7.775  -3.721  1.00  0.00     0.000 C 
BRANCH  17  18
HETATM   18  C   UNL     1     -21.829  -6.695  -4.733  1.00  0.00    -0.000 C 
BRANCH  18  19
HETATM   19  C   UNL     1     -20.625  -6.388  -5.611  1.00  0.00    -0.005 C 
HETATM   20  C   UNL     1     -20.357  -4.897  -5.636  1.00  0.00     0.005 C 
ENDBRANCH  18  19
ENDBRANCH  17  18
ENDBRANCH  16  17
ENDBRANCH  15  16
ENDBRANCH  14  15
ENDBRANCH  13  14
ENDBRANCH  12  13
ENDBRANCH  11  12
ENDBRANCH  10  11
ENDBRANCH   9  10
ENDBRANCH   8   9
ENDBRANCH   7   8
ENDBRANCH   6   7
ENDBRANCH   5   6
ENDBRANCH   4   5
ENDBRANCH   2   4
ENDBRANCH   1   2
BRANCH   1  21
HETATM   21  C   UNL     1     -17.322 -12.598  -7.128  1.00  0.00     0.037 C 
BRANCH  21  22
HETATM   22  C   UNL     1     -17.268 -13.713  -6.081  1.00  0.00     0.023 C 
BRANCH  22  23
HETATM   23  C   UNL     1     -15.885 -14.344  -6.001  1.00  0.00     0.138 C 
BRANCH  23  24
HETATM   24  N   UNL     1     -15.284 -13.962  -4.713  1.00  0.00    -0.227 N 
HETATM   25  C   UNL     1     -14.370 -13.063  -4.752  1.00  0.00     0.665 C 
HETATM   26  N   UNL     1     -13.911 -12.392  -5.831  1.00  0.00    -0.235 N 
HETATM   27  N   UNL     1     -13.724 -12.670  -3.641  1.00  0.00    -0.235 N 
HETATM   28  H   UNL     1     -14.242 -12.632  -6.757  1.00  0.00     0.174 HD
HETATM   29  H   UNL     1     -13.178 -11.713  -5.806  1.00  0.00     0.174 HD
HETATM   30  H   UNL     1     -14.004 -13.089  -2.763  1.00  0.00     0.174 HD
HETATM   31  H   UNL     1     -13.019 -11.953  -3.634  1.00  0.00     0.174 HD
ATOM     32  HN  UNL     1     -15.579 -14.389  -3.836  1.00  0.00     0.177 HD
ENDBRANCH  23  24
ENDBRANCH  22  23
ENDBRANCH  21  22
ENDBRANCH   1  21
BRANCH   1  33
HETATM   33  N   UNL     1     -19.415 -12.127  -5.934  1.00  0.00    -0.345 N 
HETATM   34  C   UNL     1     -20.682 -11.627  -5.777  1.00  0.00     0.241 C 
HETATM   35  O   UNL     1     -21.115 -10.652  -6.416  1.00  0.00    -0.271 OA
HETATM   36  H   UNL     1     -19.119 -12.933  -5.383  1.00  0.00     0.163 HD
BRANCH  34  37
HETATM   37  C   UNL     1     -21.634 -12.432  -4.846  1.00  0.00     0.180 C 
BRANCH  37  38
HETATM   38  C   UNL     1     -22.459 -11.421  -4.014  1.00  0.00     0.073 C 
BRANCH  38  39
HETATM   39  C   UNL     1     -22.774 -11.879  -2.607  1.00  0.00    -0.056 A 
HETATM   40  C   UNL     1     -22.270 -13.085  -2.102  1.00  0.00     0.010 A 
HETATM   41  C   UNL     1     -22.566 -13.481  -0.794  1.00  0.00     0.037 A 
HETATM   42  C   UNL     1     -23.372 -12.668   0.001  1.00  0.00     0.065 A 
HETATM   43  C   UNL     1     -23.895 -11.481  -0.490  1.00  0.00     0.037 A 
HETATM   44  C   UNL     1     -23.588 -11.079  -1.785  1.00  0.00     0.010 A 
BRANCH  42  45
HETATM   45  O   UNL     1     -23.666 -12.983   1.294  1.00  0.00    -0.361 OA
HETATM   46  H   UNL     1     -24.570 -13.332   1.333  1.00  0.00     0.217 HD
ENDBRANCH  42  45
ENDBRANCH  38  39
ENDBRANCH  37  38
BRANCH  37  47
HETATM   47  N   UNL     1     -22.536 -13.329  -5.597  1.00  0.00    -0.348 N 
HETATM   48  C   UNL     1     -22.129 -14.557  -6.054  1.00  0.00     0.214 C 
HETATM   49  O   UNL     1     -20.970 -14.944  -5.956  1.00  0.00    -0.274 OA
HETATM   50  C   UNL     1     -23.193 -15.392  -6.734  1.00  0.00     0.117 C 
HETATM   51  H   UNL     1     -23.506 -13.051  -5.701  1.00  0.00     0.163 HD
ENDBRANCH  37  47
ENDBRANCH  34  37
ENDBRANCH   1  33
TORSDOF 27
ENDMDL
MODEL 5
REMARK VINA RESULT:      -6.6      2.736      4.997
REMARK  27 active torsions:
REMARK  status: ('A' for Active; 'I' for Inactive)
REMARK    1  A    between atoms: C_2  and  C_3 
REMARK    2  A    between atoms: C_3  and  C_4 
REMARK    3  A    between atoms: C_4  and  C_5 
REMARK    4  A    between atoms: C_5  and  C_6 
REMARK    5  A    between atoms: C_6  and  C_7 
REMARK    6  A    between atoms: C_7  and  C_8 
REMARK    7  A    between atoms: C_8  and  C_9 
REMARK    8  A    between atoms: C_9  and  C_10 
REMARK    9  A    between atoms: C_10  and  C_11 
REMARK   10  A    between atoms: C_11  and  C_12 
REMARK   11  A    between atoms: C_12  and  C_13 
REMARK   12  A    between atoms: C_13  and  C_14 
REMARK   13  A    between atoms: C_14  and  C_15 
REMARK   14  A    between atoms: C_15  and  C_16 
REMARK   15  A    between atoms: C_16  and  O_17 
REMARK   16  A    between atoms: O_17  and  C_18 
REMARK   17  A    between atoms: C_18  and  C_20 
REMARK   18  A    between atoms: C_20  and  C_21 
REMARK   19  A    between atoms: C_20  and  N_29 
REMARK   20  A    between atoms: C_21  and  C_22 
REMARK   21  A    between atoms: C_22  and  C_23 
REMARK   22  A    between atoms: C_23  and  N_24 
REMARK       I    between atoms: N_24  and  C_26 
REMARK       I    between atoms: C_26  and  N_27 
REMARK       I    between atoms: N_29  and  C_30 
REMARK   23  A    between atoms: C_30  and  C_32 
REMARK   24  A    between atoms: C_32  and  C_33 
REMARK   25  A    between atoms: C_32  and  N_41 
REMARK   26  A    between atoms: C_33  and  C_34 
REMARK   27  A    between atoms: C_37  and  O_40 
REMARK       I    between atoms: N_41  and  C_42 
ROOT
HETATM    1  C   UNL     1     -17.414 -12.857  -0.711  1.00  0.00     0.184 C 
ENDROOT
BRANCH   1   2
HETATM    2  C   UNL     1     -16.093 -12.144  -0.317  1.00  0.00     0.281 C 
HETATM    3  O   UNL     1     -15.911 -11.563   0.728  1.00  0.00    -0.263 OA
BRANCH   2   4
HETATM    4  O   UNL     1     -15.170 -12.238  -1.328  1.00  0.00    -0.320 OA
BRANCH   4   5
HETATM    5  C   UNL     1     -15.592 -11.717  -2.599  1.00  0.00     0.178 C 
BRANCH   5   6
HETATM    6  C   UNL     1     -15.624 -10.192  -2.590  1.00  0.00     0.027 C 
BRANCH   6   7
HETATM    7  C   UNL     1     -16.316  -9.647  -3.837  1.00  0.00     0.002 C 
BRANCH   7   8
HETATM    8  C   UNL     1     -17.530 -10.490  -4.201  1.00  0.00     0.000 C 
BRANCH   8   9
HETATM    9  C   UNL     1     -18.807  -9.804  -3.740  1.00  0.00     0.000 C 
BRANCH   9  10
HETATM   10  C   UNL     1     -19.722  -9.545  -4.925  1.00  0.00     0.000 C 
BRANCH  10  11
HETATM   11  C   UNL     1     -19.752  -8.061  -5.248  1.00  0.00     0.000 C 
BRANCH  11  12
HETATM   12  C   UNL     1     -21.174  -7.625  -5.548  1.00  0.00     0.000 C 
BRANCH  12  13
HETATM   13  C   UNL     1     -21.339  -6.149  -5.236  1.00  0.00     0.000 C 
BRANCH  13  14
HETATM   14  C   UNL     1     -20.180  -5.364  -5.822  1.00  0.00     0.000 C 
BRANCH  14  15
HETATM   15  C   UNL     1     -20.664  -4.523  -6.989  1.00  0.00     0.000 C 
BRANCH  15  16
HETATM   16  C   UNL     1     -20.089  -5.057  -8.287  1.00  0.00     0.000 C 
BRANCH  16  17
HETATM   17  C   UNL     1     -20.342  -4.069  -9.414  1.00  0.00     0.000 C 
BRANCH  17  18
HETATM   18  C   UNL     1     -21.828  -3.991  -9.717  1.00  0.00    -0.000 C 
BRANCH  18  19
HETATM   19  C   UNL     1     -22.075  -4.128 -11.213  1.00  0.00    -0.005 C 
HETATM   20  C   UNL     1     -23.084  -3.099 -11.677  1.00  0.00     0.005 C 
ENDBRANCH  18  19
ENDBRANCH  17  18
ENDBRANCH  16  17
ENDBRANCH  15  16
ENDBRANCH  14  15
ENDBRANCH  13  14
ENDBRANCH  12  13
ENDBRANCH  11  12
ENDBRANCH  10  11
ENDBRANCH   9  10
ENDBRANCH   8   9
ENDBRANCH   7   8
ENDBRANCH   6   7
ENDBRANCH   5   6
ENDBRANCH   4   5
ENDBRANCH   2   4
ENDBRANCH   1   2
BRANCH   1  21
HETATM   21  C   UNL     1     -17.328 -14.358  -0.332  1.00  0.00     0.037 C 
BRANCH  21  22
HETATM   22  C   UNL     1     -17.497 -14.608   1.169  1.00  0.00     0.023 C 
BRANCH  22  23
HETATM   23  C   UNL     1     -18.599 -15.620   1.450  1.00  0.00     0.138 C 
BRANCH  23  24
HETATM   24  N   UNL     1     -19.519 -15.622   0.301  1.00  0.00    -0.227 N 
HETATM   25  C   UNL     1     -20.745 -15.336   0.549  1.00  0.00     0.665 C 
HETATM   26  N   UNL     1     -21.294 -14.996   1.735  1.00  0.00    -0.235 N 
HETATM   27  N   UNL     1     -21.678 -15.350  -0.418  1.00  0.00    -0.235 N 
HETATM   28  H   UNL     1     -20.736 -15.018   2.579  1.00  0.00     0.174 HD
HETATM   29  H   UNL     1     -22.265 -14.802   1.875  1.00  0.00     0.174 HD
HETATM   30  H   UNL     1     -21.375 -15.568  -1.358  1.00  0.00     0.174 HD
HETATM   31  H   UNL     1     -22.641 -15.110  -0.261  1.00  0.00     0.174 HD
ATOM     32  HN  UNL     1     -19.199 -15.838  -0.642  1.00  0.00     0.177 HD
ENDBRANCH  23  24
ENDBRANCH  22  23
ENDBRANCH  21  22
ENDBRANCH   1  21
BRANCH   1  33
HETATM   33  N   UNL     1     -18.588 -12.272  -0.038  1.00  0.00    -0.345 N 
HETATM   34  C   UNL     1     -19.834 -12.197  -0.605  1.00  0.00     0.241 C 
HETATM   35  O   UNL     1     -20.105 -12.675  -1.720  1.00  0.00    -0.271 OA
HETATM   36  H   UNL     1     -18.428 -11.865   0.884  1.00  0.00     0.163 HD
BRANCH  34  37
HETATM   37  C   UNL     1     -20.965 -11.601   0.282  1.00  0.00     0.180 C 
BRANCH  37  38
HETATM   38  C   UNL     1     -20.487 -10.227   0.810  1.00  0.00     0.073 C 
BRANCH  38  39
HETATM   39  C   UNL     1     -21.044  -9.039   0.056  1.00  0.00    -0.056 A 
HETATM   40  C   UNL     1     -20.423  -8.553  -1.102  1.00  0.00     0.010 A 
HETATM   41  C   UNL     1     -20.965  -7.462  -1.788  1.00  0.00     0.037 A 
HETATM   42  C   UNL     1     -22.124  -6.858  -1.305  1.00  0.00     0.065 A 
HETATM   43  C   UNL     1     -22.740  -7.313  -0.149  1.00  0.00     0.037 A 
HETATM   44  C   UNL     1     -22.211  -8.410   0.524  1.00  0.00     0.010 A 
BRANCH  42  45
HETATM   45  O   UNL     1     -22.719  -5.813  -1.949  1.00  0.00    -0.361 OA
HETATM   46  H   UNL     1     -22.513  -4.995  -1.471  1.00  0.00     0.217 HD
ENDBRANCH  42  45
ENDBRANCH  38  39
ENDBRANCH  37  38
BRANCH  37  47
HETATM   47  N   UNL     1     -22.239 -11.449  -0.450  1.00  0.00    -0.348 N 
HETATM   48  C   UNL     1     -23.379 -12.115  -0.077  1.00  0.00     0.214 C 
HETATM   49  O   UNL     1     -23.389 -12.949   0.821  1.00  0.00    -0.274 OA
HETATM   50  C   UNL     1     -24.622 -11.792  -0.878  1.00  0.00     0.117 C 
HETATM   51  H   UNL     1     -22.279 -10.768  -1.200  1.00  0.00     0.163 HD
ENDBRANCH  37  47
ENDBRANCH  34  37
ENDBRANCH   1  33
TORSDOF 27
ENDMDL
MODEL 6
REMARK VINA RESULT:      -6.5      1.339      2.063
REMARK  27 active torsions:
REMARK  status: ('A' for Active; 'I' for Inactive)
REMARK    1  A    between atoms: C_2  and  C_3 
REMARK    2  A    between atoms: C_3  and  C_4 
REMARK    3  A    between atoms: C_4  and  C_5 
REMARK    4  A    between atoms: C_5  and  C_6 
REMARK    5  A    between atoms: C_6  and  C_7 
REMARK    6  A    between atoms: C_7  and  C_8 
REMARK    7  A    between atoms: C_8  and  C_9 
REMARK    8  A    between atoms: C_9  and  C_10 
REMARK    9  A    between atoms: C_10  and  C_11 
REMARK   10  A    between atoms: C_11  and  C_12 
REMARK   11  A    between atoms: C_12  and  C_13 
REMARK   12  A    between atoms: C_13  and  C_14 
REMARK   13  A    between atoms: C_14  and  C_15 
REMARK   14  A    between atoms: C_15  and  C_16 
REMARK   15  A    between atoms: C_16  and  O_17 
REMARK   16  A    between atoms: O_17  and  C_18 
REMARK   17  A    between atoms: C_18  and  C_20 
REMARK   18  A    between atoms: C_20  and  C_21 
REMARK   19  A    between atoms: C_20  and  N_29 
REMARK   20  A    between atoms: C_21  and  C_22 
REMARK   21  A    between atoms: C_22  and  C_23 
REMARK   22  A    between atoms: C_23  and  N_24 
REMARK       I    between atoms: N_24  and  C_26 
REMARK       I    between atoms: C_26  and  N_27 
REMARK       I    between atoms: N_29  and  C_30 
REMARK   23  A    between atoms: C_30  and  C_32 
REMARK   24  A    between atoms: C_32  and  C_33 
REMARK   25  A    between atoms: C_32  and  N_41 
REMARK   26  A    between atoms: C_33  and  C_34 
REMARK   27  A    between atoms: C_37  and  O_40 
REMARK       I    between atoms: N_41  and  C_42 
ROOT
HETATM    1  C   UNL     1     -19.207 -13.214  -4.307  1.00  0.00     0.184 C 
ENDROOT
BRANCH   1   2
HETATM    2  C   UNL     1     -18.999 -12.087  -5.353  1.00  0.00     0.281 C 
HETATM    3  O   UNL     1     -19.539 -12.047  -6.435  1.00  0.00    -0.263 OA
BRANCH   2   4
HETATM    4  O   UNL     1     -18.100 -11.158  -4.895  1.00  0.00    -0.320 OA
BRANCH   4   5
HETATM    5  C   UNL     1     -18.597  -9.813  -4.796  1.00  0.00     0.178 C 
BRANCH   5   6
HETATM    6  C   UNL     1     -18.194  -9.169  -3.473  1.00  0.00     0.027 C 
BRANCH   6   7
HETATM    7  C   UNL     1     -19.378  -9.095  -2.512  1.00  0.00     0.002 C 
BRANCH   7   8
HETATM    8  C   UNL     1     -20.657  -9.574  -3.184  1.00  0.00     0.000 C 
BRANCH   8   9
HETATM    9  C   UNL     1     -21.740  -8.510  -3.081  1.00  0.00     0.000 C 
BRANCH   9  10
HETATM   10  C   UNL     1     -21.166  -7.231  -2.494  1.00  0.00     0.000 C 
BRANCH  10  11
HETATM   11  C   UNL     1     -21.345  -6.082  -3.471  1.00  0.00     0.000 C 
BRANCH  11  12
HETATM   12  C   UNL     1     -22.049  -6.571  -4.723  1.00  0.00     0.000 C 
BRANCH  12  13
HETATM   13  C   UNL     1     -21.651  -5.713  -5.909  1.00  0.00     0.000 C 
BRANCH  13  14
HETATM   14  C   UNL     1     -20.246  -5.175  -5.709  1.00  0.00     0.000 C 
BRANCH  14  15
HETATM   15  C   UNL     1     -19.761  -4.511  -6.985  1.00  0.00     0.000 C 
BRANCH  15  16
HETATM   16  C   UNL     1     -20.455  -5.125  -8.186  1.00  0.00     0.000 C 
BRANCH  16  17
HETATM   17  C   UNL     1     -20.396  -4.170  -9.367  1.00  0.00     0.000 C 
BRANCH  17  18
HETATM   18  C   UNL     1     -21.702  -4.215 -10.141  1.00  0.00    -0.000 C 
BRANCH  18  19
HETATM   19  C   UNL     1     -22.876  -4.416  -9.195  1.00  0.00    -0.005 C 
HETATM   20  C   UNL     1     -24.004  -3.466  -9.544  1.00  0.00     0.005 C 
ENDBRANCH  18  19
ENDBRANCH  17  18
ENDBRANCH  16  17
ENDBRANCH  15  16
ENDBRANCH  14  15
ENDBRANCH  13  14
ENDBRANCH  12  13
ENDBRANCH  11  12
ENDBRANCH  10  11
ENDBRANCH   9  10
ENDBRANCH   8   9
ENDBRANCH   7   8
ENDBRANCH   6   7
ENDBRANCH   5   6
ENDBRANCH   4   5
ENDBRANCH   2   4
ENDBRANCH   1   2
BRANCH   1  21
HETATM   21  C   UNL     1     -18.225 -14.380  -4.598  1.00  0.00     0.037 C 
BRANCH  21  22
HETATM   22  C   UNL     1     -16.766 -14.022  -4.304  1.00  0.00     0.023 C 
BRANCH  22  23
HETATM   23  C   UNL     1     -15.803 -14.991  -4.977  1.00  0.00     0.138 C 
BRANCH  23  24
HETATM   24  N   UNL     1     -15.046 -14.245  -5.996  1.00  0.00    -0.227 N 
HETATM   25  C   UNL     1     -13.863 -13.871  -5.669  1.00  0.00     0.665 C 
HETATM   26  N   UNL     1     -13.207 -14.109  -4.513  1.00  0.00    -0.235 N 
HETATM   27  N   UNL     1     -13.100 -13.148  -6.507  1.00  0.00    -0.235 N 
HETATM   28  H   UNL     1     -13.678 -14.575  -3.748  1.00  0.00     0.174 HD
HETATM   29  H   UNL     1     -12.288 -13.774  -4.304  1.00  0.00     0.174 HD
HETATM   30  H   UNL     1     -13.481 -12.930  -7.418  1.00  0.00     0.174 HD
HETATM   31  H   UNL     1     -12.162 -12.859  -6.290  1.00  0.00     0.174 HD
ATOM     32  HN  UNL     1     -15.441 -14.037  -6.912  1.00  0.00     0.177 HD
ENDBRANCH  23  24
ENDBRANCH  22  23
ENDBRANCH  21  22
ENDBRANCH   1  21
BRANCH   1  33
HETATM   33  N   UNL     1     -18.979 -12.747  -2.927  1.00  0.00    -0.345 N 
HETATM   34  C   UNL     1     -19.860 -12.953  -1.897  1.00  0.00     0.241 C 
HETATM   35  O   UNL     1     -20.908 -13.611  -2.017  1.00  0.00    -0.271 OA
HETATM   36  H   UNL     1     -18.133 -12.201  -2.765  1.00  0.00     0.163 HD
BRANCH  34  37
HETATM   37  C   UNL     1     -19.421 -12.439  -0.495  1.00  0.00     0.180 C 
BRANCH  37  38
HETATM   38  C   UNL     1     -20.664 -12.435   0.426  1.00  0.00     0.073 C 
BRANCH  38  39
HETATM   39  C   UNL     1     -21.473 -11.158   0.379  1.00  0.00    -0.056 A 
HETATM   40  C   UNL     1     -22.782 -11.141  -0.122  1.00  0.00     0.010 A 
HETATM   41  C   UNL     1     -23.514  -9.950  -0.143  1.00  0.00     0.037 A 
HETATM   42  C   UNL     1     -22.928  -8.778   0.332  1.00  0.00     0.065 A 
HETATM   43  C   UNL     1     -21.627  -8.773   0.811  1.00  0.00     0.037 A 
HETATM   44  C   UNL     1     -20.904  -9.961   0.848  1.00  0.00     0.010 A 
BRANCH  42  45
HETATM   45  O   UNL     1     -23.603  -7.594   0.368  1.00  0.00    -0.361 OA
HETATM   46  H   UNL     1     -22.963  -6.868   0.297  1.00  0.00     0.217 HD
ENDBRANCH  42  45
ENDBRANCH  38  39
ENDBRANCH  37  38
BRANCH  37  47
HETATM   47  N   UNL     1     -18.349 -13.262   0.099  1.00  0.00    -0.348 N 
HETATM   48  C   UNL     1     -17.067 -12.796   0.246  1.00  0.00     0.214 C 
HETATM   49  O   UNL     1     -16.708 -11.711  -0.195  1.00  0.00    -0.274 OA
HETATM   50  C   UNL     1     -16.103 -13.729   0.947  1.00  0.00     0.117 C 
HETATM   51  H   UNL     1     -18.600 -14.168   0.481  1.00  0.00     0.163 HD
ENDBRANCH  37  47
ENDBRANCH  34  37
ENDBRANCH   1  33
TORSDOF 27
ENDMDL
MODEL 7
REMARK VINA RESULT:      -6.5      2.877      4.742
REMARK  27 active torsions:
REMARK  status: ('A' for Active; 'I' for Inactive)
REMARK    1  A    between atoms: C_2  and  C_3 
REMARK    2  A    between atoms: C_3  and  C_4 
REMARK    3  A    between atoms: C_4  and  C_5 
REMARK    4  A    between atoms: C_5  and  C_6 
REMARK    5  A    between atoms: C_6  and  C_7 
REMARK    6  A    between atoms: C_7  and  C_8 
REMARK    7  A    between atoms: C_8  and  C_9 
REMARK    8  A    between atoms: C_9  and  C_10 
REMARK    9  A    between atoms: C_10  and  C_11 
REMARK   10  A    between atoms: C_11  and  C_12 
REMARK   11  A    between atoms: C_12  and  C_13 
REMARK   12  A    between atoms: C_13  and  C_14 
REMARK   13  A    between atoms: C_14  and  C_15 
REMARK   14  A    between atoms: C_15  and  C_16 
REMARK   15  A    between atoms: C_16  and  O_17 
REMARK   16  A    between atoms: O_17  and  C_18 
REMARK   17  A    between atoms: C_18  and  C_20 
REMARK   18  A    between atoms: C_20  and  C_21 
REMARK   19  A    between atoms: C_20  and  N_29 
REMARK   20  A    between atoms: C_21  and  C_22 
REMARK   21  A    between atoms: C_22  and  C_23 
REMARK   22  A    between atoms: C_23  and  N_24 
REMARK       I    between atoms: N_24  and  C_26 
REMARK       I    between atoms: C_26  and  N_27 
REMARK       I    between atoms: N_29  and  C_30 
REMARK   23  A    between atoms: C_30  and  C_32 
REMARK   24  A    between atoms: C_32  and  C_33 
REMARK   25  A    between atoms: C_32  and  N_41 
REMARK   26  A    between atoms: C_33  and  C_34 
REMARK   27  A    between atoms: C_37  and  O_40 
REMARK       I    between atoms: N_41  and  C_42 
ROOT
HETATM    1  C   UNL     1     -18.497 -11.558  -6.800  1.00  0.00     0.184 C 
ENDROOT
BRANCH   1   2
HETATM    2  C   UNL     1     -17.738 -10.321  -6.250  1.00  0.00     0.281 C 
HETATM    3  O   UNL     1     -18.211  -9.212  -6.153  1.00  0.00    -0.263 OA
BRANCH   2   4
HETATM    4  O   UNL     1     -16.449 -10.652  -5.916  1.00  0.00    -0.320 OA
BRANCH   4   5
HETATM    5  C   UNL     1     -15.844  -9.833  -4.902  1.00  0.00     0.178 C 
BRANCH   5   6
HETATM    6  C   UNL     1     -15.648 -10.611  -3.604  1.00  0.00     0.027 C 
BRANCH   6   7
HETATM    7  C   UNL     1     -16.710 -10.240  -2.573  1.00  0.00     0.002 C 
BRANCH   7   8
HETATM    8  C   UNL     1     -17.978 -11.058  -2.775  1.00  0.00     0.000 C 
BRANCH   8   9
HETATM    9  C   UNL     1     -19.135 -10.438  -2.006  1.00  0.00     0.000 C 
BRANCH   9  10
HETATM   10  C   UNL     1     -19.516  -9.100  -2.617  1.00  0.00     0.000 C 
BRANCH  10  11
HETATM   11  C   UNL     1     -20.414  -8.328  -1.666  1.00  0.00     0.000 C 
BRANCH  11  12
HETATM   12  C   UNL     1     -21.478  -7.581  -2.450  1.00  0.00     0.000 C 
BRANCH  12  13
HETATM   13  C   UNL     1     -21.113  -7.554  -3.922  1.00  0.00     0.000 C 
BRANCH  13  14
HETATM   14  C   UNL     1     -21.802  -6.386  -4.604  1.00  0.00     0.000 C 
BRANCH  14  15
HETATM   15  C   UNL     1     -20.950  -5.884  -5.755  1.00  0.00     0.000 C 
BRANCH  15  16
HETATM   16  C   UNL     1     -21.790  -5.040  -6.694  1.00  0.00     0.000 C 
BRANCH  16  17
HETATM   17  C   UNL     1     -21.008  -3.813  -7.132  1.00  0.00     0.000 C 
BRANCH  17  18
HETATM   18  C   UNL     1     -20.210  -4.122  -8.387  1.00  0.00    -0.000 C 
BRANCH  18  19
HETATM   19  C   UNL     1     -21.143  -4.383  -9.560  1.00  0.00    -0.005 C 
HETATM   20  C   UNL     1     -20.401  -4.216 -10.871  1.00  0.00     0.005 C 
ENDBRANCH  18  19
ENDBRANCH  17  18
ENDBRANCH  16  17
ENDBRANCH  15  16
ENDBRANCH  14  15
ENDBRANCH  13  14
ENDBRANCH  12  13
ENDBRANCH  11  12
ENDBRANCH  10  11
ENDBRANCH   9  10
ENDBRANCH   8   9
ENDBRANCH   7   8
ENDBRANCH   6   7
ENDBRANCH   5   6
ENDBRANCH   4   5
ENDBRANCH   2   4
ENDBRANCH   1   2
BRANCH   1  21
HETATM   21  C   UNL     1     -17.488 -12.697  -7.099  1.00  0.00     0.037 C 
BRANCH  21  22
HETATM   22  C   UNL     1     -17.571 -13.851  -6.097  1.00  0.00     0.023 C 
BRANCH  22  23
HETATM   23  C   UNL     1     -16.219 -14.141  -5.460  1.00  0.00     0.138 C 
BRANCH  23  24
HETATM   24  N   UNL     1     -15.226 -13.241  -6.070  1.00  0.00    -0.227 N 
HETATM   25  C   UNL     1     -14.018 -13.669  -6.113  1.00  0.00     0.665 C 
HETATM   26  N   UNL     1     -13.544 -14.863  -5.698  1.00  0.00    -0.235 N 
HETATM   27  N   UNL     1     -13.024 -12.912  -6.609  1.00  0.00    -0.235 N 
HETATM   28  H   UNL     1     -14.156 -15.516  -5.226  1.00  0.00     0.174 HD
HETATM   29  H   UNL     1     -12.583 -15.136  -5.738  1.00  0.00     0.174 HD
HETATM   30  H   UNL     1     -13.266 -12.000  -6.975  1.00  0.00     0.174 HD
HETATM   31  H   UNL     1     -12.071 -13.225  -6.678  1.00  0.00     0.174 HD
ATOM     32  HN  UNL     1     -15.486 -12.327  -6.439  1.00  0.00     0.177 HD
ENDBRANCH  23  24
ENDBRANCH  22  23
ENDBRANCH  21  22
ENDBRANCH   1  21
BRANCH   1  33
HETATM   33  N   UNL     1     -19.504 -12.065  -5.850  1.00  0.00    -0.345 N 
HETATM   34  C   UNL     1     -20.749 -11.514  -5.691  1.00  0.00     0.241 C 
HETATM   35  O   UNL     1     -21.169 -10.569  -6.381  1.00  0.00    -0.271 OA
HETATM   36  H   UNL     1     -19.218 -12.843  -5.255  1.00  0.00     0.163 HD
BRANCH  34  37
HETATM   37  C   UNL     1     -21.699 -12.223  -4.683  1.00  0.00     0.180 C 
BRANCH  37  38
HETATM   38  C   UNL     1     -22.351 -11.138  -3.793  1.00  0.00     0.073 C 
BRANCH  38  39
HETATM   39  C   UNL     1     -22.664 -11.590  -2.384  1.00  0.00    -0.056 A 
HETATM   40  C   UNL     1     -23.487 -10.833  -1.540  1.00  0.00     0.010 A 
HETATM   41  C   UNL     1     -23.771 -11.278  -0.246  1.00  0.00     0.037 A 
HETATM   42  C   UNL     1     -23.223 -12.479   0.200  1.00  0.00     0.065 A 
HETATM   43  C   UNL     1     -22.390 -13.231  -0.614  1.00  0.00     0.037 A 
HETATM   44  C   UNL     1     -22.120 -12.796  -1.908  1.00  0.00     0.010 A 
BRANCH  42  45
HETATM   45  O   UNL     1     -23.491 -12.982   1.439  1.00  0.00    -0.361 OA
HETATM   46  H   UNL     1     -24.451 -13.085   1.533  1.00  0.00     0.217 HD
ENDBRANCH  42  45
ENDBRANCH  38  39
ENDBRANCH  37  38
BRANCH  37  47
HETATM   47  N   UNL     1     -22.741 -13.025  -5.355  1.00  0.00    -0.348 N 
HETATM   48  C   UNL     1     -22.487 -14.273  -5.864  1.00  0.00     0.214 C 
HETATM   49  O   UNL     1     -21.362 -14.759  -5.883  1.00  0.00    -0.274 OA
HETATM   50  C   UNL     1     -23.678 -15.001  -6.449  1.00  0.00     0.117 C 
HETATM   51  H   UNL     1     -23.689 -12.664  -5.362  1.00  0.00     0.163 HD
ENDBRANCH  37  47
ENDBRANCH  34  37
ENDBRANCH   1  33
TORSDOF 27
ENDMDL
MODEL 8
REMARK VINA RESULT:      -6.4      2.504      4.979
REMARK  27 active torsions:
REMARK  status: ('A' for Active; 'I' for Inactive)
REMARK    1  A    between atoms: C_2  and  C_3 
REMARK    2  A    between atoms: C_3  and  C_4 
REMARK    3  A    between atoms: C_4  and  C_5 
REMARK    4  A    between atoms: C_5  and  C_6 
REMARK    5  A    between atoms: C_6  and  C_7 
REMARK    6  A    between atoms: C_7  and  C_8 
REMARK    7  A    between atoms: C_8  and  C_9 
REMARK    8  A    between atoms: C_9  and  C_10 
REMARK    9  A    between atoms: C_10  and  C_11 
REMARK   10  A    between atoms: C_11  and  C_12 
REMARK   11  A    between atoms: C_12  and  C_13 
REMARK   12  A    between atoms: C_13  and  C_14 
REMARK   13  A    between atoms: C_14  and  C_15 
REMARK   14  A    between atoms: C_15  and  C_16 
REMARK   15  A    between atoms: C_16  and  O_17 
REMARK   16  A    between atoms: O_17  and  C_18 
REMARK   17  A    between atoms: C_18  and  C_20 
REMARK   18  A    between atoms: C_20  and  C_21 
REMARK   19  A    between atoms: C_20  and  N_29 
REMARK   20  A    between atoms: C_21  and  C_22 
REMARK   21  A    between atoms: C_22  and  C_23 
REMARK   22  A    between atoms: C_23  and  N_24 
REMARK       I    between atoms: N_24  and  C_26 
REMARK       I    between atoms: C_26  and  N_27 
REMARK       I    between atoms: N_29  and  C_30 
REMARK   23  A    between atoms: C_30  and  C_32 
REMARK   24  A    between atoms: C_32  and  C_33 
REMARK   25  A    between atoms: C_32  and  N_41 
REMARK   26  A    between atoms: C_33  and  C_34 
REMARK   27  A    between atoms: C_37  and  O_40 
REMARK       I    between atoms: N_41  and  C_42 
ROOT
HETATM    1  C   UNL     1     -19.970 -12.315  -0.663  1.00  0.00     0.184 C 
ENDROOT
BRANCH   1   2
HETATM    2  C   UNL     1     -20.622 -10.958  -1.043  1.00  0.00     0.281 C 
HETATM    3  O   UNL     1     -20.334 -10.308  -2.022  1.00  0.00    -0.263 OA
BRANCH   2   4
HETATM    4  O   UNL     1     -21.547 -10.585  -0.101  1.00  0.00    -0.320 OA
BRANCH   4   5
HETATM    5  C   UNL     1     -22.663  -9.827  -0.599  1.00  0.00     0.178 C 
BRANCH   5   6
HETATM    6  C   UNL     1     -23.024  -8.686   0.348  1.00  0.00     0.027 C 
BRANCH   6   7
HETATM    7  C   UNL     1     -22.440  -7.361  -0.138  1.00  0.00     0.002 C 
BRANCH   7   8
HETATM    8  C   UNL     1     -21.848  -7.504  -1.533  1.00  0.00     0.000 C 
BRANCH   8   9
HETATM    9  C   UNL     1     -21.883  -6.168  -2.261  1.00  0.00     0.000 C 
BRANCH   9  10
HETATM   10  C   UNL     1     -22.377  -6.358  -3.685  1.00  0.00     0.000 C 
BRANCH  10  11
HETATM   11  C   UNL     1     -21.613  -7.485  -4.357  1.00  0.00     0.000 C 
BRANCH  11  12
HETATM   12  C   UNL     1     -21.322  -7.124  -5.802  1.00  0.00     0.000 C 
BRANCH  12  13
HETATM   13  C   UNL     1     -19.844  -6.827  -5.974  1.00  0.00     0.000 C 
BRANCH  13  14
HETATM   14  C   UNL     1     -19.663  -5.489  -6.667  1.00  0.00     0.000 C 
BRANCH  14  15
HETATM   15  C   UNL     1     -20.795  -4.553  -6.286  1.00  0.00     0.000 C 
BRANCH  15  16
HETATM   16  C   UNL     1     -21.057  -3.570  -7.412  1.00  0.00     0.000 C 
BRANCH  16  17
HETATM   17  C   UNL     1     -22.384  -3.888  -8.082  1.00  0.00     0.000 C 
BRANCH  17  18
HETATM   18  C   UNL     1     -22.149  -4.680  -9.357  1.00  0.00    -0.000 C 
BRANCH  18  19
HETATM   19  C   UNL     1     -20.835  -4.269 -10.005  1.00  0.00    -0.005 C 
HETATM   20  C   UNL     1     -21.097  -3.455 -11.256  1.00  0.00     0.005 C 
ENDBRANCH  18  19
ENDBRANCH  17  18
ENDBRANCH  16  17
ENDBRANCH  15  16
ENDBRANCH  14  15
ENDBRANCH  13  14
ENDBRANCH  12  13
ENDBRANCH  11  12
ENDBRANCH  10  11
ENDBRANCH   9  10
ENDBRANCH   8   9
ENDBRANCH   7   8
ENDBRANCH   6   7
ENDBRANCH   5   6
ENDBRANCH   4   5
ENDBRANCH   2   4
ENDBRANCH   1   2
BRANCH   1  21
HETATM   21  C   UNL     1     -20.773 -13.476  -1.306  1.00  0.00     0.037 C 
BRANCH  21  22
HETATM   22  C   UNL     1     -20.354 -13.767  -2.750  1.00  0.00     0.023 C 
BRANCH  22  23
HETATM   23  C   UNL     1     -21.431 -13.348  -3.742  1.00  0.00     0.138 C 
BRANCH  23  24
HETATM   24  N   UNL     1     -20.979 -12.116  -4.409  1.00  0.00    -0.227 N 
HETATM   25  C   UNL     1     -21.468 -11.884  -5.572  1.00  0.00     0.665 C 
HETATM   26  N   UNL     1     -22.378 -12.615  -6.252  1.00  0.00    -0.235 N 
HETATM   27  N   UNL     1     -21.092 -10.811  -6.289  1.00  0.00    -0.235 N 
HETATM   28  H   UNL     1     -22.700 -13.499  -5.879  1.00  0.00     0.174 HD
HETATM   29  H   UNL     1     -22.709 -12.396  -7.169  1.00  0.00     0.174 HD
HETATM   30  H   UNL     1     -20.429 -10.174  -5.867  1.00  0.00     0.174 HD
HETATM   31  H   UNL     1     -21.472 -10.589  -7.193  1.00  0.00     0.174 HD
ATOM     32  HN  UNL     1     -20.314 -11.481  -3.970  1.00  0.00     0.177 HD
ENDBRANCH  23  24
ENDBRANCH  22  23
ENDBRANCH  21  22
ENDBRANCH   1  21
BRANCH   1  33
HETATM   33  N   UNL     1     -18.570 -12.409  -1.117  1.00  0.00    -0.345 N 
HETATM   34  C   UNL     1     -17.488 -12.240  -0.292  1.00  0.00     0.241 C 
HETATM   35  O   UNL     1     -17.587 -12.053   0.933  1.00  0.00    -0.271 OA
HETATM   36  H   UNL     1     -18.424 -12.564  -2.115  1.00  0.00     0.163 HD
BRANCH  34  37
HETATM   37  C   UNL     1     -16.085 -12.437  -0.939  1.00  0.00     0.180 C 
BRANCH  37  38
HETATM   38  C   UNL     1     -15.674 -11.103  -1.606  1.00  0.00     0.073 C 
BRANCH  38  39
HETATM   39  C   UNL     1     -16.395 -10.805  -2.903  1.00  0.00    -0.056 A 
HETATM   40  C   UNL     1     -17.152  -9.637  -3.065  1.00  0.00     0.010 A 
HETATM   41  C   UNL     1     -17.799  -9.378  -4.277  1.00  0.00     0.037 A 
HETATM   42  C   UNL     1     -17.689 -10.295  -5.320  1.00  0.00     0.065 A 
HETATM   43  C   UNL     1     -16.962 -11.466  -5.170  1.00  0.00     0.037 A 
HETATM   44  C   UNL     1     -16.304 -11.716  -3.970  1.00  0.00     0.010 A 
BRANCH  42  45
HETATM   45  O   UNL     1     -18.268 -10.082  -6.536  1.00  0.00    -0.361 OA
HETATM   46  H   UNL     1     -17.759 -10.555  -7.212  1.00  0.00     0.217 HD
ENDBRANCH  42  45
ENDBRANCH  38  39
ENDBRANCH  37  38
BRANCH  37  47
HETATM   47  N   UNL     1     -15.063 -12.851   0.043  1.00  0.00    -0.348 N 
HETATM   48  C   UNL     1     -14.601 -14.141   0.115  1.00  0.00     0.214 C 
HETATM   49  O   UNL     1     -15.076 -15.048  -0.558  1.00  0.00    -0.274 OA
HETATM   50  C   UNL     1     -13.494 -14.389   1.118  1.00  0.00     0.117 C 
HETATM   51  H   UNL     1     -14.639 -12.134   0.621  1.00  0.00     0.163 HD
ENDBRANCH  37  47
ENDBRANCH  34  37
ENDBRANCH   1  33
TORSDOF 27
ENDMDL
MODEL 9
REMARK VINA RESULT:      -6.4      2.047      2.901
REMARK  27 active torsions:
REMARK  status: ('A' for Active; 'I' for Inactive)
REMARK    1  A    between atoms: C_2  and  C_3 
REMARK    2  A    between atoms: C_3  and  C_4 
REMARK    3  A    between atoms: C_4  and  C_5 
REMARK    4  A    between atoms: C_5  and  C_6 
REMARK    5  A    between atoms: C_6  and  C_7 
REMARK    6  A    between atoms: C_7  and  C_8 
REMARK    7  A    between atoms: C_8  and  C_9 
REMARK    8  A    between atoms: C_9  and  C_10 
REMARK    9  A    between atoms: C_10  and  C_11 
REMARK   10  A    between atoms: C_11  and  C_12 
REMARK   11  A    between atoms: C_12  and  C_13 
REMARK   12  A    between atoms: C_13  and  C_14 
REMARK   13  A    between atoms: C_14  and  C_15 
REMARK   14  A    between atoms: C_15  and  C_16 
REMARK   15  A    between atoms: C_16  and  O_17 
REMARK   16  A    between atoms: O_17  and  C_18 
REMARK   17  A    between atoms: C_18  and  C_20 
REMARK   18  A    between atoms: C_20  and  C_21 
REMARK   19  A    between atoms: C_20  and  N_29 
REMARK   20  A    between atoms: C_21  and  C_22 
REMARK   21  A    between atoms: C_22  and  C_23 
REMARK   22  A    between atoms: C_23  and  N_24 
REMARK       I    between atoms: N_24  and  C_26 
REMARK       I    between atoms: C_26  and  N_27 
REMARK       I    between atoms: N_29  and  C_30 
REMARK   23  A    between atoms: C_30  and  C_32 
REMARK   24  A    between atoms: C_32  and  C_33 
REMARK   25  A    between atoms: C_32  and  N_41 
REMARK   26  A    between atoms: C_33  and  C_34 
REMARK   27  A    between atoms: C_37  and  O_40 
REMARK       I    between atoms: N_41  and  C_42 
ROOT
HETATM    1  C   UNL     1     -19.197 -12.996  -3.500  1.00  0.00     0.184 C 
ENDROOT
BRANCH   1   2
HETATM    2  C   UNL     1     -19.157 -11.678  -4.319  1.00  0.00     0.281 C 
HETATM    3  O   UNL     1     -19.554 -11.565  -5.456  1.00  0.00    -0.263 OA
BRANCH   2   4
HETATM    4  O   UNL     1     -18.584 -10.669  -3.587  1.00  0.00    -0.320 OA
BRANCH   4   5
HETATM    5  C   UNL     1     -19.152  -9.364  -3.786  1.00  0.00     0.178 C 
BRANCH   5   6
HETATM    6  C   UNL     1     -19.833  -8.857  -2.518  1.00  0.00     0.027 C 
BRANCH   6   7
HETATM    7  C   UNL     1     -20.666  -7.608  -2.800  1.00  0.00     0.002 C 
BRANCH   7   8
HETATM    8  C   UNL     1     -21.784  -7.909  -3.788  1.00  0.00     0.000 C 
BRANCH   8   9
HETATM    9  C   UNL     1     -21.969  -6.744  -4.749  1.00  0.00     0.000 C 
BRANCH   9  10
HETATM   10  C   UNL     1     -20.717  -6.552  -5.589  1.00  0.00     0.000 C 
BRANCH  10  11
HETATM   11  C   UNL     1     -20.204  -5.130  -5.444  1.00  0.00     0.000 C 
BRANCH  11  12
HETATM   12  C   UNL     1     -19.672  -4.634  -6.776  1.00  0.00     0.000 C 
BRANCH  12  13
HETATM   13  C   UNL     1     -20.657  -4.961  -7.882  1.00  0.00     0.000 C 
BRANCH  13  14
HETATM   14  C   UNL     1     -21.600  -3.792  -8.096  1.00  0.00     0.000 C 
BRANCH  14  15
HETATM   15  C   UNL     1     -23.039  -4.266  -8.005  1.00  0.00     0.000 C 
BRANCH  15  16
HETATM   16  C   UNL     1     -23.863  -3.642  -9.115  1.00  0.00     0.000 C 
BRANCH  16  17
HETATM   17  C   UNL     1     -24.140  -4.669 -10.200  1.00  0.00     0.000 C 
BRANCH  17  18
HETATM   18  C   UNL     1     -23.006  -4.679 -11.211  1.00  0.00    -0.000 C 
BRANCH  18  19
HETATM   19  C   UNL     1     -22.703  -3.266 -11.686  1.00  0.00    -0.005 C 
HETATM   20  C   UNL     1     -21.214  -2.993 -11.610  1.00  0.00     0.005 C 
ENDBRANCH  18  19
ENDBRANCH  17  18
ENDBRANCH  16  17
ENDBRANCH  15  16
ENDBRANCH  14  15
ENDBRANCH  13  14
ENDBRANCH  12  13
ENDBRANCH  11  12
ENDBRANCH  10  11
ENDBRANCH   9  10
ENDBRANCH   8   9
ENDBRANCH   7   8
ENDBRANCH   6   7
ENDBRANCH   5   6
ENDBRANCH   4   5
ENDBRANCH   2   4
ENDBRANCH   1   2
BRANCH   1  21
HETATM   21  C   UNL     1     -17.872 -13.776  -3.706  1.00  0.00     0.037 C 
BRANCH  21  22
HETATM   22  C   UNL     1     -16.804 -12.962  -4.440  1.00  0.00     0.023 C 
BRANCH  22  23
HETATM   23  C   UNL     1     -15.501 -12.907  -3.656  1.00  0.00     0.138 C 
BRANCH  23  24
HETATM   24  N   UNL     1     -15.831 -12.937  -2.222  1.00  0.00    -0.227 N 
HETATM   25  C   UNL     1     -15.898 -11.803  -1.626  1.00  0.00     0.665 C 
HETATM   26  N   UNL     1     -15.739 -10.573  -2.161  1.00  0.00    -0.235 N 
HETATM   27  N   UNL     1     -16.150 -11.716  -0.309  1.00  0.00    -0.235 N 
HETATM   28  H   UNL     1     -15.464 -10.473  -3.131  1.00  0.00     0.174 HD
HETATM   29  H   UNL     1     -15.782  -9.720  -1.643  1.00  0.00     0.174 HD
HETATM   30  H   UNL     1     -16.313 -12.579   0.195  1.00  0.00     0.174 HD
HETATM   31  H   UNL     1     -16.232 -10.843   0.183  1.00  0.00     0.174 HD
ATOM     32  HN  UNL     1     -15.997 -13.814  -1.728  1.00  0.00     0.177 HD
ENDBRANCH  23  24
ENDBRANCH  22  23
ENDBRANCH  21  22
ENDBRANCH   1  21
BRANCH   1  33
HETATM   33  N   UNL     1     -19.376 -12.753  -2.057  1.00  0.00    -0.345 N 
HETATM   34  C   UNL     1     -20.417 -13.258  -1.321  1.00  0.00     0.241 C 
HETATM   35  O   UNL     1     -21.277 -14.023  -1.792  1.00  0.00    -0.271 OA
HETATM   36  H   UNL     1     -18.698 -12.133  -1.612  1.00  0.00     0.163 HD
BRANCH  34  37
HETATM   37  C   UNL     1     -20.406 -12.944   0.203  1.00  0.00     0.180 C 
BRANCH  37  38
HETATM   38  C   UNL     1     -19.888 -11.499   0.391  1.00  0.00     0.073 C 
BRANCH  38  39
HETATM   39  C   UNL     1     -20.971 -10.442   0.389  1.00  0.00    -0.056 A 
HETATM   40  C   UNL     1     -22.128 -10.585  -0.388  1.00  0.00     0.010 A 
HETATM   41  C   UNL     1     -23.120  -9.600  -0.363  1.00  0.00     0.037 A 
HETATM   42  C   UNL     1     -22.944  -8.471   0.435  1.00  0.00     0.065 A 
HETATM   43  C   UNL     1     -21.795  -8.304   1.193  1.00  0.00     0.037 A 
HETATM   44  C   UNL     1     -20.816  -9.292   1.182  1.00  0.00     0.010 A 
BRANCH  42  45
HETATM   45  O   UNL     1     -23.890  -7.494   0.527  1.00  0.00    -0.361 OA
HETATM   46  H   UNL     1     -23.912  -7.165   1.439  1.00  0.00     0.217 HD
ENDBRANCH  42  45
ENDBRANCH  38  39
ENDBRANCH  37  38
BRANCH  37  47
HETATM   47  N   UNL     1     -21.739 -13.092   0.821  1.00  0.00    -0.348 N 
HETATM   48  C   UNL     1     -22.033 -14.116   1.686  1.00  0.00     0.214 C 
HETATM   49  O   UNL     1     -21.244 -15.023   1.923  1.00  0.00    -0.274 OA
HETATM   50  C   UNL     1     -23.417 -14.083   2.299  1.00  0.00     0.117 C 
HETATM   51  H   UNL     1     -22.424 -12.363   0.656  1.00  0.00     0.163 HD
ENDBRANCH  37  47
ENDBRANCH  34  37
ENDBRANCH   1  33
TORSDOF 27
ENDMDL
