MODEL 1
REMARK VINA RESULT:      -6.5      0.000      0.000
REMARK  26 active torsions:
REMARK  status: ('A' for Active; 'I' for Inactive)
REMARK    1  A    between atoms: C_2  and  C_3 
REMARK    2  A    between atoms: C_3  and  C_4 
REMARK    3  A    between atoms: C_4  and  C_5 
REMARK    4  A    between atoms: C_5  and  C_6 
REMARK    5  A    between atoms: C_6  and  C_7 
REMARK    6  A    between atoms: C_7  and  C_8 
REMARK    7  A    between atoms: C_8  and  O_10 
REMARK    8  A    between atoms: O_10  and  C_11 
REMARK    9  A    between atoms: C_11  and  C_12 
REMARK   10  A    between atoms: C_12  and  C_13 
REMARK   11  A    between atoms: C_12  and  O_24 
REMARK   12  A    between atoms: C_13  and  O_14 
REMARK   13  A    between atoms: O_14  and  C_15 
REMARK   14  A    between atoms: C_15  and  C_17 
REMARK   15  A    between atoms: C_17  and  C_18 
REMARK   16  A    between atoms: C_18  and  C_19 
REMARK   17  A    between atoms: C_19  and  C_20 
REMARK   18  A    between atoms: C_20  and  C_21 
REMARK   19  A    between atoms: C_21  and  C_22 
REMARK   20  A    between atoms: O_24  and  C_25 
REMARK   21  A    between atoms: C_25  and  C_27 
REMARK   22  A    between atoms: C_27  and  C_28 
REMARK   23  A    between atoms: C_28  and  C_29 
REMARK   24  A    between atoms: C_29  and  C_30 
REMARK   25  A    between atoms: C_30  and  C_31 
REMARK   26  A    between atoms: C_31  and  C_32 
ROOT
HETATM    1  C   UNL     1     -21.251  -7.473  -3.796  1.00  0.00     0.180 C 
ENDROOT
BRANCH   1   2
HETATM    2  C   UNL     1     -21.177  -6.828  -2.402  1.00  0.00     0.213 C 
BRANCH   2   3
HETATM    3  O   UNL     1     -22.460  -6.840  -1.753  1.00  0.00    -0.319 OA
BRANCH   3   4
HETATM    4  C   UNL     1     -22.481  -7.448  -0.533  1.00  0.00     0.258 C 
HETATM    5  O   UNL     1     -23.417  -7.415   0.245  1.00  0.00    -0.265 OA
BRANCH   4   6
HETATM    6  C   UNL     1     -21.174  -8.150  -0.268  1.00  0.00     0.111 C 
BRANCH   6   7
HETATM    7  C   UNL     1     -21.157  -8.806   1.108  1.00  0.00     0.010 C 
BRANCH   7   8
HETATM    8  C   UNL     1     -20.628 -10.239   1.057  1.00  0.00     0.000 C 
BRANCH   8   9
HETATM    9  C   UNL     1     -21.357 -11.052  -0.009  1.00  0.00     0.000 C 
BRANCH   9  10
HETATM   10  C   UNL     1     -22.046 -12.267   0.608  1.00  0.00    -0.000 C 
BRANCH  10  11
HETATM   11  C   UNL     1     -23.562 -12.177   0.454  1.00  0.00    -0.005 C 
HETATM   12  C   UNL     1     -23.956 -10.969  -0.377  1.00  0.00     0.005 C 
ENDBRANCH  10  11
ENDBRANCH   9  10
ENDBRANCH   8   9
ENDBRANCH   7   8
ENDBRANCH   6   7
ENDBRANCH   4   6
ENDBRANCH   3   4
ENDBRANCH   2   3
ENDBRANCH   1   2
BRANCH   1  13
HETATM   13  C   UNL     1     -21.729  -6.439  -4.826  1.00  0.00     0.213 C 
BRANCH  13  14
HETATM   14  O   UNL     1     -20.660  -5.554  -5.215  1.00  0.00    -0.319 OA
BRANCH  14  15
HETATM   15  C   UNL     1     -20.336  -5.610  -6.536  1.00  0.00     0.258 C 
HETATM   16  O   UNL     1     -19.917  -6.614  -7.103  1.00  0.00    -0.265 OA
BRANCH  15  17
HETATM   17  C   UNL     1     -20.543  -4.271  -7.207  1.00  0.00     0.111 C 
BRANCH  17  18
HETATM   18  C   UNL     1     -21.234  -4.432  -8.560  1.00  0.00     0.010 C 
BRANCH  18  19
HETATM   19  C   UNL     1     -20.232  -4.500  -9.717  1.00  0.00     0.000 C 
BRANCH  19  20
HETATM   20  C   UNL     1     -20.689  -3.645 -10.894  1.00  0.00     0.000 C 
BRANCH  20  21
HETATM   21  C   UNL     1     -22.207  -3.479 -10.886  1.00  0.00    -0.000 C 
BRANCH  21  22
HETATM   22  C   UNL     1     -22.698  -2.832 -12.176  1.00  0.00    -0.005 C 
HETATM   23  C   UNL     1     -24.204  -2.967 -12.316  1.00  0.00     0.005 C 
ENDBRANCH  21  22
ENDBRANCH  20  21
ENDBRANCH  19  20
ENDBRANCH  18  19
ENDBRANCH  17  18
ENDBRANCH  15  17
ENDBRANCH  14  15
ENDBRANCH  13  14
ENDBRANCH   1  13
BRANCH   1  24
HETATM   24  O   UNL     1     -19.919  -7.927  -4.130  1.00  0.00    -0.312 OA
BRANCH  24  25
HETATM   25  C   UNL     1     -19.829  -9.254  -4.441  1.00  0.00     0.259 C 
HETATM   26  O   UNL     1     -20.061  -9.750  -5.535  1.00  0.00    -0.265 OA
BRANCH  25  27
HETATM   27  C   UNL     1     -19.503 -10.074  -3.219  1.00  0.00     0.111 C 
BRANCH  27  28
HETATM   28  C   UNL     1     -18.078 -10.602  -3.253  1.00  0.00     0.010 C 
BRANCH  28  29
HETATM   29  C   UNL     1     -17.064  -9.512  -2.914  1.00  0.00     0.000 C 
BRANCH  29  30
HETATM   30  C   UNL     1     -15.782 -10.111  -2.342  1.00  0.00     0.000 C 
BRANCH  30  31
HETATM   31  C   UNL     1     -15.997 -11.574  -1.966  1.00  0.00    -0.000 C 
BRANCH  31  32
HETATM   32  C   UNL     1     -15.921 -11.771  -0.454  1.00  0.00    -0.005 C 
HETATM   33  C   UNL     1     -17.285 -12.120   0.117  1.00  0.00     0.005 C 
ENDBRANCH  31  32
ENDBRANCH  30  31
ENDBRANCH  29  30
ENDBRANCH  28  29
ENDBRANCH  27  28
ENDBRANCH  25  27
ENDBRANCH  24  25
ENDBRANCH   1  24
TORSDOF 26
ENDMDL
MODEL 2
REMARK VINA RESULT:      -6.5      1.568      9.260
REMARK  26 active torsions:
REMARK  status: ('A' for Active; 'I' for Inactive)
REMARK    1  A    between atoms: C_2  and  C_3 
REMARK    2  A    between atoms: C_3  and  C_4 
REMARK    3  A    between atoms: C_4  and  C_5 
REMARK    4  A    between atoms: C_5  and  C_6 
REMARK    5  A    between atoms: C_6  and  C_7 
REMARK    6  A    between atoms: C_7  and  C_8 
REMARK    7  A    between atoms: C_8  and  O_10 
REMARK    8  A    between atoms: O_10  and  C_11 
REMARK    9  A    between atoms: C_11  and  C_12 
REMARK   10  A    between atoms: C_12  and  C_13 
REMARK   11  A    between atoms: C_12  and  O_24 
REMARK   12  A    between atoms: C_13  and  O_14 
REMARK   13  A    between atoms: O_14  and  C_15 
REMARK   14  A    between atoms: C_15  and  C_17 
REMARK   15  A    between atoms: C_17  and  C_18 
REMARK   16  A    between atoms: C_18  and  C_19 
REMARK   17  A    between atoms: C_19  and  C_20 
REMARK   18  A    between atoms: C_20  and  C_21 
REMARK   19  A    between atoms: C_21  and  C_22 
REMARK   20  A    between atoms: O_24  and  C_25 
REMARK   21  A    between atoms: C_25  and  C_27 
REMARK   22  A    between atoms: C_27  and  C_28 
REMARK   23  A    between atoms: C_28  and  C_29 
REMARK   24  A    between atoms: C_29  and  C_30 
REMARK   25  A    between atoms: C_30  and  C_31 
REMARK   26  A    between atoms: C_31  and  C_32 
ROOT
HETATM    1  C   UNL     1     -21.046  -7.614  -4.847  1.00  0.00     0.180 C 
ENDROOT
BRANCH   1   2
HETATM    2  C   UNL     1     -20.119  -6.931  -5.866  1.00  0.00     0.213 C 
BRANCH   2   3
HETATM    3  O   UNL     1     -20.856  -6.454  -7.004  1.00  0.00    -0.319 OA
BRANCH   3   4
HETATM    4  C   UNL     1     -21.174  -5.129  -6.969  1.00  0.00     0.258 C 
HETATM    5  O   UNL     1     -20.663  -4.309  -6.226  1.00  0.00    -0.265 OA
BRANCH   4   6
HETATM    6  C   UNL     1     -22.264  -4.819  -7.962  1.00  0.00     0.111 C 
BRANCH   6   7
HETATM    7  C   UNL     1     -21.816  -3.776  -8.980  1.00  0.00     0.010 C 
BRANCH   7   8
HETATM    8  C   UNL     1     -20.572  -4.220  -9.751  1.00  0.00     0.000 C 
BRANCH   8   9
HETATM    9  C   UNL     1     -20.778  -4.067 -11.255  1.00  0.00     0.000 C 
BRANCH   9  10
HETATM   10  C   UNL     1     -21.694  -2.885 -11.562  1.00  0.00    -0.000 C 
BRANCH  10  11
HETATM   11  C   UNL     1     -22.711  -3.243 -12.642  1.00  0.00    -0.005 C 
HETATM   12  C   UNL     1     -24.131  -3.047 -12.142  1.00  0.00     0.005 C 
ENDBRANCH  10  11
ENDBRANCH   9  10
ENDBRANCH   8   9
ENDBRANCH   7   8
ENDBRANCH   6   7
ENDBRANCH   4   6
ENDBRANCH   3   4
ENDBRANCH   2   3
ENDBRANCH   1   2
BRANCH   1  13
HETATM   13  C   UNL     1     -20.887  -9.139  -4.936  1.00  0.00     0.213 C 
BRANCH  13  14
HETATM   14  O   UNL     1     -19.528  -9.541  -4.670  1.00  0.00    -0.319 OA
BRANCH  14  15
HETATM   15  C   UNL     1     -19.411 -10.629  -3.861  1.00  0.00     0.258 C 
HETATM   16  O   UNL     1     -19.985 -11.697  -4.051  1.00  0.00    -0.265 OA
BRANCH  15  17
HETATM   17  C   UNL     1     -18.498 -10.344  -2.691  1.00  0.00     0.111 C 
BRANCH  17  18
HETATM   18  C   UNL     1     -17.355  -9.414  -3.094  1.00  0.00     0.010 C 
BRANCH  18  19
HETATM   19  C   UNL     1     -15.987  -9.969  -2.688  1.00  0.00     0.000 C 
BRANCH  19  20
HETATM   20  C   UNL     1     -15.746 -11.346  -3.299  1.00  0.00     0.000 C 
BRANCH  20  21
HETATM   21  C   UNL     1     -15.470 -11.232  -4.796  1.00  0.00    -0.000 C 
BRANCH  21  22
HETATM   22  C   UNL     1     -14.119 -11.842  -5.156  1.00  0.00    -0.005 C 
HETATM   23  C   UNL     1     -13.565 -12.660  -4.003  1.00  0.00     0.005 C 
ENDBRANCH  21  22
ENDBRANCH  20  21
ENDBRANCH  19  20
ENDBRANCH  18  19
ENDBRANCH  17  18
ENDBRANCH  15  17
ENDBRANCH  14  15
ENDBRANCH  13  14
ENDBRANCH   1  13
BRANCH   1  24
HETATM   24  O   UNL     1     -20.656  -7.150  -3.533  1.00  0.00    -0.312 OA
BRANCH  24  25
HETATM   25  C   UNL     1     -21.696  -6.878  -2.691  1.00  0.00     0.259 C 
HETATM   26  O   UNL     1     -22.494  -5.959  -2.814  1.00  0.00    -0.265 OA
BRANCH  25  27
HETATM   27  C   UNL     1     -21.685  -7.804  -1.502  1.00  0.00     0.111 C 
BRANCH  27  28
HETATM   28  C   UNL     1     -22.474  -7.237  -0.334  1.00  0.00     0.010 C 
BRANCH  28  29
HETATM   29  C   UNL     1     -23.201  -8.333   0.442  1.00  0.00     0.000 C 
BRANCH  29  30
HETATM   30  C   UNL     1     -22.812  -9.718  -0.066  1.00  0.00     0.000 C 
BRANCH  30  31
HETATM   31  C   UNL     1     -23.993 -10.679   0.041  1.00  0.00    -0.000 C 
BRANCH  31  32
HETATM   32  C   UNL     1     -24.114 -11.544  -1.210  1.00  0.00    -0.005 C 
HETATM   33  C   UNL     1     -22.992 -11.242  -2.189  1.00  0.00     0.005 C 
ENDBRANCH  31  32
ENDBRANCH  30  31
ENDBRANCH  29  30
ENDBRANCH  28  29
ENDBRANCH  27  28
ENDBRANCH  25  27
ENDBRANCH  24  25
ENDBRANCH   1  24
TORSDOF 26
ENDMDL
MODEL 3
REMARK VINA RESULT:      -6.5      1.424      8.585
REMARK  26 active torsions:
REMARK  status: ('A' for Active; 'I' for Inactive)
REMARK    1  A    between atoms: C_2  and  C_3 
REMARK    2  A    between atoms: C_3  and  C_4 
REMARK    3  A    between atoms: C_4  and  C_5 
REMARK    4  A    between atoms: C_5  and  C_6 
REMARK    5  A    between atoms: C_6  and  C_7 
REMARK    6  A    between atoms: C_7  and  C_8 
REMARK    7  A    between atoms: C_8  and  O_10 
REMARK    8  A    between atoms: O_10  and  C_11 
REMARK    9  A    between atoms: C_11  and  C_12 
REMARK   10  A    between atoms: C_12  and  C_13 
REMARK   11  A    between atoms: C_12  and  O_24 
REMARK   12  A    between atoms: C_13  and  O_14 
REMARK   13  A    between atoms: O_14  and  C_15 
REMARK   14  A    between atoms: C_15  and  C_17 
REMARK   15  A    between atoms: C_17  and  C_18 
REMARK   16  A    between atoms: C_18  and  C_19 
REMARK   17  A    between atoms: C_19  and  C_20 
REMARK   18  A    between atoms: C_20  and  C_21 
REMARK   19  A    between atoms: C_21  and  C_22 
REMARK   20  A    between atoms: O_24  and  C_25 
REMARK   21  A    between atoms: C_25  and  C_27 
REMARK   22  A    between atoms: C_27  and  C_28 
REMARK   23  A    between atoms: C_28  and  C_29 
REMARK   24  A    between atoms: C_29  and  C_30 
REMARK   25  A    between atoms: C_30  and  C_31 
REMARK   26  A    between atoms: C_31  and  C_32 
ROOT
HETATM    1  C   UNL     1     -21.490  -8.343  -4.880  1.00  0.00     0.180 C 
ENDROOT
BRANCH   1   2
HETATM    2  C   UNL     1     -21.059  -9.801  -5.107  1.00  0.00     0.213 C 
BRANCH   2   3
HETATM    3  O   UNL     1     -19.932  -9.879  -5.995  1.00  0.00    -0.319 OA
BRANCH   3   4
HETATM    4  C   UNL     1     -18.873 -10.593  -5.520  1.00  0.00     0.258 C 
HETATM    5  O   UNL     1     -18.897 -11.782  -5.255  1.00  0.00    -0.265 OA
BRANCH   4   6
HETATM    6  C   UNL     1     -17.670  -9.703  -5.345  1.00  0.00     0.111 C 
BRANCH   6   7
HETATM    7  C   UNL     1     -16.531 -10.430  -4.639  1.00  0.00     0.010 C 
BRANCH   7   8
HETATM    8  C   UNL     1     -15.948  -9.609  -3.488  1.00  0.00     0.000 C 
BRANCH   8   9
HETATM    9  C   UNL     1     -16.046 -10.372  -2.170  1.00  0.00     0.000 C 
BRANCH   9  10
HETATM   10  C   UNL     1     -16.894 -11.631  -2.330  1.00  0.00    -0.000 C 
BRANCH  10  11
HETATM   11  C   UNL     1     -18.059 -11.640  -1.345  1.00  0.00    -0.005 C 
HETATM   12  C   UNL     1     -19.182 -10.734  -1.818  1.00  0.00     0.005 C 
ENDBRANCH  10  11
ENDBRANCH   9  10
ENDBRANCH   8   9
ENDBRANCH   7   8
ENDBRANCH   6   7
ENDBRANCH   4   6
ENDBRANCH   3   4
ENDBRANCH   2   3
ENDBRANCH   1   2
BRANCH   1  13
HETATM   13  C   UNL     1     -20.721  -7.749  -3.691  1.00  0.00     0.213 C 
BRANCH  13  14
HETATM   14  O   UNL     1     -21.386  -8.028  -2.443  1.00  0.00    -0.319 OA
BRANCH  14  15
HETATM   15  C   UNL     1     -21.958  -6.941  -1.856  1.00  0.00     0.258 C 
HETATM   16  O   UNL     1     -22.086  -5.849  -2.399  1.00  0.00    -0.265 OA
BRANCH  15  17
HETATM   17  C   UNL     1     -22.397  -7.251  -0.443  1.00  0.00     0.111 C 
BRANCH  17  18
HETATM   18  C   UNL     1     -21.424  -8.209   0.242  1.00  0.00     0.010 C 
BRANCH  18  19
HETATM   19  C   UNL     1     -22.077  -9.552   0.582  1.00  0.00     0.000 C 
BRANCH  19  20
HETATM   20  C   UNL     1     -23.547  -9.570   0.172  1.00  0.00     0.000 C 
BRANCH  20  21
HETATM   21  C   UNL     1     -24.001 -10.992  -0.149  1.00  0.00    -0.000 C 
BRANCH  21  22
HETATM   22  C   UNL     1     -22.988 -11.707  -1.038  1.00  0.00    -0.005 C 
HETATM   23  C   UNL     1     -23.060 -11.198  -2.466  1.00  0.00     0.005 C 
ENDBRANCH  21  22
ENDBRANCH  20  21
ENDBRANCH  19  20
ENDBRANCH  18  19
ENDBRANCH  17  18
ENDBRANCH  15  17
ENDBRANCH  14  15
ENDBRANCH  13  14
ENDBRANCH   1  13
BRANCH   1  24
HETATM   24  O   UNL     1     -21.179  -7.610  -6.088  1.00  0.00    -0.312 OA
BRANCH  24  25
HETATM   25  C   UNL     1     -21.374  -6.261  -6.004  1.00  0.00     0.259 C 
HETATM   26  O   UNL     1     -22.427  -5.707  -5.719  1.00  0.00    -0.265 OA
BRANCH  25  27
HETATM   27  C   UNL     1     -20.135  -5.509  -6.417  1.00  0.00     0.111 C 
BRANCH  27  28
HETATM   28  C   UNL     1     -20.467  -4.155  -7.021  1.00  0.00     0.010 C 
BRANCH  28  29
HETATM   29  C   UNL     1     -19.928  -4.022  -8.443  1.00  0.00     0.000 C 
BRANCH  29  30
HETATM   30  C   UNL     1     -20.952  -4.502  -9.467  1.00  0.00     0.000 C 
BRANCH  30  31
HETATM   31  C   UNL     1     -20.520  -4.114 -10.879  1.00  0.00    -0.000 C 
BRANCH  31  32
HETATM   32  C   UNL     1     -21.494  -3.117 -11.498  1.00  0.00    -0.005 C 
HETATM   33  C   UNL     1     -22.921  -3.414 -11.069  1.00  0.00     0.005 C 
ENDBRANCH  31  32
ENDBRANCH  30  31
ENDBRANCH  29  30
ENDBRANCH  28  29
ENDBRANCH  27  28
ENDBRANCH  25  27
ENDBRANCH  24  25
ENDBRANCH   1  24
TORSDOF 26
ENDMDL
MODEL 4
REMARK VINA RESULT:      -6.4     14.712     18.396
REMARK  26 active torsions:
REMARK  status: ('A' for Active; 'I' for Inactive)
REMARK    1  A    between atoms: C_2  and  C_3 
REMARK    2  A    between atoms: C_3  and  C_4 
REMARK    3  A    between atoms: C_4  and  C_5 
REMARK    4  A    between atoms: C_5  and  C_6 
REMARK    5  A    between atoms: C_6  and  C_7 
REMARK    6  A    between atoms: C_7  and  C_8 
REMARK    7  A    between atoms: C_8  and  O_10 
REMARK    8  A    between atoms: O_10  and  C_11 
REMARK    9  A    between atoms: C_11  and  C_12 
REMARK   10  A    between atoms: C_12  and  C_13 
REMARK   11  A    between atoms: C_12  and  O_24 
REMARK   12  A    between atoms: C_13  and  O_14 
REMARK   13  A    between atoms: O_14  and  C_15 
REMARK   14  A    between atoms: C_15  and  C_17 
REMARK   15  A    between atoms: C_17  and  C_18 
REMARK   16  A    between atoms: C_18  and  C_19 
REMARK   17  A    between atoms: C_19  and  C_20 
REMARK   18  A    between atoms: C_20  and  C_21 
REMARK   19  A    between atoms: C_21  and  C_22 
REMARK   20  A    between atoms: O_24  and  C_25 
REMARK   21  A    between atoms: C_25  and  C_27 
REMARK   22  A    between atoms: C_27  and  C_28 
REMARK   23  A    between atoms: C_28  and  C_29 
REMARK   24  A    between atoms: C_29  and  C_30 
REMARK   25  A    between atoms: C_30  and  C_31 
REMARK   26  A    between atoms: C_31  and  C_32 
ROOT
HETATM    1  C   UNL     1     -34.896  -2.859 -16.138  1.00  0.00     0.180 C 
ENDROOT
BRANCH   1   2
HETATM    2  C   UNL     1     -35.462  -1.470 -16.476  1.00  0.00     0.213 C 
BRANCH   2   3
HETATM    3  O   UNL     1     -36.764  -1.282 -15.895  1.00  0.00    -0.319 OA
BRANCH   3   4
HETATM    4  C   UNL     1     -37.022  -0.016 -15.461  1.00  0.00     0.258 C 
HETATM    5  O   UNL     1     -36.926   0.988 -16.145  1.00  0.00    -0.265 OA
BRANCH   4   6
HETATM    6  C   UNL     1     -37.424  -0.026 -14.009  1.00  0.00     0.111 C 
BRANCH   6   7
HETATM    7  C   UNL     1     -36.209   0.037 -13.090  1.00  0.00     0.010 C 
BRANCH   7   8
HETATM    8  C   UNL     1     -36.329  -0.926 -11.908  1.00  0.00     0.000 C 
BRANCH   8   9
HETATM    9  C   UNL     1     -37.163  -0.312 -10.787  1.00  0.00     0.000 C 
BRANCH   9  10
HETATM   10  C   UNL     1     -36.605  -0.698  -9.420  1.00  0.00    -0.000 C 
BRANCH  10  11
HETATM   11  C   UNL     1     -37.466  -0.131  -8.294  1.00  0.00    -0.005 C 
HETATM   12  C   UNL     1     -36.782   1.046  -7.622  1.00  0.00     0.005 C 
ENDBRANCH  10  11
ENDBRANCH   9  10
ENDBRANCH   8   9
ENDBRANCH   7   8
ENDBRANCH   6   7
ENDBRANCH   4   6
ENDBRANCH   3   4
ENDBRANCH   2   3
ENDBRANCH   1   2
BRANCH   1  13
HETATM   13  C   UNL     1     -33.727  -3.189 -17.077  1.00  0.00     0.213 C 
BRANCH  13  14
HETATM   14  O   UNL     1     -32.843  -4.165 -16.491  1.00  0.00    -0.319 OA
BRANCH  14  15
HETATM   15  C   UNL     1     -31.599  -4.201 -17.044  1.00  0.00     0.258 C 
HETATM   16  O   UNL     1     -31.189  -3.400 -17.878  1.00  0.00    -0.265 OA
BRANCH  15  17
HETATM   17  C   UNL     1     -30.796  -5.364 -16.508  1.00  0.00     0.111 C 
BRANCH  17  18
HETATM   18  C   UNL     1     -30.946  -6.597 -17.399  1.00  0.00     0.010 C 
BRANCH  18  19
HETATM   19  C   UNL     1     -29.593  -7.200 -17.785  1.00  0.00     0.000 C 
BRANCH  19  20
HETATM   20  C   UNL     1     -28.694  -6.160 -18.447  1.00  0.00     0.000 C 
BRANCH  20  21
HETATM   21  C   UNL     1     -27.278  -6.229 -17.880  1.00  0.00    -0.000 C 
BRANCH  21  22
HETATM   22  C   UNL     1     -27.292  -6.645 -16.413  1.00  0.00    -0.005 C 
HETATM   23  C   UNL     1     -25.881  -6.758 -15.864  1.00  0.00     0.005 C 
ENDBRANCH  21  22
ENDBRANCH  20  21
ENDBRANCH  19  20
ENDBRANCH  18  19
ENDBRANCH  17  18
ENDBRANCH  15  17
ENDBRANCH  14  15
ENDBRANCH  13  14
ENDBRANCH   1  13
BRANCH   1  24
HETATM   24  O   UNL     1     -34.433  -2.813 -14.768  1.00  0.00    -0.312 OA
BRANCH  24  25
HETATM   25  C   UNL     1     -34.352  -4.029 -14.151  1.00  0.00     0.259 C 
HETATM   26  O   UNL     1     -35.091  -4.983 -14.351  1.00  0.00    -0.265 OA
BRANCH  25  27
HETATM   27  C   UNL     1     -33.282  -4.026 -13.090  1.00  0.00     0.111 C 
BRANCH  27  28
HETATM   28  C   UNL     1     -33.701  -3.233 -11.863  1.00  0.00     0.010 C 
BRANCH  28  29
HETATM   29  C   UNL     1     -33.967  -4.144 -10.666  1.00  0.00     0.000 C 
BRANCH  29  30
HETATM   30  C   UNL     1     -33.561  -5.583 -10.967  1.00  0.00     0.000 C 
BRANCH  30  31
HETATM   31  C   UNL     1     -34.780  -6.500 -10.944  1.00  0.00    -0.000 C 
BRANCH  31  32
HETATM   32  C   UNL     1     -34.816  -7.337  -9.669  1.00  0.00    -0.005 C 
HETATM   33  C   UNL     1     -33.999  -8.608  -9.831  1.00  0.00     0.005 C 
ENDBRANCH  31  32
ENDBRANCH  30  31
ENDBRANCH  29  30
ENDBRANCH  28  29
ENDBRANCH  27  28
ENDBRANCH  25  27
ENDBRANCH  24  25
ENDBRANCH   1  24
TORSDOF 26
ENDMDL
MODEL 5
REMARK VINA RESULT:      -6.4      1.580      5.133
REMARK  26 active torsions:
REMARK  status: ('A' for Active; 'I' for Inactive)
REMARK    1  A    between atoms: C_2  and  C_3 
REMARK    2  A    between atoms: C_3  and  C_4 
REMARK    3  A    between atoms: C_4  and  C_5 
REMARK    4  A    between atoms: C_5  and  C_6 
REMARK    5  A    between atoms: C_6  and  C_7 
REMARK    6  A    between atoms: C_7  and  C_8 
REMARK    7  A    between atoms: C_8  and  O_10 
REMARK    8  A    between atoms: O_10  and  C_11 
REMARK    9  A    between atoms: C_11  and  C_12 
REMARK   10  A    between atoms: C_12  and  C_13 
REMARK   11  A    between atoms: C_12  and  O_24 
REMARK   12  A    between atoms: C_13  and  O_14 
REMARK   13  A    between atoms: O_14  and  C_15 
REMARK   14  A    between atoms: C_15  and  C_17 
REMARK   15  A    between atoms: C_17  and  C_18 
REMARK   16  A    between atoms: C_18  and  C_19 
REMARK   17  A    between atoms: C_19  and  C_20 
REMARK   18  A    between atoms: C_20  and  C_21 
REMARK   19  A    between atoms: C_21  and  C_22 
REMARK   20  A    between atoms: O_24  and  C_25 
REMARK   21  A    between atoms: C_25  and  C_27 
REMARK   22  A    between atoms: C_27  and  C_28 
REMARK   23  A    between atoms: C_28  and  C_29 
REMARK   24  A    between atoms: C_29  and  C_30 
REMARK   25  A    between atoms: C_30  and  C_31 
REMARK   26  A    between atoms: C_31  and  C_32 
ROOT
HETATM    1  C   UNL     1     -20.807  -6.961  -4.707  1.00  0.00     0.180 C 
ENDROOT
BRANCH   1   2
HETATM    2  C   UNL     1     -20.155  -8.310  -5.050  1.00  0.00     0.213 C 
BRANCH   2   3
HETATM    3  O   UNL     1     -19.290  -8.756  -3.992  1.00  0.00    -0.319 OA
BRANCH   3   4
HETATM    4  C   UNL     1     -19.559 -10.004  -3.516  1.00  0.00     0.258 C 
HETATM    5  O   UNL     1     -20.320 -10.800  -4.038  1.00  0.00    -0.265 OA
BRANCH   4   6
HETATM    6  C   UNL     1     -18.800 -10.259  -2.239  1.00  0.00     0.111 C 
BRANCH   6   7
HETATM    7  C   UNL     1     -17.673 -11.265  -2.447  1.00  0.00     0.010 C 
BRANCH   7   8
HETATM    8  C   UNL     1     -16.294 -10.636  -2.250  1.00  0.00     0.000 C 
BRANCH   8   9
HETATM    9  C   UNL     1     -16.011  -9.594  -3.328  1.00  0.00     0.000 C 
BRANCH   9  10
HETATM   10  C   UNL     1     -15.563 -10.261  -4.626  1.00  0.00    -0.000 C 
BRANCH  10  11
HETATM   11  C   UNL     1     -16.506  -9.917  -5.776  1.00  0.00    -0.005 C 
HETATM   12  C   UNL     1     -17.327 -11.125  -6.189  1.00  0.00     0.005 C 
ENDBRANCH  10  11
ENDBRANCH   9  10
ENDBRANCH   8   9
ENDBRANCH   7   8
ENDBRANCH   6   7
ENDBRANCH   4   6
ENDBRANCH   3   4
ENDBRANCH   2   3
ENDBRANCH   1   2
BRANCH   1  13
HETATM   13  C   UNL     1     -21.294  -6.274  -5.991  1.00  0.00     0.213 C 
BRANCH  13  14
HETATM   14  O   UNL     1     -20.371  -6.481  -7.079  1.00  0.00    -0.319 OA
BRANCH  14  15
HETATM   15  C   UNL     1     -19.974  -5.339  -7.705  1.00  0.00     0.258 C 
HETATM   16  O   UNL     1     -19.011  -4.661  -7.362  1.00  0.00    -0.265 OA
BRANCH  15  17
HETATM   17  C   UNL     1     -20.885  -5.006  -8.865  1.00  0.00     0.111 C 
BRANCH  17  18
HETATM   18  C   UNL     1     -20.550  -3.638  -9.457  1.00  0.00     0.010 C 
BRANCH  18  19
HETATM   19  C   UNL     1     -20.493  -3.668 -10.986  1.00  0.00     0.000 C 
BRANCH  19  20
HETATM   20  C   UNL     1     -21.742  -4.319 -11.573  1.00  0.00     0.000 C 
BRANCH  20  21
HETATM   21  C   UNL     1     -22.931  -3.364 -11.507  1.00  0.00    -0.000 C 
BRANCH  21  22
HETATM   22  C   UNL     1     -24.139  -4.032 -10.857  1.00  0.00    -0.005 C 
HETATM   23  C   UNL     1     -24.531  -3.322  -9.574  1.00  0.00     0.005 C 
ENDBRANCH  21  22
ENDBRANCH  20  21
ENDBRANCH  19  20
ENDBRANCH  18  19
ENDBRANCH  17  18
ENDBRANCH  15  17
ENDBRANCH  14  15
ENDBRANCH  13  14
ENDBRANCH   1  13
BRANCH   1  24
HETATM   24  O   UNL     1     -21.930  -7.236  -3.836  1.00  0.00    -0.312 OA
BRANCH  24  25
HETATM   25  C   UNL     1     -21.845  -6.664  -2.598  1.00  0.00     0.259 C 
HETATM   26  O   UNL     1     -21.784  -5.464  -2.368  1.00  0.00    -0.265 OA
BRANCH  25  27
HETATM   27  C   UNL     1     -21.727  -7.715  -1.525  1.00  0.00     0.111 C 
BRANCH  27  28
HETATM   28  C   UNL     1     -22.378  -7.273  -0.224  1.00  0.00     0.010 C 
BRANCH  28  29
HETATM   29  C   UNL     1     -23.199  -8.396   0.407  1.00  0.00     0.000 C 
BRANCH  29  30
HETATM   30  C   UNL     1     -22.903  -9.736  -0.260  1.00  0.00     0.000 C 
BRANCH  30  31
HETATM   31  C   UNL     1     -24.030 -10.729   0.008  1.00  0.00    -0.000 C 
BRANCH  31  32
HETATM   32  C   UNL     1     -24.144 -11.751  -1.118  1.00  0.00    -0.005 C 
HETATM   33  C   UNL     1     -22.804 -11.956  -1.803  1.00  0.00     0.005 C 
ENDBRANCH  31  32
ENDBRANCH  30  31
ENDBRANCH  29  30
ENDBRANCH  28  29
ENDBRANCH  27  28
ENDBRANCH  25  27
ENDBRANCH  24  25
ENDBRANCH   1  24
TORSDOF 26
ENDMDL
MODEL 6
REMARK VINA RESULT:      -6.4      1.425      2.243
REMARK  26 active torsions:
REMARK  status: ('A' for Active; 'I' for Inactive)
REMARK    1  A    between atoms: C_2  and  C_3 
REMARK    2  A    between atoms: C_3  and  C_4 
REMARK    3  A    between atoms: C_4  and  C_5 
REMARK    4  A    between atoms: C_5  and  C_6 
REMARK    5  A    between atoms: C_6  and  C_7 
REMARK    6  A    between atoms: C_7  and  C_8 
REMARK    7  A    between atoms: C_8  and  O_10 
REMARK    8  A    between atoms: O_10  and  C_11 
REMARK    9  A    between atoms: C_11  and  C_12 
REMARK   10  A    between atoms: C_12  and  C_13 
REMARK   11  A    between atoms: C_12  and  O_24 
REMARK   12  A    between atoms: C_13  and  O_14 
REMARK   13  A    between atoms: O_14  and  C_15 
REMARK   14  A    between atoms: C_15  and  C_17 
REMARK   15  A    between atoms: C_17  and  C_18 
REMARK   16  A    between atoms: C_18  and  C_19 
REMARK   17  A    between atoms: C_19  and  C_20 
REMARK   18  A    between atoms: C_20  and  C_21 
REMARK   19  A    between atoms: C_21  and  C_22 
REMARK   20  A    between atoms: O_24  and  C_25 
REMARK   21  A    between atoms: C_25  and  C_27 
REMARK   22  A    between atoms: C_27  and  C_28 
REMARK   23  A    between atoms: C_28  and  C_29 
REMARK   24  A    between atoms: C_29  and  C_30 
REMARK   25  A    between atoms: C_30  and  C_31 
REMARK   26  A    between atoms: C_31  and  C_32 
ROOT
HETATM    1  C   UNL     1     -20.607  -7.471  -5.713  1.00  0.00     0.180 C 
ENDROOT
BRANCH   1   2
HETATM    2  C   UNL     1     -21.645  -7.005  -4.680  1.00  0.00     0.213 C 
BRANCH   2   3
HETATM    3  O   UNL     1     -21.009  -6.468  -3.508  1.00  0.00    -0.319 OA
BRANCH   3   4
HETATM    4  C   UNL     1     -21.733  -6.580  -2.358  1.00  0.00     0.258 C 
HETATM    5  O   UNL     1     -22.672  -5.865  -2.054  1.00  0.00    -0.265 OA
BRANCH   4   6
HETATM    6  C   UNL     1     -21.198  -7.699  -1.502  1.00  0.00     0.111 C 
BRANCH   6   7
HETATM    7  C   UNL     1     -21.985  -7.839  -0.204  1.00  0.00     0.010 C 
BRANCH   7   8
HETATM    8  C   UNL     1     -21.275  -8.740   0.806  1.00  0.00     0.000 C 
BRANCH   8   9
HETATM    9  C   UNL     1     -21.137 -10.161   0.268  1.00  0.00     0.000 C 
BRANCH   9  10
HETATM   10  C   UNL     1     -22.508 -10.779   0.003  1.00  0.00    -0.000 C 
BRANCH  10  11
HETATM   11  C   UNL     1     -22.454 -11.757  -1.167  1.00  0.00    -0.005 C 
HETATM   12  C   UNL     1     -23.072 -11.152  -2.415  1.00  0.00     0.005 C 
ENDBRANCH  10  11
ENDBRANCH   9  10
ENDBRANCH   8   9
ENDBRANCH   7   8
ENDBRANCH   6   7
ENDBRANCH   4   6
ENDBRANCH   3   4
ENDBRANCH   2   3
ENDBRANCH   1   2
BRANCH   1  13
HETATM   13  C   UNL     1     -20.086  -6.267  -6.511  1.00  0.00     0.213 C 
BRANCH  13  14
HETATM   14  O   UNL     1     -21.151  -5.609  -7.224  1.00  0.00    -0.319 OA
BRANCH  14  15
HETATM   15  C   UNL     1     -20.880  -4.323  -7.579  1.00  0.00     0.258 C 
HETATM   16  O   UNL     1     -21.477  -3.344  -7.144  1.00  0.00    -0.265 OA
BRANCH  15  17
HETATM   17  C   UNL     1     -19.759  -4.260  -8.592  1.00  0.00     0.111 C 
BRANCH  17  18
HETATM   18  C   UNL     1     -20.229  -4.733  -9.967  1.00  0.00     0.010 C 
BRANCH  18  19
HETATM   19  C   UNL     1     -20.519  -3.565 -10.913  1.00  0.00     0.000 C 
BRANCH  19  20
HETATM   20  C   UNL     1     -21.862  -3.742 -11.614  1.00  0.00     0.000 C 
BRANCH  20  21
HETATM   21  C   UNL     1     -22.976  -3.981 -10.597  1.00  0.00    -0.000 C 
BRANCH  21  22
HETATM   22  C   UNL     1     -24.299  -3.399 -11.082  1.00  0.00    -0.005 C 
HETATM   23  C   UNL     1     -24.193  -2.925 -12.520  1.00  0.00     0.005 C 
ENDBRANCH  21  22
ENDBRANCH  20  21
ENDBRANCH  19  20
ENDBRANCH  18  19
ENDBRANCH  17  18
ENDBRANCH  15  17
ENDBRANCH  14  15
ENDBRANCH  13  14
ENDBRANCH   1  13
BRANCH   1  24
HETATM   24  O   UNL     1     -19.522  -8.090  -4.983  1.00  0.00    -0.312 OA
BRANCH  24  25
HETATM   25  C   UNL     1     -19.475  -9.452  -5.074  1.00  0.00     0.259 C 
HETATM   26  O   UNL     1     -19.360 -10.095  -6.108  1.00  0.00    -0.265 OA
BRANCH  25  27
HETATM   27  C   UNL     1     -19.693 -10.091  -3.727  1.00  0.00     0.111 C 
BRANCH  27  28
HETATM   28  C   UNL     1     -18.386 -10.537  -3.092  1.00  0.00     0.010 C 
BRANCH  28  29
HETATM   29  C   UNL     1     -17.593  -9.354  -2.540  1.00  0.00     0.000 C 
BRANCH  29  30
HETATM   30  C   UNL     1     -16.107  -9.491  -2.857  1.00  0.00     0.000 C 
BRANCH  30  31
HETATM   31  C   UNL     1     -15.868 -10.660  -3.808  1.00  0.00    -0.000 C 
BRANCH  31  32
HETATM   32  C   UNL     1     -15.583 -10.169  -5.224  1.00  0.00    -0.005 C 
HETATM   33  C   UNL     1     -15.997 -11.208  -6.252  1.00  0.00     0.005 C 
ENDBRANCH  31  32
ENDBRANCH  30  31
ENDBRANCH  29  30
ENDBRANCH  28  29
ENDBRANCH  27  28
ENDBRANCH  25  27
ENDBRANCH  24  25
ENDBRANCH   1  24
TORSDOF 26
ENDMDL
MODEL 7
REMARK VINA RESULT:      -6.3      1.540      9.223
REMARK  26 active torsions:
REMARK  status: ('A' for Active; 'I' for Inactive)
REMARK    1  A    between atoms: C_2  and  C_3 
REMARK    2  A    between atoms: C_3  and  C_4 
REMARK    3  A    between atoms: C_4  and  C_5 
REMARK    4  A    between atoms: C_5  and  C_6 
REMARK    5  A    between atoms: C_6  and  C_7 
REMARK    6  A    between atoms: C_7  and  C_8 
REMARK    7  A    between atoms: C_8  and  O_10 
REMARK    8  A    between atoms: O_10  and  C_11 
REMARK    9  A    between atoms: C_11  and  C_12 
REMARK   10  A    between atoms: C_12  and  C_13 
REMARK   11  A    between atoms: C_12  and  O_24 
REMARK   12  A    between atoms: C_13  and  O_14 
REMARK   13  A    between atoms: O_14  and  C_15 
REMARK   14  A    between atoms: C_15  and  C_17 
REMARK   15  A    between atoms: C_17  and  C_18 
REMARK   16  A    between atoms: C_18  and  C_19 
REMARK   17  A    between atoms: C_19  and  C_20 
REMARK   18  A    between atoms: C_20  and  C_21 
REMARK   19  A    between atoms: C_21  and  C_22 
REMARK   20  A    between atoms: O_24  and  C_25 
REMARK   21  A    between atoms: C_25  and  C_27 
REMARK   22  A    between atoms: C_27  and  C_28 
REMARK   23  A    between atoms: C_28  and  C_29 
REMARK   24  A    between atoms: C_29  and  C_30 
REMARK   25  A    between atoms: C_30  and  C_31 
REMARK   26  A    between atoms: C_31  and  C_32 
ROOT
HETATM    1  C   UNL     1     -20.781  -6.511  -5.750  1.00  0.00     0.180 C 
ENDROOT
BRANCH   1   2
HETATM    2  C   UNL     1     -19.827  -7.671  -5.422  1.00  0.00     0.213 C 
BRANCH   2   3
HETATM    3  O   UNL     1     -20.395  -8.936  -5.801  1.00  0.00    -0.319 OA
BRANCH   3   4
HETATM    4  C   UNL     1     -19.725 -10.029  -5.338  1.00  0.00     0.258 C 
HETATM    5  O   UNL     1     -19.064 -10.785  -6.028  1.00  0.00    -0.265 OA
BRANCH   4   6
HETATM    6  C   UNL     1     -19.931 -10.187  -3.853  1.00  0.00     0.111 C 
BRANCH   6   7
HETATM    7  C   UNL     1     -18.634 -10.558  -3.143  1.00  0.00     0.010 C 
BRANCH   7   8
HETATM    8  C   UNL     1     -17.696  -9.360  -2.991  1.00  0.00     0.000 C 
BRANCH   8   9
HETATM    9  C   UNL     1     -16.244  -9.773  -3.213  1.00  0.00     0.000 C 
BRANCH   9  10
HETATM   10  C   UNL     1     -15.912  -9.821  -4.702  1.00  0.00    -0.000 C 
BRANCH  10  11
HETATM   11  C   UNL     1     -15.116 -11.076  -5.049  1.00  0.00    -0.005 C 
HETATM   12  C   UNL     1     -15.956 -12.326  -4.857  1.00  0.00     0.005 C 
ENDBRANCH  10  11
ENDBRANCH   9  10
ENDBRANCH   8   9
ENDBRANCH   7   8
ENDBRANCH   6   7
ENDBRANCH   4   6
ENDBRANCH   3   4
ENDBRANCH   2   3
ENDBRANCH   1   2
BRANCH   1  13
HETATM   13  C   UNL     1     -21.486  -6.037  -4.471  1.00  0.00     0.213 C 
BRANCH  13  14
HETATM   14  O   UNL     1     -21.682  -7.124  -3.546  1.00  0.00    -0.319 OA
BRANCH  14  15
HETATM   15  C   UNL     1     -21.819  -6.740  -2.247  1.00  0.00     0.258 C 
HETATM   16  O   UNL     1     -22.217  -5.636  -1.890  1.00  0.00    -0.265 OA
BRANCH  15  17
HETATM   17  C   UNL     1     -21.401  -7.845  -1.303  1.00  0.00     0.111 C 
BRANCH  17  18
HETATM   18  C   UNL     1     -22.080  -7.697   0.057  1.00  0.00     0.010 C 
BRANCH  18  19
HETATM   19  C   UNL     1     -23.103  -8.807   0.316  1.00  0.00     0.000 C 
BRANCH  19  20
HETATM   20  C   UNL     1     -22.974  -9.927  -0.712  1.00  0.00     0.000 C 
BRANCH  20  21
HETATM   21  C   UNL     1     -23.974 -11.044  -0.423  1.00  0.00    -0.000 C 
BRANCH  21  22
HETATM   22  C   UNL     1     -23.336 -12.155   0.404  1.00  0.00    -0.005 C 
HETATM   23  C   UNL     1     -21.872 -12.332   0.043  1.00  0.00     0.005 C 
ENDBRANCH  21  22
ENDBRANCH  20  21
ENDBRANCH  19  20
ENDBRANCH  18  19
ENDBRANCH  17  18
ENDBRANCH  15  17
ENDBRANCH  14  15
ENDBRANCH  13  14
ENDBRANCH   1  13
BRANCH   1  24
HETATM   24  O   UNL     1     -19.980  -5.439  -6.301  1.00  0.00    -0.312 OA
BRANCH  24  25
HETATM   25  C   UNL     1     -20.662  -4.573  -7.107  1.00  0.00     0.259 C 
HETATM   26  O   UNL     1     -21.273  -3.580  -6.736  1.00  0.00    -0.265 OA
BRANCH  25  27
HETATM   27  C   UNL     1     -20.664  -5.053  -8.536  1.00  0.00     0.111 C 
BRANCH  27  28
HETATM   28  C   UNL     1     -20.383  -3.925  -9.514  1.00  0.00     0.010 C 
BRANCH  28  29
HETATM   29  C   UNL     1     -20.421  -4.410 -10.962  1.00  0.00     0.000 C 
BRANCH  29  30
HETATM   30  C   UNL     1     -21.853  -4.477 -11.483  1.00  0.00     0.000 C 
BRANCH  30  31
HETATM   31  C   UNL     1     -22.566  -3.147 -11.260  1.00  0.00    -0.000 C 
BRANCH  31  32
HETATM   32  C   UNL     1     -24.071  -3.348 -11.104  1.00  0.00    -0.005 C 
HETATM   33  C   UNL     1     -24.469  -3.350  -9.638  1.00  0.00     0.005 C 
ENDBRANCH  31  32
ENDBRANCH  30  31
ENDBRANCH  29  30
ENDBRANCH  28  29
ENDBRANCH  27  28
ENDBRANCH  25  27
ENDBRANCH  24  25
ENDBRANCH   1  24
TORSDOF 26
ENDMDL
MODEL 8
REMARK VINA RESULT:      -6.3      1.367      8.261
REMARK  26 active torsions:
REMARK  status: ('A' for Active; 'I' for Inactive)
REMARK    1  A    between atoms: C_2  and  C_3 
REMARK    2  A    between atoms: C_3  and  C_4 
REMARK    3  A    between atoms: C_4  and  C_5 
REMARK    4  A    between atoms: C_5  and  C_6 
REMARK    5  A    between atoms: C_6  and  C_7 
REMARK    6  A    between atoms: C_7  and  C_8 
REMARK    7  A    between atoms: C_8  and  O_10 
REMARK    8  A    between atoms: O_10  and  C_11 
REMARK    9  A    between atoms: C_11  and  C_12 
REMARK   10  A    between atoms: C_12  and  C_13 
REMARK   11  A    between atoms: C_12  and  O_24 
REMARK   12  A    between atoms: C_13  and  O_14 
REMARK   13  A    between atoms: O_14  and  C_15 
REMARK   14  A    between atoms: C_15  and  C_17 
REMARK   15  A    between atoms: C_17  and  C_18 
REMARK   16  A    between atoms: C_18  and  C_19 
REMARK   17  A    between atoms: C_19  and  C_20 
REMARK   18  A    between atoms: C_20  and  C_21 
REMARK   19  A    between atoms: C_21  and  C_22 
REMARK   20  A    between atoms: O_24  and  C_25 
REMARK   21  A    between atoms: C_25  and  C_27 
REMARK   22  A    between atoms: C_27  and  C_28 
REMARK   23  A    between atoms: C_28  and  C_29 
REMARK   24  A    between atoms: C_29  and  C_30 
REMARK   25  A    between atoms: C_30  and  C_31 
REMARK   26  A    between atoms: C_31  and  C_32 
ROOT
HETATM    1  C   UNL     1     -20.789  -6.670  -5.197  1.00  0.00     0.180 C 
ENDROOT
BRANCH   1   2
HETATM    2  C   UNL     1     -22.080  -6.649  -4.364  1.00  0.00     0.213 C 
BRANCH   2   3
HETATM    3  O   UNL     1     -21.918  -7.372  -3.132  1.00  0.00    -0.319 OA
BRANCH   3   4
HETATM    4  C   UNL     1     -22.034  -6.617  -2.003  1.00  0.00     0.258 C 
HETATM    5  O   UNL     1     -21.982  -5.400  -1.969  1.00  0.00    -0.265 OA
BRANCH   4   6
HETATM    6  C   UNL     1     -22.215  -7.498  -0.793  1.00  0.00     0.111 C 
BRANCH   6   7
HETATM    7  C   UNL     1     -21.175  -8.613  -0.750  1.00  0.00     0.010 C 
BRANCH   7   8
HETATM    8  C   UNL     1     -21.767  -9.935  -0.261  1.00  0.00     0.000 C 
BRANCH   8   9
HETATM    9  C   UNL     1     -23.270  -9.806  -0.028  1.00  0.00     0.000 C 
BRANCH   9  10
HETATM   10  C   UNL     1     -23.968 -11.151  -0.218  1.00  0.00    -0.000 C 
BRANCH  10  11
HETATM   11  C   UNL     1     -22.986 -12.308  -0.057  1.00  0.00    -0.005 C 
HETATM   12  C   UNL     1     -23.292 -13.115   1.192  1.00  0.00     0.005 C 
ENDBRANCH  10  11
ENDBRANCH   9  10
ENDBRANCH   8   9
ENDBRANCH   7   8
ENDBRANCH   6   7
ENDBRANCH   4   6
ENDBRANCH   3   4
ENDBRANCH   2   3
ENDBRANCH   1   2
BRANCH   1  13
HETATM   13  C   UNL     1     -19.935  -7.886  -4.808  1.00  0.00     0.213 C 
BRANCH  13  14
HETATM   14  O   UNL     1     -19.399  -8.545  -5.972  1.00  0.00    -0.319 OA
BRANCH  14  15
HETATM   15  C   UNL     1     -18.429  -9.461  -5.702  1.00  0.00     0.258 C 
HETATM   16  O   UNL     1     -17.888 -10.165  -6.549  1.00  0.00    -0.265 OA
BRANCH  15  17
HETATM   17  C   UNL     1     -18.119  -9.511  -4.223  1.00  0.00     0.111 C 
BRANCH  17  18
HETATM   18  C   UNL     1     -16.754 -10.147  -3.965  1.00  0.00     0.010 C 
BRANCH  18  19
HETATM   19  C   UNL     1     -16.205  -9.796  -2.579  1.00  0.00     0.000 C 
BRANCH  19  20
HETATM   20  C   UNL     1     -15.830 -11.053  -1.800  1.00  0.00     0.000 C 
BRANCH  20  21
HETATM   21  C   UNL     1     -16.966 -12.072  -1.838  1.00  0.00    -0.000 C 
BRANCH  21  22
HETATM   22  C   UNL     1     -18.180 -11.574  -1.060  1.00  0.00    -0.005 C 
HETATM   23  C   UNL     1     -18.334 -12.324   0.251  1.00  0.00     0.005 C 
ENDBRANCH  21  22
ENDBRANCH  20  21
ENDBRANCH  19  20
ENDBRANCH  18  19
ENDBRANCH  17  18
ENDBRANCH  15  17
ENDBRANCH  14  15
ENDBRANCH  13  14
ENDBRANCH   1  13
BRANCH   1  24
HETATM   24  O   UNL     1     -21.177  -6.762  -6.588  1.00  0.00    -0.312 OA
BRANCH  24  25
HETATM   25  C   UNL     1     -21.258  -5.564  -7.239  1.00  0.00     0.259 C 
HETATM   26  O   UNL     1     -22.230  -4.822  -7.251  1.00  0.00    -0.265 OA
BRANCH  25  27
HETATM   27  C   UNL     1     -20.015  -5.305  -8.050  1.00  0.00     0.111 C 
BRANCH  27  28
HETATM   28  C   UNL     1     -20.184  -4.120  -8.986  1.00  0.00     0.010 C 
BRANCH  28  29
HETATM   29  C   UNL     1     -20.326  -4.565 -10.440  1.00  0.00     0.000 C 
BRANCH  29  30
HETATM   30  C   UNL     1     -21.221  -3.609 -11.223  1.00  0.00     0.000 C 
BRANCH  30  31
HETATM   31  C   UNL     1     -22.594  -4.232 -11.459  1.00  0.00    -0.000 C 
BRANCH  31  32
HETATM   32  C   UNL     1     -23.710  -3.230 -11.180  1.00  0.00    -0.005 C 
HETATM   33  C   UNL     1     -24.352  -3.495  -9.829  1.00  0.00     0.005 C 
ENDBRANCH  31  32
ENDBRANCH  30  31
ENDBRANCH  29  30
ENDBRANCH  28  29
ENDBRANCH  27  28
ENDBRANCH  25  27
ENDBRANCH  24  25
ENDBRANCH   1  24
TORSDOF 26
ENDMDL
MODEL 9
REMARK VINA RESULT:      -6.3      1.321      4.760
REMARK  26 active torsions:
REMARK  status: ('A' for Active; 'I' for Inactive)
REMARK    1  A    between atoms: C_2  and  C_3 
REMARK    2  A    between atoms: C_3  and  C_4 
REMARK    3  A    between atoms: C_4  and  C_5 
REMARK    4  A    between atoms: C_5  and  C_6 
REMARK    5  A    between atoms: C_6  and  C_7 
REMARK    6  A    between atoms: C_7  and  C_8 
REMARK    7  A    between atoms: C_8  and  O_10 
REMARK    8  A    between atoms: O_10  and  C_11 
REMARK    9  A    between atoms: C_11  and  C_12 
REMARK   10  A    between atoms: C_12  and  C_13 
REMARK   11  A    between atoms: C_12  and  O_24 
REMARK   12  A    between atoms: C_13  and  O_14 
REMARK   13  A    between atoms: O_14  and  C_15 
REMARK   14  A    between atoms: C_15  and  C_17 
REMARK   15  A    between atoms: C_17  and  C_18 
REMARK   16  A    between atoms: C_18  and  C_19 
REMARK   17  A    between atoms: C_19  and  C_20 
REMARK   18  A    between atoms: C_20  and  C_21 
REMARK   19  A    between atoms: C_21  and  C_22 
REMARK   20  A    between atoms: O_24  and  C_25 
REMARK   21  A    between atoms: C_25  and  C_27 
REMARK   22  A    between atoms: C_27  and  C_28 
REMARK   23  A    between atoms: C_28  and  C_29 
REMARK   24  A    between atoms: C_29  and  C_30 
REMARK   25  A    between atoms: C_30  and  C_31 
REMARK   26  A    between atoms: C_31  and  C_32 
ROOT
HETATM    1  C   UNL     1     -20.673  -8.090  -3.767  1.00  0.00     0.180 C 
ENDROOT
BRANCH   1   2
HETATM    2  C   UNL     1     -19.706  -9.269  -3.577  1.00  0.00     0.213 C 
BRANCH   2   3
HETATM    3  O   UNL     1     -18.419  -8.986  -4.151  1.00  0.00    -0.319 OA
BRANCH   3   4
HETATM    4  C   UNL     1     -18.005  -9.872  -5.101  1.00  0.00     0.258 C 
HETATM    5  O   UNL     1     -18.641 -10.174  -6.095  1.00  0.00    -0.265 OA
BRANCH   4   6
HETATM    6  C   UNL     1     -16.659 -10.445  -4.740  1.00  0.00     0.111 C 
BRANCH   6   7
HETATM    7  C   UNL     1     -16.029  -9.703  -3.568  1.00  0.00     0.010 C 
BRANCH   7   8
HETATM    8  C   UNL     1     -15.659 -10.644  -2.421  1.00  0.00     0.000 C 
BRANCH   8   9
HETATM    9  C   UNL     1     -16.903 -11.092  -1.660  1.00  0.00     0.000 C 
BRANCH   9  10
HETATM   10  C   UNL     1     -16.523 -11.856  -0.395  1.00  0.00    -0.000 C 
BRANCH  10  11
HETATM   11  C   UNL     1     -17.715 -12.634   0.158  1.00  0.00    -0.005 C 
HETATM   12  C   UNL     1     -18.512 -13.280  -0.961  1.00  0.00     0.005 C 
ENDBRANCH  10  11
ENDBRANCH   9  10
ENDBRANCH   8   9
ENDBRANCH   7   8
ENDBRANCH   6   7
ENDBRANCH   4   6
ENDBRANCH   3   4
ENDBRANCH   2   3
ENDBRANCH   1   2
BRANCH   1  13
HETATM   13  C   UNL     1     -21.398  -8.222  -5.115  1.00  0.00     0.213 C 
BRANCH  13  14
HETATM   14  O   UNL     1     -21.001  -7.179  -6.028  1.00  0.00    -0.319 OA
BRANCH  14  15
HETATM   15  C   UNL     1     -21.508  -5.951  -5.732  1.00  0.00     0.258 C 
HETATM   16  O   UNL     1     -22.691  -5.729  -5.496  1.00  0.00    -0.265 OA
BRANCH  15  17
HETATM   17  C   UNL     1     -20.426  -4.894  -5.750  1.00  0.00     0.111 C 
BRANCH  17  18
HETATM   18  C   UNL     1     -20.147  -4.412  -7.172  1.00  0.00     0.010 C 
BRANCH  18  19
HETATM   19  C   UNL     1     -21.362  -3.722  -7.799  1.00  0.00     0.000 C 
BRANCH  19  20
HETATM   20  C   UNL     1     -21.746  -4.376  -9.123  1.00  0.00     0.000 C 
BRANCH  20  21
HETATM   21  C   UNL     1     -20.533  -4.482 -10.045  1.00  0.00    -0.000 C 
BRANCH  21  22
HETATM   22  C   UNL     1     -20.538  -3.372 -11.091  1.00  0.00    -0.005 C 
HETATM   23  C   UNL     1     -21.897  -3.255 -11.758  1.00  0.00     0.005 C 
ENDBRANCH  21  22
ENDBRANCH  20  21
ENDBRANCH  19  20
ENDBRANCH  18  19
ENDBRANCH  17  18
ENDBRANCH  15  17
ENDBRANCH  14  15
ENDBRANCH  13  14
ENDBRANCH   1  13
BRANCH   1  24
HETATM   24  O   UNL     1     -21.631  -8.141  -2.683  1.00  0.00    -0.312 OA
BRANCH  24  25
HETATM   25  C   UNL     1     -21.791  -6.965  -2.008  1.00  0.00     0.259 C 
HETATM   26  O   UNL     1     -21.432  -5.862  -2.397  1.00  0.00    -0.265 OA
BRANCH  25  27
HETATM   27  C   UNL     1     -22.384  -7.202  -0.643  1.00  0.00     0.111 C 
BRANCH  27  28
HETATM   28  C   UNL     1     -22.562  -8.683  -0.351  1.00  0.00     0.010 C 
BRANCH  28  29
HETATM   29  C   UNL     1     -21.444  -9.222   0.538  1.00  0.00     0.000 C 
BRANCH  29  30
HETATM   30  C   UNL     1     -20.877 -10.524  -0.018  1.00  0.00     0.000 C 
BRANCH  30  31
HETATM   31  C   UNL     1     -21.312 -11.708   0.840  1.00  0.00    -0.000 C 
BRANCH  31  32
HETATM   32  C   UNL     1     -22.686 -12.220   0.417  1.00  0.00    -0.005 C 
HETATM   33  C   UNL     1     -23.172 -13.311   1.356  1.00  0.00     0.005 C 
ENDBRANCH  31  32
ENDBRANCH  30  31
ENDBRANCH  29  30
ENDBRANCH  28  29
ENDBRANCH  27  28
ENDBRANCH  25  27
ENDBRANCH  24  25
ENDBRANCH   1  24
TORSDOF 26
ENDMDL
