MODEL 1
REMARK VINA RESULT:      -0.6      0.000      0.000
REMARK WARNING: 32 MAX_TORS EXCEEDED!!!
REMARK  55 active torsions:
REMARK  status: ('A' for Active; 'I' for Inactive)
REMARK    1  A    between atoms: O_2  and  C_3 
REMARK       I    between atoms: C_3  and  N_5 
REMARK    2  A    between atoms: N_5  and  C_6 
REMARK    3  A    between atoms: C_7  and  O_104 
REMARK    4  A    between atoms: C_8  and  O_37 
REMARK    5  A    between atoms: C_9  and  C_35 
REMARK    6  A    between atoms: C_11  and  O_12 
REMARK    7  A    between atoms: O_12  and  C_13 
REMARK    8  A    between atoms: C_14  and  C_33 
REMARK    9  A    between atoms: C_16  and  O_21 
REMARK   10  A    between atoms: C_17  and  N_20 
REMARK   11  A    between atoms: C_18  and  O_19 
REMARK   12  A    between atoms: O_21  and  C_22 
REMARK   13  A    between atoms: C_23  and  C_31 
REMARK   14  A    between atoms: C_25  and  O_30 
REMARK   15  A    between atoms: C_26  and  N_29 
REMARK   16  A    between atoms: C_27  and  O_28 
REMARK   17  A    between atoms: C_31  and  O_32 
REMARK   18  A    between atoms: C_33  and  O_34 
REMARK   19  A    between atoms: C_35  and  O_36 
REMARK   20  A    between atoms: O_37  and  C_38 
REMARK   21  A    between atoms: C_39  and  N_103 
REMARK   22  A    between atoms: C_40  and  O_102 
REMARK   23  A    between atoms: C_41  and  O_46 
REMARK   24  A    between atoms: C_42  and  C_44 
REMARK   25  A    between atoms: C_44  and  O_45 
REMARK   26  A    between atoms: O_46  and  C_47 
REMARK   27  A    between atoms: C_48  and  N_101 
REMARK   28  A    between atoms: C_49  and  O_100 
REMARK   29  A    between atoms: C_50  and  O_55 
REMARK   30  A    between atoms: C_51  and  C_53 
REMARK   31  A    between atoms: C_53  and  O_54 
REMARK   32  A    between atoms: O_55  and  C_56 
REMARK   33  A    between atoms: C_57  and  N_99 
REMARK   34  A    between atoms: C_58  and  O_98 
REMARK   35  A    between atoms: C_59  and  O_64 
REMARK   36  A    between atoms: C_60  and  C_62 
REMARK   37  A    between atoms: C_62  and  O_63 
REMARK   38  A    between atoms: O_64  and  C_65 
REMARK   39  A    between atoms: C_66  and  N_97 
REMARK   40  A    between atoms: C_67  and  O_96 
REMARK   41  A    between atoms: C_68  and  O_73 
REMARK   42  A    between atoms: C_69  and  C_71 
REMARK   43  A    between atoms: C_71  and  O_72 
REMARK   44  A    between atoms: O_73  and  C_74 
REMARK   45  A    between atoms: C_75  and  N_95 
REMARK   46  A    between atoms: C_76  and  O_94 
REMARK   47  A    between atoms: C_77  and  O_82 
REMARK   48  A    between atoms: C_78  and  C_80 
REMARK   49  A    between atoms: C_80  and  O_81 
REMARK   50  A    between atoms: O_82  and  C_83 
REMARK   51  A    between atoms: C_84  and  N_93 
REMARK   52  A    between atoms: C_85  and  O_92 
REMARK   53  A    between atoms: C_86  and  O_91 
REMARK   54  A    between atoms: C_87  and  C_89 
REMARK   55  A    between atoms: C_89  and  O_90 
ROOT
HETATM    1  C   UNL     1     -21.231 -10.498  -3.338  1.00  0.00     0.296 C 
HETATM    2  C   UNL     1     -21.525 -11.923  -4.083  1.00  0.00     0.303 C 
HETATM    3  C   UNL     1     -22.705 -12.791  -3.427  1.00  0.00     0.187 C 
HETATM    4  C   UNL     1     -22.630 -12.918  -1.829  1.00  0.00     0.186 C 
HETATM    5  C   UNL     1     -22.329 -11.445  -1.353  1.00  0.00     0.179 C 
HETATM    6  O   UNL     1     -21.170 -10.822  -1.948  1.00  0.00    -0.349 OA
ENDROOT
BRANCH   1   7
HETATM    7  O   UNL     1     -22.151  -9.407  -3.533  1.00  0.00    -0.348 OA
BRANCH   7   8
HETATM    8  C   UNL     1     -21.997  -8.334  -4.635  1.00  0.00     0.186 C 
HETATM    9  C   UNL     1     -20.836  -8.474  -5.696  1.00  0.00     0.187 C 
HETATM   10  C   UNL     1     -19.616  -7.542  -5.455  1.00  0.00     0.303 C 
HETATM   11  C   UNL     1     -19.799  -6.029  -5.177  1.00  0.00     0.296 C 
HETATM   12  O   UNL     1     -20.906  -5.972  -4.212  1.00  0.00    -0.349 OA
HETATM   13  C   UNL     1     -22.149  -6.776  -4.245  1.00  0.00     0.179 C 
BRANCH   9  14
HETATM   14  O   UNL     1     -21.371  -8.202  -7.003  1.00  0.00    -0.391 OA
HETATM   15  H   UNL     1     -22.273  -7.795  -6.944  1.00  0.00     0.210 HD
ENDBRANCH   9  14
BRANCH  10  16
HETATM   16  N   UNL     1     -18.635  -7.752  -6.511  1.00  0.00     0.090 N 
HETATM   17  H   UNL     1     -18.952  -8.530  -7.086  1.00  0.00     0.313 HD
HETATM   18  H   UNL     1     -17.821  -8.166  -6.048  1.00  0.00     0.313 HD
ENDBRANCH  10  16
BRANCH  11  19
HETATM   19  O   UNL     1     -19.727  -4.870  -6.350  1.00  0.00    -0.348 OA
BRANCH  19  20
HETATM   20  C   UNL     1     -20.629  -5.007  -7.701  1.00  0.00     0.186 C 
HETATM   21  C   UNL     1     -21.969  -4.155  -7.876  1.00  0.00     0.177 C 
HETATM   22  C   UNL     1     -22.804  -4.358  -9.231  1.00  0.00     0.173 C 
HETATM   23  C   UNL     1     -21.966  -4.403 -10.590  1.00  0.00     0.286 C 
HETATM   24  O   UNL     1     -20.839  -5.278 -10.296  1.00  0.00    -0.349 OA
HETATM   25  C   UNL     1     -19.911  -4.910  -9.209  1.00  0.00     0.180 C 
BRANCH  21  26
HETATM   26  O   UNL     1     -21.812  -2.740  -7.700  1.00  0.00    -0.391 OA
HETATM   27  H   UNL     1     -21.335  -2.329  -8.431  1.00  0.00     0.210 HD
ENDBRANCH  21  26
BRANCH  22  28
HETATM   28  N   UNL     1     -24.012  -3.500  -9.302  1.00  0.00    -0.325 N 
HETATM   29  C   UNL     1     -25.293  -3.949  -9.497  1.00  0.00     0.360 C 
HETATM   30  O   UNL     1     -25.576  -5.137  -9.624  1.00  0.00    -0.239 OA
HETATM   31  H   UNL     1     -23.904  -2.529  -8.992  1.00  0.00     0.165 HD
BRANCH  29  32
HETATM   32  O   UNL     1     -26.171  -2.916  -9.538  1.00  0.00    -0.309 OA
HETATM   33  C   UNL     1     -27.535  -3.205  -9.893  1.00  0.00     0.215 C 
ENDBRANCH  29  32
ENDBRANCH  22  28
BRANCH  23  34
HETATM   34  O   UNL     1     -21.621  -3.128 -11.325  1.00  0.00    -0.348 OA
BRANCH  34  35
HETATM   35  C   UNL     1     -22.661  -2.581 -12.250  1.00  0.00     0.186 C 
HETATM   36  C   UNL     1     -22.376  -2.728 -13.795  1.00  0.00     0.179 C 
HETATM   37  O   UNL     1     -22.484  -4.050 -14.417  1.00  0.00    -0.349 OA
HETATM   38  C   UNL     1     -23.673  -4.829 -14.215  1.00  0.00     0.296 C 
HETATM   39  C   UNL     1     -24.543  -4.391 -12.942  1.00  0.00     0.303 C 
HETATM   40  C   UNL     1     -24.123  -3.088 -12.096  1.00  0.00     0.187 C 
BRANCH  36  41
HETATM   41  C   UNL     1     -23.263  -1.805 -14.672  1.00  0.00     0.198 C 
BRANCH  41  42
HETATM   42  O   UNL     1     -22.642  -1.744 -15.954  1.00  0.00    -0.398 OA
HETATM   43  H   UNL     1     -21.709  -1.956 -15.780  1.00  0.00     0.209 HD
ENDBRANCH  41  42
ENDBRANCH  36  41
BRANCH  38  44
HETATM   44  O   UNL     1     -24.521  -5.059 -15.388  1.00  0.00    -0.348 OA
BRANCH  44  45
HETATM   45  C   UNL     1     -25.193  -6.351 -15.490  1.00  0.00     0.186 C 
HETATM   46  C   UNL     1     -26.778  -6.302 -15.847  1.00  0.00     0.179 C 
HETATM   47  O   UNL     1     -27.221  -5.519 -16.979  1.00  0.00    -0.349 OA
HETATM   48  C   UNL     1     -26.488  -5.847 -18.160  1.00  0.00     0.292 C 
HETATM   49  C   UNL     1     -25.130  -6.661 -18.051  1.00  0.00     0.303 C 
HETATM   50  C   UNL     1     -24.472  -7.143 -16.612  1.00  0.00     0.187 C 
BRANCH  46  51
HETATM   51  C   UNL     1     -27.228  -7.780 -16.015  1.00  0.00     0.198 C 
BRANCH  51  52
HETATM   52  O   UNL     1     -28.540  -8.042 -15.640  1.00  0.00    -0.398 OA
HETATM   53  H   UNL     1     -28.722  -7.664 -14.756  1.00  0.00     0.209 HD
ENDBRANCH  51  52
ENDBRANCH  46  51
BRANCH  48  54
HETATM   54  O   UNL     1     -27.596  -5.977 -19.220  1.00  0.00    -0.369 OA
HETATM   55  H   UNL     1     -28.097  -5.149 -19.344  1.00  0.00     0.212 HD
ENDBRANCH  48  54
BRANCH  49  56
HETATM   56  N   UNL     1     -24.990  -7.392 -19.283  1.00  0.00     0.090 NA
HETATM   57  H   UNL     1     -24.127  -7.203 -19.788  1.00  0.00     0.313 HD
HETATM   58  H   UNL     1     -25.042  -8.415 -19.069  1.00  0.00     0.313 HD
ENDBRANCH  49  56
BRANCH  50  59
HETATM   59  O   UNL     1     -24.248  -8.493 -16.181  1.00  0.00    -0.391 OA
HETATM   60  H   UNL     1     -23.734  -8.568 -15.364  1.00  0.00     0.210 HD
ENDBRANCH  50  59
ENDBRANCH  44  45
ENDBRANCH  38  44
BRANCH  39  61
HETATM   61  N   UNL     1     -26.030  -4.555 -13.195  1.00  0.00     0.090 N 
HETATM   62  H   UNL     1     -26.164  -4.682 -14.190  1.00  0.00     0.313 HD
HETATM   63  H   UNL     1     -26.299  -5.425 -12.747  1.00  0.00     0.313 HD
ENDBRANCH  39  61
BRANCH  40  64
HETATM   64  O   UNL     1     -24.905  -1.921 -12.472  1.00  0.00    -0.391 OA
HETATM   65  H   UNL     1     -25.822  -1.941 -12.156  1.00  0.00     0.210 HD
ENDBRANCH  40  64
ENDBRANCH  34  35
ENDBRANCH  23  34
BRANCH  25  66
HETATM   66  C   UNL     1     -19.187  -3.623  -9.702  1.00  0.00     0.198 C 
BRANCH  66  67
HETATM   67  O   UNL     1     -18.895  -2.689  -8.632  1.00  0.00    -0.398 OA
HETATM   68  H   UNL     1     -18.375  -1.974  -9.034  1.00  0.00     0.209 HD
ENDBRANCH  66  67
ENDBRANCH  25  66
ENDBRANCH  19  20
ENDBRANCH  11  19
BRANCH  13  69
HETATM   69  C   UNL     1     -23.148  -5.963  -5.137  1.00  0.00     0.198 C 
BRANCH  69  70
HETATM   70  O   UNL     1     -24.497  -6.331  -4.789  1.00  0.00    -0.398 OA
HETATM   71  H   UNL     1     -24.971  -6.307  -5.657  1.00  0.00     0.209 HD
ENDBRANCH  69  70
ENDBRANCH  13  69
ENDBRANCH   7   8
ENDBRANCH   1   7
BRANCH   2  72
HETATM   72  N   UNL     1     -21.539 -11.788  -5.560  1.00  0.00     0.090 N 
HETATM   73  H   UNL     1     -22.422 -11.443  -5.964  1.00  0.00     0.313 HD
HETATM   74  H   UNL     1     -21.292 -12.641  -6.064  1.00  0.00     0.313 HD
ENDBRANCH   2  72
BRANCH   3  75
HETATM   75  O   UNL     1     -22.977 -14.069  -4.068  1.00  0.00    -0.391 OA
HETATM   76  H   UNL     1     -22.882 -13.943  -5.029  1.00  0.00     0.210 HD
ENDBRANCH   3  75
BRANCH   5  77
HETATM   77  C   UNL     1     -23.565 -10.555  -1.417  1.00  0.00     0.198 C 
BRANCH  77  78
HETATM   78  O   UNL     1     -23.272  -9.435  -0.584  1.00  0.00    -0.398 OA
HETATM   79  H   UNL     1     -24.075  -8.896  -0.514  1.00  0.00     0.209 HD
ENDBRANCH  77  78
ENDBRANCH   5  77
BRANCH   4  80
HETATM   80  O   UNL     1     -21.866 -14.087  -1.206  1.00  0.00    -0.348 OA
BRANCH  80  81
HETATM   81  C   UNL     1     -20.382 -14.203  -1.479  1.00  0.00     0.296 C 
HETATM   82  C   UNL     1     -19.889 -15.562  -0.872  1.00  0.00     0.303 C 
HETATM   83  C   UNL     1     -19.256 -15.446   0.705  1.00  0.00     0.187 C 
HETATM   84  C   UNL     1     -18.397 -14.208   1.214  1.00  0.00     0.186 C 
HETATM   85  C   UNL     1     -18.898 -12.992   0.264  1.00  0.00     0.179 C 
HETATM   86  O   UNL     1     -19.316 -13.249  -1.152  1.00  0.00    -0.349 OA
BRANCH  82  87
HETATM   87  N   UNL     1     -20.987 -16.644  -0.930  1.00  0.00     0.090 N 
HETATM   88  H   UNL     1     -21.635 -16.424  -0.168  1.00  0.00     0.313 HD
HETATM   89  H   UNL     1     -21.494 -16.723  -1.818  1.00  0.00     0.313 HD
ENDBRANCH  82  87
BRANCH  83  90
HETATM   90  O   UNL     1     -20.296 -15.569   1.725  1.00  0.00    -0.391 OA
HETATM   91  H   UNL     1     -20.752 -14.716   1.667  1.00  0.00     0.210 HD
ENDBRANCH  83  90
BRANCH  84  92
HETATM   92  O   UNL     1     -16.949 -14.668   1.373  1.00  0.00    -0.348 OA
BRANCH  92  93
HETATM   93  C   UNL     1     -15.718 -14.305   0.521  1.00  0.00     0.296 C 
HETATM   94  C   UNL     1     -15.441 -12.721   0.330  1.00  0.00     0.303 C 
HETATM   95  C   UNL     1     -15.565 -12.006  -1.086  1.00  0.00     0.187 C 
HETATM   96  C   UNL     1     -15.271 -12.822  -2.344  1.00  0.00     0.186 C 
HETATM   97  C   UNL     1     -15.364 -14.394  -2.034  1.00  0.00     0.179 C 
HETATM   98  O   UNL     1     -15.255 -14.972  -0.673  1.00  0.00    -0.349 OA
BRANCH  94  99
HETATM   99  N   UNL     1     -16.004 -11.852   1.378  1.00  0.00     0.090 NA
HETATM  100  H   UNL     1     -15.851 -10.879   1.072  1.00  0.00     0.313 HD
HETATM  101  H   UNL     1     -17.017 -11.977   1.385  1.00  0.00     0.313 HD
ENDBRANCH  94  99
BRANCH  95 102
HETATM  102  O   UNL     1     -16.843 -11.398  -1.345  1.00  0.00    -0.391 OA
HETATM  103  H   UNL     1     -16.695 -10.766  -2.085  1.00  0.00     0.210 HD
ENDBRANCH  95 102
BRANCH  96 104
HETATM  104  O   UNL     1     -14.555 -11.957  -3.330  1.00  0.00    -0.348 OA
BRANCH 104 105
HETATM  105  C   UNL     1     -14.848 -11.525  -4.668  1.00  0.00     0.296 C 
HETATM  106  C   UNL     1     -16.435 -11.361  -4.985  1.00  0.00     0.303 C 
HETATM  107  C   UNL     1     -17.148 -12.680  -5.446  1.00  0.00     0.187 C 
HETATM  108  C   UNL     1     -16.355 -13.721  -6.267  1.00  0.00     0.186 C 
HETATM  109  C   UNL     1     -14.819 -13.627  -6.068  1.00  0.00     0.179 C 
HETATM  110  O   UNL     1     -14.288 -12.308  -5.750  1.00  0.00    -0.349 OA
BRANCH 106 111
HETATM  111  N   UNL     1     -17.354 -10.610  -4.014  1.00  0.00     0.090 N 
HETATM  112  H   UNL     1     -18.100 -11.282  -3.814  1.00  0.00     0.313 HD
HETATM  113  H   UNL     1     -17.834  -9.923  -4.623  1.00  0.00     0.313 HD
ENDBRANCH 106 111
BRANCH 107 114
HETATM  114  O   UNL     1     -17.895 -13.225  -4.365  1.00  0.00    -0.391 OA
HETATM  115  H   UNL     1     -18.105 -14.167  -4.543  1.00  0.00     0.210 HD
ENDBRANCH 107 114
BRANCH 108 116
HETATM  116  O   UNL     1     -16.839 -13.470  -7.596  1.00  0.00    -0.348 OA
BRANCH 116 117
HETATM  117  C   UNL     1     -17.548 -14.436  -8.389  1.00  0.00     0.296 C 
HETATM  118  C   UNL     1     -19.111 -14.239  -8.373  1.00  0.00     0.303 C 
HETATM  119  C   UNL     1     -19.835 -15.077  -7.309  1.00  0.00     0.187 C 
HETATM  120  C   UNL     1     -19.234 -16.494  -7.171  1.00  0.00     0.180 C 
HETATM  121  C   UNL     1     -17.704 -16.631  -7.366  1.00  0.00     0.179 C 
HETATM  122  O   UNL     1     -17.098 -15.773  -8.335  1.00  0.00    -0.349 OA
BRANCH 118 123
HETATM  123  N   UNL     1     -19.524 -12.768  -8.137  1.00  0.00     0.090 N 
HETATM  124  H   UNL     1     -20.212 -12.849  -7.390  1.00  0.00     0.313 HD
HETATM  125  H   UNL     1     -20.206 -12.700  -8.912  1.00  0.00     0.313 HD
ENDBRANCH 118 123
BRANCH 119 126
HETATM  126  O   UNL     1     -20.009 -14.185  -6.172  1.00  0.00    -0.391 OA
HETATM  127  H   UNL     1     -20.810 -14.489  -5.702  1.00  0.00     0.210 HD
ENDBRANCH 119 126
BRANCH 120 128
HETATM  128  O   UNL     1     -19.803 -17.183  -8.330  1.00  0.00    -0.390 OA
HETATM  129  H   UNL     1     -19.715 -18.150  -8.140  1.00  0.00     0.210 HD
ENDBRANCH 120 128
BRANCH 121 130
HETATM  130  C   UNL     1     -16.905 -16.688  -6.069  1.00  0.00     0.198 C 
BRANCH 130 131
HETATM  131  O   UNL     1     -17.830 -16.921  -5.031  1.00  0.00    -0.398 OA
HETATM  132  H   UNL     1     -17.344 -17.336  -4.290  1.00  0.00     0.209 HD
ENDBRANCH 130 131
ENDBRANCH 121 130
ENDBRANCH 116 117
ENDBRANCH 108 116
BRANCH 109 133
HETATM  133  C   UNL     1     -14.300 -14.650  -5.025  1.00  0.00     0.198 C 
BRANCH 133 134
HETATM  134  O   UNL     1     -12.987 -14.286  -4.608  1.00  0.00    -0.398 OA
HETATM  135  H   UNL     1     -12.572 -15.093  -4.258  1.00  0.00     0.209 HD
ENDBRANCH 133 134
ENDBRANCH 109 133
ENDBRANCH 104 105
ENDBRANCH  96 104
BRANCH  97 136
HETATM  136  C   UNL     1     -16.718 -15.001  -2.513  1.00  0.00     0.198 C 
BRANCH 136 137
HETATM  137  O   UNL     1     -16.754 -16.385  -2.148  1.00  0.00    -0.398 OA
HETATM  138  H   UNL     1     -15.845 -16.699  -2.026  1.00  0.00     0.209 HD
ENDBRANCH 136 137
ENDBRANCH  97 136
ENDBRANCH  92  93
ENDBRANCH  84  92
BRANCH  85 139
HETATM  139  C   UNL     1     -20.109 -12.209   0.862  1.00  0.00     0.198 C 
BRANCH 139 140
HETATM  140  O   UNL     1     -19.879 -10.775   0.789  1.00  0.00    -0.398 OA
HETATM  141  H   UNL     1     -19.430 -10.512   1.613  1.00  0.00     0.209 HD
ENDBRANCH 139 140
ENDBRANCH  85 139
ENDBRANCH  80  81
ENDBRANCH   4  80
TORSDOF 55
ENDMDL
MODEL 2
REMARK VINA RESULT:       0.3      2.321     15.444
REMARK WARNING: 32 MAX_TORS EXCEEDED!!!
REMARK  55 active torsions:
REMARK  status: ('A' for Active; 'I' for Inactive)
REMARK    1  A    between atoms: O_2  and  C_3 
REMARK       I    between atoms: C_3  and  N_5 
REMARK    2  A    between atoms: N_5  and  C_6 
REMARK    3  A    between atoms: C_7  and  O_104 
REMARK    4  A    between atoms: C_8  and  O_37 
REMARK    5  A    between atoms: C_9  and  C_35 
REMARK    6  A    between atoms: C_11  and  O_12 
REMARK    7  A    between atoms: O_12  and  C_13 
REMARK    8  A    between atoms: C_14  and  C_33 
REMARK    9  A    between atoms: C_16  and  O_21 
REMARK   10  A    between atoms: C_17  and  N_20 
REMARK   11  A    between atoms: C_18  and  O_19 
REMARK   12  A    between atoms: O_21  and  C_22 
REMARK   13  A    between atoms: C_23  and  C_31 
REMARK   14  A    between atoms: C_25  and  O_30 
REMARK   15  A    between atoms: C_26  and  N_29 
REMARK   16  A    between atoms: C_27  and  O_28 
REMARK   17  A    between atoms: C_31  and  O_32 
REMARK   18  A    between atoms: C_33  and  O_34 
REMARK   19  A    between atoms: C_35  and  O_36 
REMARK   20  A    between atoms: O_37  and  C_38 
REMARK   21  A    between atoms: C_39  and  N_103 
REMARK   22  A    between atoms: C_40  and  O_102 
REMARK   23  A    between atoms: C_41  and  O_46 
REMARK   24  A    between atoms: C_42  and  C_44 
REMARK   25  A    between atoms: C_44  and  O_45 
REMARK   26  A    between atoms: O_46  and  C_47 
REMARK   27  A    between atoms: C_48  and  N_101 
REMARK   28  A    between atoms: C_49  and  O_100 
REMARK   29  A    between atoms: C_50  and  O_55 
REMARK   30  A    between atoms: C_51  and  C_53 
REMARK   31  A    between atoms: C_53  and  O_54 
REMARK   32  A    between atoms: O_55  and  C_56 
REMARK   33  A    between atoms: C_57  and  N_99 
REMARK   34  A    between atoms: C_58  and  O_98 
REMARK   35  A    between atoms: C_59  and  O_64 
REMARK   36  A    between atoms: C_60  and  C_62 
REMARK   37  A    between atoms: C_62  and  O_63 
REMARK   38  A    between atoms: O_64  and  C_65 
REMARK   39  A    between atoms: C_66  and  N_97 
REMARK   40  A    between atoms: C_67  and  O_96 
REMARK   41  A    between atoms: C_68  and  O_73 
REMARK   42  A    between atoms: C_69  and  C_71 
REMARK   43  A    between atoms: C_71  and  O_72 
REMARK   44  A    between atoms: O_73  and  C_74 
REMARK   45  A    between atoms: C_75  and  N_95 
REMARK   46  A    between atoms: C_76  and  O_94 
REMARK   47  A    between atoms: C_77  and  O_82 
REMARK   48  A    between atoms: C_78  and  C_80 
REMARK   49  A    between atoms: C_80  and  O_81 
REMARK   50  A    between atoms: O_82  and  C_83 
REMARK   51  A    between atoms: C_84  and  N_93 
REMARK   52  A    between atoms: C_85  and  O_92 
REMARK   53  A    between atoms: C_86  and  O_91 
REMARK   54  A    between atoms: C_87  and  C_89 
REMARK   55  A    between atoms: C_89  and  O_90 
ROOT
HETATM    1  C   UNL     1     -22.352  -9.006  -3.990  1.00  0.00     0.296 C 
HETATM    2  C   UNL     1     -21.068  -9.371  -4.933  1.00  0.00     0.303 C 
HETATM    3  C   UNL     1     -19.872  -8.303  -4.880  1.00  0.00     0.187 C 
HETATM    4  C   UNL     1     -20.338  -6.773  -5.014  1.00  0.00     0.186 C 
HETATM    5  C   UNL     1     -21.574  -6.674  -4.040  1.00  0.00     0.179 C 
HETATM    6  O   UNL     1     -22.630  -7.633  -4.272  1.00  0.00    -0.349 OA
ENDROOT
BRANCH   1   7
HETATM    7  O   UNL     1     -22.245  -9.187  -2.565  1.00  0.00    -0.348 OA
BRANCH   7   8
HETATM    8  C   UNL     1     -21.658 -10.451  -1.897  1.00  0.00     0.186 C 
HETATM    9  C   UNL     1     -21.964 -11.869  -2.520  1.00  0.00     0.187 C 
HETATM   10  C   UNL     1     -23.040 -12.697  -1.761  1.00  0.00     0.303 C 
HETATM   11  C   UNL     1     -22.982 -12.877  -0.224  1.00  0.00     0.296 C 
HETATM   12  O   UNL     1     -22.667 -11.534   0.284  1.00  0.00    -0.349 OA
HETATM   13  C   UNL     1     -21.691 -10.581  -0.290  1.00  0.00     0.179 C 
BRANCH   9  14
HETATM   14  O   UNL     1     -20.743 -12.629  -2.560  1.00  0.00    -0.391 OA
HETATM   15  H   UNL     1     -20.228 -12.436  -3.384  1.00  0.00     0.210 HD
ENDBRANCH   9  14
BRANCH  10  16
HETATM   16  N   UNL     1     -23.207 -13.985  -2.420  1.00  0.00     0.090 N 
HETATM   17  H   UNL     1     -24.083 -14.394  -2.097  1.00  0.00     0.313 HD
HETATM   18  H   UNL     1     -22.524 -14.607  -1.980  1.00  0.00     0.313 HD
ENDBRANCH  10  16
BRANCH  11  19
HETATM   19  O   UNL     1     -22.283 -14.176   0.518  1.00  0.00    -0.348 OA
BRANCH  19  20
HETATM   20  C   UNL     1     -20.660 -14.315   0.580  1.00  0.00     0.186 C 
HETATM   21  C   UNL     1     -19.965 -15.276   1.650  1.00  0.00     0.177 C 
HETATM   22  C   UNL     1     -18.362 -15.346   1.652  1.00  0.00     0.173 C 
HETATM   23  C   UNL     1     -17.647 -15.454   0.227  1.00  0.00     0.286 C 
HETATM   24  O   UNL     1     -18.328 -14.467  -0.599  1.00  0.00    -0.349 OA
HETATM   25  C   UNL     1     -19.782 -14.594  -0.816  1.00  0.00     0.180 C 
BRANCH  21  26
HETATM   26  O   UNL     1     -20.433 -16.632   1.638  1.00  0.00    -0.391 OA
HETATM   27  H   UNL     1     -20.708 -16.919   0.759  1.00  0.00     0.210 HD
ENDBRANCH  21  26
BRANCH  22  28
HETATM   28  N   UNL     1     -17.823 -16.288   2.663  1.00  0.00    -0.325 N 
HETATM   29  C   UNL     1     -16.632 -16.141   3.327  1.00  0.00     0.360 C 
HETATM   30  O   UNL     1     -15.879 -15.188   3.154  1.00  0.00    -0.239 OA
HETATM   31  H   UNL     1     -18.474 -16.990   3.030  1.00  0.00     0.165 HD
BRANCH  29  32
HETATM   32  O   UNL     1     -16.412 -17.183   4.169  1.00  0.00    -0.309 OA
HETATM   33  C   UNL     1     -16.052 -16.884   5.529  1.00  0.00     0.215 C 
ENDBRANCH  29  32
ENDBRANCH  22  28
BRANCH  23  34
HETATM   34  O   UNL     1     -17.425 -16.800  -0.423  1.00  0.00    -0.348 OA
BRANCH  34  35
HETATM   35  C   UNL     1     -16.199 -16.947  -1.267  1.00  0.00     0.186 C 
HETATM   36  C   UNL     1     -16.321 -16.485  -2.770  1.00  0.00     0.179 C 
HETATM   37  O   UNL     1     -16.386 -15.053  -3.073  1.00  0.00    -0.349 OA
HETATM   38  C   UNL     1     -15.396 -14.170  -2.526  1.00  0.00     0.296 C 
HETATM   39  C   UNL     1     -14.617 -14.757  -1.253  1.00  0.00     0.303 C 
HETATM   40  C   UNL     1     -14.886 -16.272  -0.781  1.00  0.00     0.187 C 
BRANCH  36  41
HETATM   41  C   UNL     1     -15.180 -17.027  -3.671  1.00  0.00     0.198 C 
BRANCH  41  42
HETATM   42  O   UNL     1     -15.217 -16.265  -4.876  1.00  0.00    -0.398 OA
HETATM   43  H   UNL     1     -16.123 -16.386  -5.209  1.00  0.00     0.209 HD
ENDBRANCH  41  42
ENDBRANCH  36  41
BRANCH  38  44
HETATM   44  O   UNL     1     -14.472 -13.543  -3.474  1.00  0.00    -0.348 OA
BRANCH  44  45
HETATM   45  C   UNL     1     -14.603 -12.105  -3.692  1.00  0.00     0.186 C 
HETATM   46  C   UNL     1     -14.983 -11.646  -5.204  1.00  0.00     0.179 C 
HETATM   47  O   UNL     1     -16.109 -12.265  -5.866  1.00  0.00    -0.349 OA
HETATM   48  C   UNL     1     -17.284 -12.215  -5.057  1.00  0.00     0.292 C 
HETATM   49  C   UNL     1     -17.168 -11.881  -3.510  1.00  0.00     0.303 C 
HETATM   50  C   UNL     1     -15.727 -11.610  -2.743  1.00  0.00     0.187 C 
BRANCH  46  51
HETATM   51  C   UNL     1     -15.180 -10.105  -5.150  1.00  0.00     0.198 C 
BRANCH  51  52
HETATM   52  O   UNL     1     -15.957  -9.575  -6.175  1.00  0.00    -0.398 OA
HETATM   53  H   UNL     1     -16.074 -10.234  -6.888  1.00  0.00     0.209 HD
ENDBRANCH  51  52
ENDBRANCH  46  51
BRANCH  48  54
HETATM   54  O   UNL     1     -18.361 -11.754  -6.054  1.00  0.00    -0.369 OA
HETATM   55  H   UNL     1     -18.031 -11.088  -6.685  1.00  0.00     0.212 HD
ENDBRANCH  48  54
BRANCH  49  56
HETATM   56  N   UNL     1     -18.409 -11.259  -3.130  1.00  0.00     0.090 NA
HETATM   57  H   UNL     1     -18.796 -11.595  -2.252  1.00  0.00     0.313 HD
HETATM   58  H   UNL     1     -18.254 -10.226  -3.059  1.00  0.00     0.313 HD
ENDBRANCH  49  56
BRANCH  50  59
HETATM   59  O   UNL     1     -15.314 -10.398  -2.099  1.00  0.00    -0.391 OA
HETATM   60  H   UNL     1     -14.843 -10.533  -1.263  1.00  0.00     0.210 HD
ENDBRANCH  50  59
ENDBRANCH  44  45
ENDBRANCH  38  44
BRANCH  39  61
HETATM   61  N   UNL     1     -13.167 -14.312  -1.227  1.00  0.00     0.090 N 
HETATM   62  H   UNL     1     -12.736 -14.605  -2.095  1.00  0.00     0.313 HD
HETATM   63  H   UNL     1     -13.183 -13.297  -1.234  1.00  0.00     0.313 HD
ENDBRANCH  39  61
BRANCH  40  64
HETATM   64  O   UNL     1     -13.861 -17.183  -1.266  1.00  0.00    -0.391 OA
HETATM   65  H   UNL     1     -13.132 -16.745  -1.732  1.00  0.00     0.210 HD
ENDBRANCH  40  64
ENDBRANCH  34  35
ENDBRANCH  23  34
BRANCH  25  66
HETATM   66  C   UNL     1     -19.961 -15.888  -1.664  1.00  0.00     0.198 C 
BRANCH  66  67
HETATM   67  O   UNL     1     -21.084 -16.699  -1.234  1.00  0.00    -0.398 OA
HETATM   68  H   UNL     1     -20.822 -17.621  -1.387  1.00  0.00     0.209 HD
ENDBRANCH  66  67
ENDBRANCH  25  66
ENDBRANCH  19  20
ENDBRANCH  11  19
BRANCH  13  69
HETATM   69  C   UNL     1     -20.318 -10.937   0.375  1.00  0.00     0.198 C 
BRANCH  69  70
HETATM   70  O   UNL     1     -20.138 -10.125   1.552  1.00  0.00    -0.398 OA
HETATM   71  H   UNL     1     -21.005  -9.659   1.642  1.00  0.00     0.209 HD
ENDBRANCH  69  70
ENDBRANCH  13  69
ENDBRANCH   7   8
ENDBRANCH   1   7
BRANCH   2  72
HETATM   72  N   UNL     1     -20.690 -10.802  -4.830  1.00  0.00     0.090 N 
HETATM   73  H   UNL     1     -20.824 -11.228  -3.901  1.00  0.00     0.313 HD
HETATM   74  H   UNL     1     -19.732 -11.006  -5.118  1.00  0.00     0.313 HD
ENDBRANCH   2  72
BRANCH   3  75
HETATM   75  O   UNL     1     -18.723  -8.603  -5.720  1.00  0.00    -0.391 OA
HETATM   76  H   UNL     1     -17.921  -8.429  -5.195  1.00  0.00     0.210 HD
ENDBRANCH   3  75
BRANCH   5  77
HETATM   77  C   UNL     1     -21.152  -6.618  -2.577  1.00  0.00     0.198 C 
BRANCH  77  78
HETATM   78  O   UNL     1     -22.286  -6.119  -1.870  1.00  0.00    -0.398 OA
HETATM   79  H   UNL     1     -23.062  -6.222  -2.441  1.00  0.00     0.209 HD
ENDBRANCH  77  78
ENDBRANCH   5  77
BRANCH   4  80
HETATM   80  O   UNL     1     -20.413  -6.132  -6.400  1.00  0.00    -0.348 OA
BRANCH  80  81
HETATM   81  C   UNL     1     -20.972  -4.731  -6.516  1.00  0.00     0.296 C 
HETATM   82  C   UNL     1     -22.441  -4.844  -7.050  1.00  0.00     0.303 C 
HETATM   83  C   UNL     1     -22.595  -4.690  -8.739  1.00  0.00     0.187 C 
HETATM   84  C   UNL     1     -21.707  -3.701  -9.612  1.00  0.00     0.186 C 
HETATM   85  C   UNL     1     -20.356  -3.536  -8.729  1.00  0.00     0.179 C 
HETATM   86  O   UNL     1     -20.410  -3.580  -7.233  1.00  0.00    -0.349 OA
BRANCH  82  87
HETATM   87  N   UNL     1     -23.126  -6.138  -6.566  1.00  0.00     0.090 N 
HETATM   88  H   UNL     1     -23.213  -6.043  -5.549  1.00  0.00     0.313 HD
HETATM   89  H   UNL     1     -24.039  -6.347  -6.984  1.00  0.00     0.313 HD
ENDBRANCH  82  87
BRANCH  83  90
HETATM   90  O   UNL     1     -22.433  -5.972  -9.425  1.00  0.00    -0.391 OA
HETATM   91  H   UNL     1     -23.326  -6.147  -9.759  1.00  0.00     0.210 HD
ENDBRANCH  83  90
BRANCH  84  92
HETATM   92  O   UNL     1     -22.600  -2.556 -10.087  1.00  0.00    -0.348 OA
BRANCH  92  93
HETATM   93  C   UNL     1     -23.590  -2.525 -11.267  1.00  0.00     0.296 C 
HETATM   94  C   UNL     1     -24.614  -3.778 -11.354  1.00  0.00     0.303 C 
HETATM   95  C   UNL     1     -24.556  -4.834 -12.543  1.00  0.00     0.187 C 
HETATM   96  C   UNL     1     -24.062  -4.367 -13.911  1.00  0.00     0.186 C 
HETATM   97  C   UNL     1     -23.223  -3.005 -13.776  1.00  0.00     0.179 C 
HETATM   98  O   UNL     1     -23.328  -2.086 -12.617  1.00  0.00    -0.349 OA
BRANCH  94  99
HETATM   99  N   UNL     1     -24.868  -4.474 -10.082  1.00  0.00     0.090 NA
HETATM  100  H   UNL     1     -24.342  -3.969  -9.354  1.00  0.00     0.313 HD
HETATM  101  H   UNL     1     -25.852  -4.348  -9.841  1.00  0.00     0.313 HD
ENDBRANCH  94  99
BRANCH  95 102
HETATM  102  O   UNL     1     -23.780  -6.013 -12.266  1.00  0.00    -0.391 OA
HETATM  103  H   UNL     1     -22.860  -5.802 -12.546  1.00  0.00     0.210 HD
ENDBRANCH  95 102
BRANCH  96 104
HETATM  104  O   UNL     1     -24.870  -5.035 -14.976  1.00  0.00    -0.348 OA
BRANCH 104 105
HETATM  105  C   UNL     1     -25.072  -6.406 -15.355  1.00  0.00     0.296 C 
HETATM  106  C   UNL     1     -25.189  -6.647 -16.959  1.00  0.00     0.303 C 
HETATM  107  C   UNL     1     -26.632  -6.459 -17.544  1.00  0.00     0.187 C 
HETATM  108  C   UNL     1     -27.854  -6.824 -16.673  1.00  0.00     0.186 C 
HETATM  109  C   UNL     1     -27.560  -6.795 -15.149  1.00  0.00     0.179 C 
HETATM  110  O   UNL     1     -26.192  -7.098 -14.750  1.00  0.00    -0.349 OA
BRANCH 106 111
HETATM  111  N   UNL     1     -24.175  -6.016 -17.921  1.00  0.00     0.090 N 
HETATM  112  H   UNL     1     -23.558  -6.794 -18.172  1.00  0.00     0.313 HD
HETATM  113  H   UNL     1     -23.572  -5.452 -17.296  1.00  0.00     0.313 HD
ENDBRANCH 106 111
BRANCH 107 114
HETATM  114  O   UNL     1     -26.726  -5.199 -18.196  1.00  0.00    -0.391 OA
HETATM  115  H   UNL     1     -27.571  -5.139 -18.690  1.00  0.00     0.210 HD
ENDBRANCH 107 114
BRANCH 108 116
HETATM  116  O   UNL     1     -28.231  -8.097 -17.221  1.00  0.00    -0.348 OA
BRANCH 116 117
HETATM  117  C   UNL     1     -29.589  -8.553 -17.334  1.00  0.00     0.296 C 
HETATM  118  C   UNL     1     -29.980  -9.016 -18.788  1.00  0.00     0.303 C 
HETATM  119  C   UNL     1     -30.631  -7.917 -19.639  1.00  0.00     0.187 C 
HETATM  120  C   UNL     1     -31.606  -7.041 -18.819  1.00  0.00     0.180 C 
HETATM  121  C   UNL     1     -31.232  -6.768 -17.342  1.00  0.00     0.179 C 
HETATM  122  O   UNL     1     -30.576  -7.823 -16.637  1.00  0.00    -0.349 OA
BRANCH 118 123
HETATM  123  N   UNL     1     -28.768  -9.541 -19.592  1.00  0.00     0.090 N 
HETATM  124  H   UNL     1     -29.093 -10.452 -19.913  1.00  0.00     0.313 HD
HETATM  125  H   UNL     1     -28.222  -9.893 -18.787  1.00  0.00     0.313 HD
ENDBRANCH 118 123
BRANCH 119 126
HETATM  126  O   UNL     1     -29.548  -7.352 -20.431  1.00  0.00    -0.391 OA
HETATM  127  H   UNL     1     -28.962  -8.097 -20.670  1.00  0.00     0.210 HD
ENDBRANCH 119 126
BRANCH 120 128
HETATM  128  O   UNL     1     -32.789  -7.899 -18.735  1.00  0.00    -0.390 OA
HETATM  129  H   UNL     1     -33.457  -7.387 -18.213  1.00  0.00     0.210 HD
ENDBRANCH 120 128
BRANCH 121 130
HETATM  130  C   UNL     1     -30.573  -5.416 -17.098  1.00  0.00     0.198 C 
BRANCH 130 131
HETATM  131  O   UNL     1     -31.312  -4.780 -16.079  1.00  0.00    -0.398 OA
HETATM  132  H   UNL     1     -31.974  -5.420 -15.751  1.00  0.00     0.209 HD
ENDBRANCH 130 131
ENDBRANCH 121 130
ENDBRANCH 116 117
ENDBRANCH 108 116
BRANCH 109 133
HETATM  133  C   UNL     1     -27.997  -5.459 -14.493  1.00  0.00     0.198 C 
BRANCH 133 134
HETATM  134  O   UNL     1     -29.316  -5.591 -13.971  1.00  0.00    -0.398 OA
HETATM  135  H   UNL     1     -29.869  -4.947 -14.447  1.00  0.00     0.209 HD
ENDBRANCH 133 134
ENDBRANCH 109 133
ENDBRANCH 104 105
ENDBRANCH  96 104
BRANCH  97 136
HETATM  136  C   UNL     1     -21.687  -3.263 -13.820  1.00  0.00     0.198 C 
BRANCH 136 137
HETATM  137  O   UNL     1     -21.319  -4.032 -12.669  1.00  0.00    -0.398 OA
HETATM  138  H   UNL     1     -20.454  -4.438 -12.830  1.00  0.00     0.209 HD
ENDBRANCH 136 137
ENDBRANCH  97 136
ENDBRANCH  92  93
ENDBRANCH  84  92
BRANCH  85 139
HETATM  139  C   UNL     1     -19.263  -4.592  -9.083  1.00  0.00     0.198 C 
BRANCH 139 140
HETATM  140  O   UNL     1     -19.493  -5.146 -10.408  1.00  0.00    -0.398 OA
HETATM  141  H   UNL     1     -18.622  -5.374 -10.781  1.00  0.00     0.209 HD
ENDBRANCH 139 140
ENDBRANCH  85 139
ENDBRANCH  80  81
ENDBRANCH   4  80
TORSDOF 55
ENDMDL
MODEL 3
REMARK VINA RESULT:       0.7      2.339     15.321
REMARK WARNING: 32 MAX_TORS EXCEEDED!!!
REMARK  55 active torsions:
REMARK  status: ('A' for Active; 'I' for Inactive)
REMARK    1  A    between atoms: O_2  and  C_3 
REMARK       I    between atoms: C_3  and  N_5 
REMARK    2  A    between atoms: N_5  and  C_6 
REMARK    3  A    between atoms: C_7  and  O_104 
REMARK    4  A    between atoms: C_8  and  O_37 
REMARK    5  A    between atoms: C_9  and  C_35 
REMARK    6  A    between atoms: C_11  and  O_12 
REMARK    7  A    between atoms: O_12  and  C_13 
REMARK    8  A    between atoms: C_14  and  C_33 
REMARK    9  A    between atoms: C_16  and  O_21 
REMARK   10  A    between atoms: C_17  and  N_20 
REMARK   11  A    between atoms: C_18  and  O_19 
REMARK   12  A    between atoms: O_21  and  C_22 
REMARK   13  A    between atoms: C_23  and  C_31 
REMARK   14  A    between atoms: C_25  and  O_30 
REMARK   15  A    between atoms: C_26  and  N_29 
REMARK   16  A    between atoms: C_27  and  O_28 
REMARK   17  A    between atoms: C_31  and  O_32 
REMARK   18  A    between atoms: C_33  and  O_34 
REMARK   19  A    between atoms: C_35  and  O_36 
REMARK   20  A    between atoms: O_37  and  C_38 
REMARK   21  A    between atoms: C_39  and  N_103 
REMARK   22  A    between atoms: C_40  and  O_102 
REMARK   23  A    between atoms: C_41  and  O_46 
REMARK   24  A    between atoms: C_42  and  C_44 
REMARK   25  A    between atoms: C_44  and  O_45 
REMARK   26  A    between atoms: O_46  and  C_47 
REMARK   27  A    between atoms: C_48  and  N_101 
REMARK   28  A    between atoms: C_49  and  O_100 
REMARK   29  A    between atoms: C_50  and  O_55 
REMARK   30  A    between atoms: C_51  and  C_53 
REMARK   31  A    between atoms: C_53  and  O_54 
REMARK   32  A    between atoms: O_55  and  C_56 
REMARK   33  A    between atoms: C_57  and  N_99 
REMARK   34  A    between atoms: C_58  and  O_98 
REMARK   35  A    between atoms: C_59  and  O_64 
REMARK   36  A    between atoms: C_60  and  C_62 
REMARK   37  A    between atoms: C_62  and  O_63 
REMARK   38  A    between atoms: O_64  and  C_65 
REMARK   39  A    between atoms: C_66  and  N_97 
REMARK   40  A    between atoms: C_67  and  O_96 
REMARK   41  A    between atoms: C_68  and  O_73 
REMARK   42  A    between atoms: C_69  and  C_71 
REMARK   43  A    between atoms: C_71  and  O_72 
REMARK   44  A    between atoms: O_73  and  C_74 
REMARK   45  A    between atoms: C_75  and  N_95 
REMARK   46  A    between atoms: C_76  and  O_94 
REMARK   47  A    between atoms: C_77  and  O_82 
REMARK   48  A    between atoms: C_78  and  C_80 
REMARK   49  A    between atoms: C_80  and  O_81 
REMARK   50  A    between atoms: O_82  and  C_83 
REMARK   51  A    between atoms: C_84  and  N_93 
REMARK   52  A    between atoms: C_85  and  O_92 
REMARK   53  A    between atoms: C_86  and  O_91 
REMARK   54  A    between atoms: C_87  and  C_89 
REMARK   55  A    between atoms: C_89  and  O_90 
ROOT
HETATM    1  C   UNL     1     -22.312  -8.583  -3.886  1.00  0.00     0.296 C 
HETATM    2  C   UNL     1     -21.021  -8.957  -4.816  1.00  0.00     0.303 C 
HETATM    3  C   UNL     1     -19.875  -7.835  -4.854  1.00  0.00     0.187 C 
HETATM    4  C   UNL     1     -20.412  -6.341  -5.092  1.00  0.00     0.186 C 
HETATM    5  C   UNL     1     -21.642  -6.229  -4.112  1.00  0.00     0.179 C 
HETATM    6  O   UNL     1     -22.655  -7.248  -4.262  1.00  0.00    -0.349 OA
ENDROOT
BRANCH   1   7
HETATM    7  O   UNL     1     -22.184  -8.657  -2.453  1.00  0.00    -0.348 OA
BRANCH   7   8
HETATM    8  C   UNL     1     -21.833  -9.950  -1.683  1.00  0.00     0.186 C 
HETATM    9  C   UNL     1     -21.762  -9.916  -0.106  1.00  0.00     0.187 C 
HETATM   10  C   UNL     1     -20.323  -9.889   0.482  1.00  0.00     0.303 C 
HETATM   11  C   UNL     1     -19.234 -10.878  -0.002  1.00  0.00     0.296 C 
HETATM   12  O   UNL     1     -19.377 -10.881  -1.465  1.00  0.00    -0.349 OA
HETATM   13  C   UNL     1     -20.645 -10.895  -2.228  1.00  0.00     0.179 C 
BRANCH   9  14
HETATM   14  O   UNL     1     -22.447 -11.071   0.411  1.00  0.00    -0.391 OA
HETATM   15  H   UNL     1     -23.408 -10.879   0.563  1.00  0.00     0.210 HD
ENDBRANCH   9  14
BRANCH  10  16
HETATM   16  N   UNL     1     -20.399  -9.885   1.937  1.00  0.00     0.090 N 
HETATM   17  H   UNL     1     -19.879 -10.689   2.282  1.00  0.00     0.313 HD
HETATM   18  H   UNL     1     -21.359 -10.160   2.160  1.00  0.00     0.313 HD
ENDBRANCH  10  16
BRANCH  11  19
HETATM   19  O   UNL     1     -18.899 -12.307   0.752  1.00  0.00    -0.348 OA
BRANCH  19  20
HETATM   20  C   UNL     1     -17.368 -12.862   0.826  1.00  0.00     0.186 C 
HETATM   21  C   UNL     1     -17.001 -14.126   1.731  1.00  0.00     0.177 C 
HETATM   22  C   UNL     1     -15.468 -14.599   1.757  1.00  0.00     0.173 C 
HETATM   23  C   UNL     1     -14.711 -14.655   0.352  1.00  0.00     0.286 C 
HETATM   24  O   UNL     1     -15.073 -13.408  -0.308  1.00  0.00    -0.349 OA
HETATM   25  C   UNL     1     -16.497 -13.127  -0.577  1.00  0.00     0.180 C 
BRANCH  21  26
HETATM   26  O   UNL     1     -17.787 -15.299   1.476  1.00  0.00    -0.391 OA
HETATM   27  H   UNL     1     -17.943 -15.440   0.535  1.00  0.00     0.210 HD
ENDBRANCH  21  26
BRANCH  22  28
HETATM   28  N   UNL     1     -15.245 -15.796   2.604  1.00  0.00    -0.325 N 
HETATM   29  C   UNL     1     -14.981 -15.777   3.950  1.00  0.00     0.360 C 
HETATM   30  O   UNL     1     -14.912 -14.743   4.606  1.00  0.00    -0.239 OA
HETATM   31  H   UNL     1     -15.497 -16.702   2.194  1.00  0.00     0.165 HD
BRANCH  29  32
HETATM   32  O   UNL     1     -14.801 -17.034   4.429  1.00  0.00    -0.309 OA
HETATM   33  C   UNL     1     -14.117 -17.183   5.686  1.00  0.00     0.215 C 
ENDBRANCH  29  32
ENDBRANCH  22  28
BRANCH  23  34
HETATM   34  O   UNL     1     -14.785 -15.891  -0.515  1.00  0.00    -0.348 OA
BRANCH  34  35
HETATM   35  C   UNL     1     -13.865 -15.945  -1.693  1.00  0.00     0.186 C 
HETATM   36  C   UNL     1     -14.438 -16.613  -3.002  1.00  0.00     0.179 C 
HETATM   37  O   UNL     1     -15.442 -15.893  -3.789  1.00  0.00    -0.349 OA
HETATM   38  C   UNL     1     -15.189 -14.536  -4.183  1.00  0.00     0.296 C 
HETATM   39  C   UNL     1     -14.067 -13.793  -3.312  1.00  0.00     0.303 C 
HETATM   40  C   UNL     1     -13.242 -14.615  -2.201  1.00  0.00     0.187 C 
BRANCH  36  41
HETATM   41  C   UNL     1     -13.336 -16.998  -4.025  1.00  0.00     0.198 C 
BRANCH  41  42
HETATM   42  O   UNL     1     -13.943 -16.944  -5.314  1.00  0.00    -0.398 OA
HETATM   43  H   UNL     1     -14.894 -17.040  -5.137  1.00  0.00     0.209 HD
ENDBRANCH  41  42
ENDBRANCH  36  41
BRANCH  38  44
HETATM   44  O   UNL     1     -15.007 -14.285  -5.615  1.00  0.00    -0.348 OA
BRANCH  44  45
HETATM   45  C   UNL     1     -16.164 -13.808  -6.367  1.00  0.00     0.186 C 
HETATM   46  C   UNL     1     -17.525 -13.575  -5.509  1.00  0.00     0.179 C 
HETATM   47  O   UNL     1     -17.468 -12.785  -4.300  1.00  0.00    -0.349 OA
HETATM   48  C   UNL     1     -16.842 -11.522  -4.530  1.00  0.00     0.292 C 
HETATM   49  C   UNL     1     -15.996 -11.285  -5.851  1.00  0.00     0.303 C 
HETATM   50  C   UNL     1     -15.758 -12.451  -7.000  1.00  0.00     0.187 C 
BRANCH  46  51
HETATM   51  C   UNL     1     -18.558 -12.963  -6.495  1.00  0.00     0.198 C 
BRANCH  51  52
HETATM   52  O   UNL     1     -19.565 -13.829  -6.905  1.00  0.00    -0.398 OA
HETATM   53  H   UNL     1     -20.315 -13.799  -6.278  1.00  0.00     0.209 HD
ENDBRANCH  51  52
ENDBRANCH  46  51
BRANCH  48  54
HETATM   54  O   UNL     1     -17.787 -10.542  -3.813  1.00  0.00    -0.369 OA
HETATM   55  H   UNL     1     -17.703 -10.579  -2.842  1.00  0.00     0.212 HD
ENDBRANCH  48  54
BRANCH  49  56
HETATM   56  N   UNL     1     -16.071  -9.877  -6.139  1.00  0.00     0.090 NA
HETATM   57  H   UNL     1     -16.728  -9.363  -5.558  1.00  0.00     0.313 HD
HETATM   58  H   UNL     1     -15.117  -9.463  -6.021  1.00  0.00     0.313 HD
ENDBRANCH  49  56
BRANCH  50  59
HETATM   59  O   UNL     1     -16.190 -12.409  -8.367  1.00  0.00    -0.391 OA
HETATM   60  H   UNL     1     -15.978 -13.206  -8.875  1.00  0.00     0.210 HD
ENDBRANCH  50  59
ENDBRANCH  44  45
ENDBRANCH  38  44
BRANCH  39  61
HETATM   61  N   UNL     1     -13.250 -12.830  -4.153  1.00  0.00     0.090 N 
HETATM   62  H   UNL     1     -13.301 -13.138  -5.116  1.00  0.00     0.313 HD
HETATM   63  H   UNL     1     -13.727 -11.936  -4.104  1.00  0.00     0.313 HD
ENDBRANCH  39  61
BRANCH  40  64
HETATM   64  O   UNL     1     -11.942 -15.040  -2.694  1.00  0.00    -0.391 OA
HETATM   65  H   UNL     1     -11.949 -15.904  -3.135  1.00  0.00     0.210 HD
ENDBRANCH  40  64
ENDBRANCH  34  35
ENDBRANCH  23  34
BRANCH  25  66
HETATM   66  C   UNL     1     -16.933 -14.179  -1.637  1.00  0.00     0.198 C 
BRANCH  66  67
HETATM   67  O   UNL     1     -18.356 -14.456  -1.613  1.00  0.00    -0.398 OA
HETATM   68  H   UNL     1     -18.609 -14.476  -0.676  1.00  0.00     0.209 HD
ENDBRANCH  66  67
ENDBRANCH  25  66
ENDBRANCH  19  20
ENDBRANCH  11  19
BRANCH  13  69
HETATM   69  C   UNL     1     -21.021 -12.407  -2.388  1.00  0.00     0.198 C 
BRANCH  69  70
HETATM   70  O   UNL     1     -20.140 -13.013  -3.355  1.00  0.00    -0.398 OA
HETATM   71  H   UNL     1     -20.642 -13.812  -3.651  1.00  0.00     0.209 HD
ENDBRANCH  69  70
ENDBRANCH  13  69
ENDBRANCH   7   8
ENDBRANCH   1   7
BRANCH   2  72
HETATM   72  N   UNL     1     -20.576 -10.358  -4.616  1.00  0.00     0.090 N 
HETATM   73  H   UNL     1     -19.887 -10.704  -5.299  1.00  0.00     0.313 HD
HETATM   74  H   UNL     1     -21.335 -11.041  -4.583  1.00  0.00     0.313 HD
ENDBRANCH   2  72
BRANCH   3  75
HETATM   75  O   UNL     1     -18.721  -8.142  -5.685  1.00  0.00    -0.391 OA
HETATM   76  H   UNL     1     -18.555  -7.370  -6.256  1.00  0.00     0.210 HD
ENDBRANCH   3  75
BRANCH   5  77
HETATM   77  C   UNL     1     -21.209  -6.048  -2.662  1.00  0.00     0.198 C 
BRANCH  77  78
HETATM   78  O   UNL     1     -22.388  -5.667  -1.955  1.00  0.00    -0.398 OA
HETATM   79  H   UNL     1     -23.009  -5.284  -2.594  1.00  0.00     0.209 HD
ENDBRANCH  77  78
ENDBRANCH   5  77
BRANCH   4  80
HETATM   80  O   UNL     1     -20.528  -5.805  -6.519  1.00  0.00    -0.348 OA
BRANCH  80  81
HETATM   81  C   UNL     1     -21.067  -4.406  -6.720  1.00  0.00     0.296 C 
HETATM   82  C   UNL     1     -22.538  -4.530  -7.248  1.00  0.00     0.303 C 
HETATM   83  C   UNL     1     -22.690  -4.478  -8.943  1.00  0.00     0.187 C 
HETATM   84  C   UNL     1     -21.788  -3.556  -9.875  1.00  0.00     0.186 C 
HETATM   85  C   UNL     1     -20.435  -3.357  -9.002  1.00  0.00     0.179 C 
HETATM   86  O   UNL     1     -20.489  -3.309  -7.506  1.00  0.00    -0.349 OA
BRANCH  82  87
HETATM   87  N   UNL     1     -23.242  -5.783  -6.686  1.00  0.00     0.090 N 
HETATM   88  H   UNL     1     -23.311  -5.633  -5.675  1.00  0.00     0.313 HD
HETATM   89  H   UNL     1     -24.165  -5.994  -7.079  1.00  0.00     0.313 HD
ENDBRANCH  82  87
BRANCH  83  90
HETATM   90  O   UNL     1     -22.547  -5.801  -9.549  1.00  0.00    -0.391 OA
HETATM   91  H   UNL     1     -21.586  -5.924  -9.565  1.00  0.00     0.210 HD
ENDBRANCH  83  90
BRANCH  84  92
HETATM   92  O   UNL     1     -22.664  -2.430 -10.419  1.00  0.00    -0.348 OA
BRANCH  92  93
HETATM   93  C   UNL     1     -23.657  -2.459 -11.597  1.00  0.00     0.296 C 
HETATM   94  C   UNL     1     -24.659  -3.731 -11.637  1.00  0.00     0.303 C 
HETATM   95  C   UNL     1     -24.586  -4.828 -12.787  1.00  0.00     0.187 C 
HETATM   96  C   UNL     1     -24.102  -4.402 -14.173  1.00  0.00     0.186 C 
HETATM   97  C   UNL     1     -23.287  -3.022 -14.088  1.00  0.00     0.179 C 
HETATM   98  O   UNL     1     -23.405  -2.064 -12.962  1.00  0.00    -0.349 OA
BRANCH  94  99
HETATM   99  N   UNL     1     -24.899  -4.385 -10.339  1.00  0.00     0.090 NA
HETATM  100  H   UNL     1     -25.317  -5.305 -10.542  1.00  0.00     0.313 HD
HETATM  101  H   UNL     1     -23.994  -4.587  -9.913  1.00  0.00     0.313 HD
ENDBRANCH  94  99
BRANCH  95 102
HETATM  102  O   UNL     1     -23.789  -5.983 -12.470  1.00  0.00    -0.391 OA
HETATM  103  H   UNL     1     -22.851  -5.694 -12.551  1.00  0.00     0.210 HD
ENDBRANCH  95 102
BRANCH  96 104
HETATM  104  O   UNL     1     -24.901  -5.121 -15.211  1.00  0.00    -0.348 OA
BRANCH 104 105
HETATM  105  C   UNL     1     -25.112  -6.509 -15.514  1.00  0.00     0.296 C 
HETATM  106  C   UNL     1     -25.346  -6.821 -17.093  1.00  0.00     0.303 C 
HETATM  107  C   UNL     1     -26.832  -6.674 -17.574  1.00  0.00     0.187 C 
HETATM  108  C   UNL     1     -27.980  -7.013 -16.597  1.00  0.00     0.186 C 
HETATM  109  C   UNL     1     -27.572  -6.914 -15.103  1.00  0.00     0.179 C 
HETATM  110  O   UNL     1     -26.173  -7.186 -14.797  1.00  0.00    -0.349 OA
BRANCH 106 111
HETATM  111  N   UNL     1     -24.417  -6.223 -18.155  1.00  0.00     0.090 N 
HETATM  112  H   UNL     1     -24.852  -6.492 -19.042  1.00  0.00     0.313 HD
HETATM  113  H   UNL     1     -23.587  -6.841 -18.121  1.00  0.00     0.313 HD
ENDBRANCH 106 111
BRANCH 107 114
HETATM  114  O   UNL     1     -26.992  -5.445 -18.270  1.00  0.00    -0.391 OA
HETATM  115  H   UNL     1     -26.266  -5.330 -18.920  1.00  0.00     0.210 HD
ENDBRANCH 107 114
BRANCH 108 116
HETATM  116  O   UNL     1     -28.380  -8.313 -17.060  1.00  0.00    -0.348 OA
BRANCH 116 117
HETATM  117  C   UNL     1     -29.702  -8.628 -17.525  1.00  0.00     0.296 C 
HETATM  118  C   UNL     1     -29.854  -8.557 -19.091  1.00  0.00     0.303 C 
HETATM  119  C   UNL     1     -30.357  -7.201 -19.609  1.00  0.00     0.187 C 
HETATM  120  C   UNL     1     -31.451  -6.597 -18.699  1.00  0.00     0.180 C 
HETATM  121  C   UNL     1     -31.321  -6.854 -17.178  1.00  0.00     0.179 C 
HETATM  122  O   UNL     1     -30.788  -8.119 -16.781  1.00  0.00    -0.349 OA
BRANCH 118 123
HETATM  123  N   UNL     1     -28.529  -8.850 -19.832  1.00  0.00     0.090 N 
HETATM  124  H   UNL     1     -28.071  -9.516 -19.212  1.00  0.00     0.313 HD
HETATM  125  H   UNL     1     -28.011  -8.016 -19.507  1.00  0.00     0.313 HD
ENDBRANCH 118 123
BRANCH 119 126
HETATM  126  O   UNL     1     -29.159  -6.467 -19.988  1.00  0.00    -0.391 OA
HETATM  127  H   UNL     1     -29.118  -6.489 -20.964  1.00  0.00     0.210 HD
ENDBRANCH 119 126
BRANCH 120 128
HETATM  128  O   UNL     1     -32.633  -7.366 -19.090  1.00  0.00    -0.390 OA
HETATM  129  H   UNL     1     -33.230  -6.727 -19.556  1.00  0.00     0.210 HD
ENDBRANCH 120 128
BRANCH 121 130
HETATM  130  C   UNL     1     -30.708  -5.699 -16.394  1.00  0.00     0.198 C 
BRANCH 130 131
HETATM  131  O   UNL     1     -30.571  -4.623 -17.293  1.00  0.00    -0.398 OA
HETATM  132  H   UNL     1     -30.748  -3.799 -16.797  1.00  0.00     0.209 HD
ENDBRANCH 130 131
ENDBRANCH 121 130
ENDBRANCH 116 117
ENDBRANCH 108 116
BRANCH 109 133
HETATM  133  C   UNL     1     -27.976  -5.556 -14.474  1.00  0.00     0.198 C 
BRANCH 133 134
HETATM  134  O   UNL     1     -29.244  -5.681 -13.835  1.00  0.00    -0.398 OA
HETATM  135  H   UNL     1     -29.750  -6.335 -14.347  1.00  0.00     0.209 HD
ENDBRANCH 133 134
ENDBRANCH 109 133
ENDBRANCH 104 105
ENDBRANCH  96 104
BRANCH  97 136
HETATM  136  C   UNL     1     -21.746  -3.255 -14.127  1.00  0.00     0.198 C 
BRANCH 136 137
HETATM  137  O   UNL     1     -21.343  -3.857 -12.891  1.00  0.00    -0.398 OA
HETATM  138  H   UNL     1     -21.572  -3.258 -12.164  1.00  0.00     0.209 HD
ENDBRANCH 136 137
ENDBRANCH  97 136
ENDBRANCH  92  93
ENDBRANCH  84  92
BRANCH  85 139
HETATM  139  C   UNL     1     -19.357  -4.449  -9.290  1.00  0.00     0.198 C 
BRANCH 139 140
HETATM  140  O   UNL     1     -19.707  -5.217 -10.474  1.00  0.00    -0.398 OA
HETATM  141  H   UNL     1     -19.588  -4.630 -11.244  1.00  0.00     0.209 HD
ENDBRANCH 139 140
ENDBRANCH  85 139
ENDBRANCH  80  81
ENDBRANCH   4  80
TORSDOF 55
ENDMDL
MODEL 4
REMARK VINA RESULT:       0.8      2.433     14.788
REMARK WARNING: 32 MAX_TORS EXCEEDED!!!
REMARK  55 active torsions:
REMARK  status: ('A' for Active; 'I' for Inactive)
REMARK    1  A    between atoms: O_2  and  C_3 
REMARK       I    between atoms: C_3  and  N_5 
REMARK    2  A    between atoms: N_5  and  C_6 
REMARK    3  A    between atoms: C_7  and  O_104 
REMARK    4  A    between atoms: C_8  and  O_37 
REMARK    5  A    between atoms: C_9  and  C_35 
REMARK    6  A    between atoms: C_11  and  O_12 
REMARK    7  A    between atoms: O_12  and  C_13 
REMARK    8  A    between atoms: C_14  and  C_33 
REMARK    9  A    between atoms: C_16  and  O_21 
REMARK   10  A    between atoms: C_17  and  N_20 
REMARK   11  A    between atoms: C_18  and  O_19 
REMARK   12  A    between atoms: O_21  and  C_22 
REMARK   13  A    between atoms: C_23  and  C_31 
REMARK   14  A    between atoms: C_25  and  O_30 
REMARK   15  A    between atoms: C_26  and  N_29 
REMARK   16  A    between atoms: C_27  and  O_28 
REMARK   17  A    between atoms: C_31  and  O_32 
REMARK   18  A    between atoms: C_33  and  O_34 
REMARK   19  A    between atoms: C_35  and  O_36 
REMARK   20  A    between atoms: O_37  and  C_38 
REMARK   21  A    between atoms: C_39  and  N_103 
REMARK   22  A    between atoms: C_40  and  O_102 
REMARK   23  A    between atoms: C_41  and  O_46 
REMARK   24  A    between atoms: C_42  and  C_44 
REMARK   25  A    between atoms: C_44  and  O_45 
REMARK   26  A    between atoms: O_46  and  C_47 
REMARK   27  A    between atoms: C_48  and  N_101 
REMARK   28  A    between atoms: C_49  and  O_100 
REMARK   29  A    between atoms: C_50  and  O_55 
REMARK   30  A    between atoms: C_51  and  C_53 
REMARK   31  A    between atoms: C_53  and  O_54 
REMARK   32  A    between atoms: O_55  and  C_56 
REMARK   33  A    between atoms: C_57  and  N_99 
REMARK   34  A    between atoms: C_58  and  O_98 
REMARK   35  A    between atoms: C_59  and  O_64 
REMARK   36  A    between atoms: C_60  and  C_62 
REMARK   37  A    between atoms: C_62  and  O_63 
REMARK   38  A    between atoms: O_64  and  C_65 
REMARK   39  A    between atoms: C_66  and  N_97 
REMARK   40  A    between atoms: C_67  and  O_96 
REMARK   41  A    between atoms: C_68  and  O_73 
REMARK   42  A    between atoms: C_69  and  C_71 
REMARK   43  A    between atoms: C_71  and  O_72 
REMARK   44  A    between atoms: O_73  and  C_74 
REMARK   45  A    between atoms: C_75  and  N_95 
REMARK   46  A    between atoms: C_76  and  O_94 
REMARK   47  A    between atoms: C_77  and  O_82 
REMARK   48  A    between atoms: C_78  and  C_80 
REMARK   49  A    between atoms: C_80  and  O_81 
REMARK   50  A    between atoms: O_82  and  C_83 
REMARK   51  A    between atoms: C_84  and  N_93 
REMARK   52  A    between atoms: C_85  and  O_92 
REMARK   53  A    between atoms: C_86  and  O_91 
REMARK   54  A    between atoms: C_87  and  C_89 
REMARK   55  A    between atoms: C_89  and  O_90 
ROOT
HETATM    1  C   UNL     1     -22.173  -8.013  -3.626  1.00  0.00     0.296 C 
HETATM    2  C   UNL     1     -21.055  -8.578  -4.676  1.00  0.00     0.303 C 
HETATM    3  C   UNL     1     -19.834  -7.576  -4.959  1.00  0.00     0.187 C 
HETATM    4  C   UNL     1     -20.270  -6.060  -5.256  1.00  0.00     0.186 C 
HETATM    5  C   UNL     1     -21.344  -5.757  -4.141  1.00  0.00     0.179 C 
HETATM    6  O   UNL     1     -22.450  -6.683  -4.071  1.00  0.00    -0.349 OA
ENDROOT
BRANCH   1   7
HETATM    7  O   UNL     1     -21.859  -7.989  -2.220  1.00  0.00    -0.348 OA
BRANCH   7   8
HETATM    8  C   UNL     1     -22.407  -9.009  -1.196  1.00  0.00     0.186 C 
HETATM    9  C   UNL     1     -21.941  -8.919   0.310  1.00  0.00     0.187 C 
HETATM   10  C   UNL     1     -20.879  -9.975   0.728  1.00  0.00     0.303 C 
HETATM   11  C   UNL     1     -21.059 -11.477   0.395  1.00  0.00     0.296 C 
HETATM   12  O   UNL     1     -21.519 -11.482  -1.001  1.00  0.00    -0.349 OA
HETATM   13  C   UNL     1     -22.508 -10.565  -1.608  1.00  0.00     0.179 C 
BRANCH   9  14
HETATM   14  O   UNL     1     -23.093  -9.067   1.159  1.00  0.00    -0.391 OA
HETATM   15  H   UNL     1     -22.876  -9.594   1.970  1.00  0.00     0.210 HD
ENDBRANCH   9  14
BRANCH  10  16
HETATM   16  N   UNL     1     -20.556  -9.800   2.138  1.00  0.00     0.090 N 
HETATM   17  H   UNL     1     -20.450 -10.723   2.555  1.00  0.00     0.313 HD
HETATM   18  H   UNL     1     -21.425  -9.483   2.578  1.00  0.00     0.313 HD
ENDBRANCH  10  16
BRANCH  11  19
HETATM   19  O   UNL     1     -21.722 -12.570   1.439  1.00  0.00    -0.348 OA
BRANCH  19  20
HETATM   20  C   UNL     1     -21.753 -14.156   1.062  1.00  0.00     0.186 C 
HETATM   21  C   UNL     1     -22.586 -14.679  -0.196  1.00  0.00     0.177 C 
HETATM   22  C   UNL     1     -22.573 -16.256  -0.490  1.00  0.00     0.173 C 
HETATM   23  C   UNL     1     -21.160 -16.994  -0.385  1.00  0.00     0.286 C 
HETATM   24  O   UNL     1     -20.571 -16.482   0.844  1.00  0.00    -0.349 OA
HETATM   25  C   UNL     1     -20.330 -15.031   0.973  1.00  0.00     0.180 C 
BRANCH  21  26
HETATM   26  O   UNL     1     -22.275 -14.029  -1.437  1.00  0.00    -0.391 OA
HETATM   27  H   UNL     1     -21.858 -14.625  -2.070  1.00  0.00     0.210 HD
ENDBRANCH  21  26
BRANCH  22  28
HETATM   28  N   UNL     1     -23.353 -16.628  -1.696  1.00  0.00    -0.325 N 
HETATM   29  C   UNL     1     -24.709 -16.829  -1.732  1.00  0.00     0.360 C 
HETATM   30  O   UNL     1     -25.433 -16.708  -0.748  1.00  0.00    -0.239 OA
HETATM   31  H   UNL     1     -22.874 -16.538  -2.598  1.00  0.00     0.165 HD
BRANCH  29  32
HETATM   32  O   UNL     1     -25.117 -17.183  -2.977  1.00  0.00    -0.309 OA
HETATM   33  C   UNL     1     -24.741 -16.332  -4.075  1.00  0.00     0.215 C 
ENDBRANCH  29  32
ENDBRANCH  22  28
BRANCH  23  34
HETATM   34  O   UNL     1     -20.230 -17.049  -1.575  1.00  0.00    -0.348 OA
BRANCH  34  35
HETATM   35  C   UNL     1     -20.749 -16.494  -2.863  1.00  0.00     0.186 C 
HETATM   36  C   UNL     1     -20.548 -14.947  -3.093  1.00  0.00     0.179 C 
HETATM   37  O   UNL     1     -19.205 -14.438  -3.387  1.00  0.00    -0.349 OA
HETATM   38  C   UNL     1     -18.438 -15.041  -4.440  1.00  0.00     0.296 C 
HETATM   39  C   UNL     1     -18.923 -16.512  -4.853  1.00  0.00     0.303 C 
HETATM   40  C   UNL     1     -20.253 -17.131  -4.191  1.00  0.00     0.187 C 
BRANCH  36  41
HETATM   41  C   UNL     1     -21.443 -14.375  -4.224  1.00  0.00     0.198 C 
BRANCH  41  42
HETATM   42  O   UNL     1     -21.598 -12.983  -3.955  1.00  0.00    -0.398 OA
HETATM   43  H   UNL     1     -21.472 -12.555  -4.818  1.00  0.00     0.209 HD
ENDBRANCH  41  42
ENDBRANCH  36  41
BRANCH  38  44
HETATM   44  O   UNL     1     -18.171 -14.215  -5.621  1.00  0.00    -0.348 OA
BRANCH  44  45
HETATM   45  C   UNL     1     -17.986 -12.782  -5.413  1.00  0.00     0.186 C 
HETATM   46  C   UNL     1     -16.906 -12.362  -4.273  1.00  0.00     0.179 C 
HETATM   47  O   UNL     1     -15.583 -12.946  -4.307  1.00  0.00    -0.349 OA
HETATM   48  C   UNL     1     -14.981 -12.801  -5.594  1.00  0.00     0.292 C 
HETATM   49  C   UNL     1     -15.873 -12.414  -6.848  1.00  0.00     0.303 C 
HETATM   50  C   UNL     1     -17.511 -12.191  -6.766  1.00  0.00     0.187 C 
BRANCH  46  51
HETATM   51  C   UNL     1     -16.804 -10.812  -4.325  1.00  0.00     0.198 C 
BRANCH  51  52
HETATM   52  O   UNL     1     -16.173 -10.227  -3.234  1.00  0.00    -0.398 OA
HETATM   53  H   UNL     1     -16.835  -9.852  -2.619  1.00  0.00     0.209 HD
ENDBRANCH  51  52
ENDBRANCH  46  51
BRANCH  48  54
HETATM   54  O   UNL     1     -13.560 -12.322  -5.250  1.00  0.00    -0.369 OA
HETATM   55  H   UNL     1     -13.547 -11.676  -4.520  1.00  0.00     0.212 HD
ENDBRANCH  48  54
BRANCH  49  56
HETATM   56  N   UNL     1     -15.012 -11.712  -7.763  1.00  0.00     0.090 NA
HETATM   57  H   UNL     1     -15.491 -11.304  -8.562  1.00  0.00     0.313 HD
HETATM   58  H   UNL     1     -14.520 -10.952  -7.238  1.00  0.00     0.313 HD
ENDBRANCH  49  56
BRANCH  50  59
HETATM   59  O   UNL     1     -18.225 -10.978  -7.039  1.00  0.00    -0.391 OA
HETATM   60  H   UNL     1     -17.658 -10.225  -7.259  1.00  0.00     0.210 HD
ENDBRANCH  50  59
ENDBRANCH  44  45
ENDBRANCH  38  44
BRANCH  39  61
HETATM   61  N   UNL     1     -18.756 -16.761  -6.341  1.00  0.00     0.090 N 
HETATM   62  H   UNL     1     -18.795 -17.761  -6.495  1.00  0.00     0.313 HD
HETATM   63  H   UNL     1     -19.574 -16.361  -6.788  1.00  0.00     0.313 HD
ENDBRANCH  39  61
BRANCH  40  64
HETATM   64  O   UNL     1     -21.409 -16.991  -5.063  1.00  0.00    -0.391 OA
HETATM   65  H   UNL     1     -22.006 -16.268  -4.815  1.00  0.00     0.210 HD
ENDBRANCH  40  64
ENDBRANCH  34  35
ENDBRANCH  23  34
BRANCH  25  66
HETATM   66  C   UNL     1     -19.219 -14.703  -0.066  1.00  0.00     0.198 C 
BRANCH  66  67
HETATM   67  O   UNL     1     -17.940 -15.304   0.259  1.00  0.00    -0.398 OA
HETATM   68  H   UNL     1     -17.517 -14.706   0.896  1.00  0.00     0.209 HD
ENDBRANCH  66  67
ENDBRANCH  25  66
ENDBRANCH  19  20
ENDBRANCH  11  19
BRANCH  13  69
HETATM   69  C   UNL     1     -23.904 -11.228  -1.355  1.00  0.00     0.198 C 
BRANCH  69  70
HETATM   70  O   UNL     1     -24.020 -11.568   0.040  1.00  0.00    -0.398 OA
HETATM   71  H   UNL     1     -24.416 -10.755   0.441  1.00  0.00     0.209 HD
ENDBRANCH  69  70
ENDBRANCH  13  69
ENDBRANCH   7   8
ENDBRANCH   1   7
BRANCH   2  72
HETATM   72  N   UNL     1     -20.707  -9.995  -4.412  1.00  0.00     0.090 N 
HETATM   73  H   UNL     1     -20.969 -10.348  -3.480  1.00  0.00     0.313 HD
HETATM   74  H   UNL     1     -19.721 -10.220  -4.551  1.00  0.00     0.313 HD
ENDBRANCH   2  72
BRANCH   3  75
HETATM   75  O   UNL     1     -18.833  -8.053  -5.900  1.00  0.00    -0.391 OA
HETATM   76  H   UNL     1     -19.275  -8.189  -6.757  1.00  0.00     0.210 HD
ENDBRANCH   3  75
BRANCH   5  77
HETATM   77  C   UNL     1     -20.706  -5.509  -2.780  1.00  0.00     0.198 C 
BRANCH  77  78
HETATM   78  O   UNL     1     -21.792  -5.283  -1.883  1.00  0.00    -0.398 OA
HETATM   79  H   UNL     1     -21.423  -5.117  -1.002  1.00  0.00     0.209 HD
ENDBRANCH  77  78
ENDBRANCH   5  77
BRANCH   4  80
HETATM   80  O   UNL     1     -20.533  -5.626  -6.698  1.00  0.00    -0.348 OA
BRANCH  80  81
HETATM   81  C   UNL     1     -21.034  -4.219  -6.947  1.00  0.00     0.296 C 
HETATM   82  C   UNL     1     -22.519  -4.320  -7.439  1.00  0.00     0.303 C 
HETATM   83  C   UNL     1     -22.705  -4.332  -9.132  1.00  0.00     0.187 C 
HETATM   84  C   UNL     1     -21.795  -3.477 -10.118  1.00  0.00     0.186 C 
HETATM   85  C   UNL     1     -20.418  -3.284  -9.282  1.00  0.00     0.179 C 
HETATM   86  O   UNL     1     -20.440  -3.174  -7.788  1.00  0.00    -0.349 OA
BRANCH  82  87
HETATM   87  N   UNL     1     -23.248  -5.526  -6.812  1.00  0.00     0.090 N 
HETATM   88  H   UNL     1     -23.964  -5.803  -7.491  1.00  0.00     0.313 HD
HETATM   89  H   UNL     1     -22.659  -6.330  -6.568  1.00  0.00     0.313 HD
ENDBRANCH  82  87
BRANCH  83  90
HETATM   90  O   UNL     1     -22.614  -5.682  -9.686  1.00  0.00    -0.391 OA
HETATM   91  H   UNL     1     -23.125  -5.610 -10.506  1.00  0.00     0.210 HD
ENDBRANCH  83  90
BRANCH  84  92
HETATM   92  O   UNL     1     -22.648  -2.347 -10.691  1.00  0.00    -0.348 OA
BRANCH  92  93
HETATM   93  C   UNL     1     -23.642  -2.385 -11.868  1.00  0.00     0.296 C 
HETATM   94  C   UNL     1     -24.679  -3.630 -11.869  1.00  0.00     0.303 C 
HETATM   95  C   UNL     1     -24.635  -4.764 -12.985  1.00  0.00     0.187 C 
HETATM   96  C   UNL     1     -24.140  -4.395 -14.382  1.00  0.00     0.186 C 
HETATM   97  C   UNL     1     -23.287  -3.036 -14.340  1.00  0.00     0.179 C 
HETATM   98  O   UNL     1     -23.379  -2.040 -13.245  1.00  0.00    -0.349 OA
BRANCH  94  99
HETATM   99  N   UNL     1     -24.937  -4.237 -10.552  1.00  0.00     0.090 NA
HETATM  100  H   UNL     1     -24.089  -4.764 -10.296  1.00  0.00     0.313 HD
HETATM  101  H   UNL     1     -25.007  -3.486  -9.864  1.00  0.00     0.313 HD
ENDBRANCH  94  99
BRANCH  95 102
HETATM  102  O   UNL     1     -23.871  -5.930 -12.631  1.00  0.00    -0.391 OA
HETATM  103  H   UNL     1     -24.339  -6.336 -11.866  1.00  0.00     0.210 HD
ENDBRANCH  95 102
BRANCH  96 104
HETATM  104  O   UNL     1     -24.959  -5.124 -15.398  1.00  0.00    -0.348 OA
BRANCH 104 105
HETATM  105  C   UNL     1     -25.204  -6.515 -15.661  1.00  0.00     0.296 C 
HETATM  106  C   UNL     1     -25.517  -6.856 -17.220  1.00  0.00     0.303 C 
HETATM  107  C   UNL     1     -27.022  -6.696 -17.633  1.00  0.00     0.187 C 
HETATM  108  C   UNL     1     -28.127  -6.997 -16.597  1.00  0.00     0.186 C 
HETATM  109  C   UNL     1     -27.646  -6.874 -15.126  1.00  0.00     0.179 C 
HETATM  110  O   UNL     1     -26.239  -7.160 -14.880  1.00  0.00    -0.349 OA
BRANCH 106 111
HETATM  111  N   UNL     1     -24.631  -6.294 -18.338  1.00  0.00     0.090 N 
HETATM  112  H   UNL     1     -24.234  -5.442 -17.931  1.00  0.00     0.313 HD
HETATM  113  H   UNL     1     -25.314  -5.915 -19.017  1.00  0.00     0.313 HD
ENDBRANCH 106 111
BRANCH 107 114
HETATM  114  O   UNL     1     -27.198  -5.479 -18.347  1.00  0.00    -0.391 OA
HETATM  115  H   UNL     1     -26.369  -4.954 -18.324  1.00  0.00     0.210 HD
ENDBRANCH 107 114
BRANCH 108 116
HETATM  116  O   UNL     1     -28.566  -8.300 -17.012  1.00  0.00    -0.348 OA
BRANCH 116 117
HETATM  117  C   UNL     1     -29.896  -8.590 -17.473  1.00  0.00     0.296 C 
HETATM  118  C   UNL     1     -30.049  -8.527 -19.039  1.00  0.00     0.303 C 
HETATM  119  C   UNL     1     -30.524  -7.166 -19.567  1.00  0.00     0.187 C 
HETATM  120  C   UNL     1     -31.603  -6.530 -18.660  1.00  0.00     0.180 C 
HETATM  121  C   UNL     1     -31.475  -6.778 -17.136  1.00  0.00     0.179 C 
HETATM  122  O   UNL     1     -30.969  -8.051 -16.731  1.00  0.00    -0.349 OA
BRANCH 118 123
HETATM  123  N   UNL     1     -28.732  -8.856 -19.780  1.00  0.00     0.090 N 
HETATM  124  H   UNL     1     -29.002  -8.773 -20.759  1.00  0.00     0.313 HD
HETATM  125  H   UNL     1     -28.809  -9.886 -19.728  1.00  0.00     0.313 HD
ENDBRANCH 118 123
BRANCH 119 126
HETATM  126  O   UNL     1     -29.311  -6.460 -19.954  1.00  0.00    -0.391 OA
HETATM  127  H   UNL     1     -28.570  -6.920 -19.512  1.00  0.00     0.210 HD
ENDBRANCH 119 126
BRANCH 120 128
HETATM  128  O   UNL     1     -32.802  -7.276 -19.043  1.00  0.00    -0.390 OA
HETATM  129  H   UNL     1     -32.779  -8.115 -18.517  1.00  0.00     0.210 HD
ENDBRANCH 120 128
BRANCH 121 130
HETATM  130  C   UNL     1     -30.836  -5.632 -16.362  1.00  0.00     0.198 C 
BRANCH 130 131
HETATM  131  O   UNL     1     -31.800  -4.607 -16.282  1.00  0.00    -0.398 OA
HETATM  132  H   UNL     1     -32.346  -4.650 -17.092  1.00  0.00     0.209 HD
ENDBRANCH 130 131
ENDBRANCH 121 130
ENDBRANCH 116 117
ENDBRANCH 108 116
BRANCH 109 133
HETATM  133  C   UNL     1     -28.001  -5.497 -14.507  1.00  0.00     0.198 C 
BRANCH 133 134
HETATM  134  O   UNL     1     -29.218  -5.600 -13.773  1.00  0.00    -0.398 OA
HETATM  135  H   UNL     1     -29.653  -4.731 -13.831  1.00  0.00     0.209 HD
ENDBRANCH 133 134
ENDBRANCH 109 133
ENDBRANCH 104 105
ENDBRANCH  96 104
BRANCH  97 136
HETATM  136  C   UNL     1     -21.754  -3.313 -14.370  1.00  0.00     0.198 C 
BRANCH 136 137
HETATM  137  O   UNL     1     -21.347  -3.779 -13.079  1.00  0.00    -0.398 OA
HETATM  138  H   UNL     1     -21.281  -3.020 -12.480  1.00  0.00     0.209 HD
ENDBRANCH 136 137
ENDBRANCH  97 136
ENDBRANCH  92  93
ENDBRANCH  84  92
BRANCH  85 139
HETATM  139  C   UNL     1     -19.380  -4.419  -9.545  1.00  0.00     0.198 C 
BRANCH 139 140
HETATM  140  O   UNL     1     -19.637  -5.064 -10.823  1.00  0.00    -0.398 OA
HETATM  141  H   UNL     1     -19.543  -6.025 -10.686  1.00  0.00     0.209 HD
ENDBRANCH 139 140
ENDBRANCH  85 139
ENDBRANCH  80  81
ENDBRANCH   4  80
TORSDOF 55
ENDMDL
MODEL 5
REMARK VINA RESULT:       1.4      2.235     14.860
REMARK WARNING: 32 MAX_TORS EXCEEDED!!!
REMARK  55 active torsions:
REMARK  status: ('A' for Active; 'I' for Inactive)
REMARK    1  A    between atoms: O_2  and  C_3 
REMARK       I    between atoms: C_3  and  N_5 
REMARK    2  A    between atoms: N_5  and  C_6 
REMARK    3  A    between atoms: C_7  and  O_104 
REMARK    4  A    between atoms: C_8  and  O_37 
REMARK    5  A    between atoms: C_9  and  C_35 
REMARK    6  A    between atoms: C_11  and  O_12 
REMARK    7  A    between atoms: O_12  and  C_13 
REMARK    8  A    between atoms: C_14  and  C_33 
REMARK    9  A    between atoms: C_16  and  O_21 
REMARK   10  A    between atoms: C_17  and  N_20 
REMARK   11  A    between atoms: C_18  and  O_19 
REMARK   12  A    between atoms: O_21  and  C_22 
REMARK   13  A    between atoms: C_23  and  C_31 
REMARK   14  A    between atoms: C_25  and  O_30 
REMARK   15  A    between atoms: C_26  and  N_29 
REMARK   16  A    between atoms: C_27  and  O_28 
REMARK   17  A    between atoms: C_31  and  O_32 
REMARK   18  A    between atoms: C_33  and  O_34 
REMARK   19  A    between atoms: C_35  and  O_36 
REMARK   20  A    between atoms: O_37  and  C_38 
REMARK   21  A    between atoms: C_39  and  N_103 
REMARK   22  A    between atoms: C_40  and  O_102 
REMARK   23  A    between atoms: C_41  and  O_46 
REMARK   24  A    between atoms: C_42  and  C_44 
REMARK   25  A    between atoms: C_44  and  O_45 
REMARK   26  A    between atoms: O_46  and  C_47 
REMARK   27  A    between atoms: C_48  and  N_101 
REMARK   28  A    between atoms: C_49  and  O_100 
REMARK   29  A    between atoms: C_50  and  O_55 
REMARK   30  A    between atoms: C_51  and  C_53 
REMARK   31  A    between atoms: C_53  and  O_54 
REMARK   32  A    between atoms: O_55  and  C_56 
REMARK   33  A    between atoms: C_57  and  N_99 
REMARK   34  A    between atoms: C_58  and  O_98 
REMARK   35  A    between atoms: C_59  and  O_64 
REMARK   36  A    between atoms: C_60  and  C_62 
REMARK   37  A    between atoms: C_62  and  O_63 
REMARK   38  A    between atoms: O_64  and  C_65 
REMARK   39  A    between atoms: C_66  and  N_97 
REMARK   40  A    between atoms: C_67  and  O_96 
REMARK   41  A    between atoms: C_68  and  O_73 
REMARK   42  A    between atoms: C_69  and  C_71 
REMARK   43  A    between atoms: C_71  and  O_72 
REMARK   44  A    between atoms: O_73  and  C_74 
REMARK   45  A    between atoms: C_75  and  N_95 
REMARK   46  A    between atoms: C_76  and  O_94 
REMARK   47  A    between atoms: C_77  and  O_82 
REMARK   48  A    between atoms: C_78  and  C_80 
REMARK   49  A    between atoms: C_80  and  O_81 
REMARK   50  A    between atoms: O_82  and  C_83 
REMARK   51  A    between atoms: C_84  and  N_93 
REMARK   52  A    between atoms: C_85  and  O_92 
REMARK   53  A    between atoms: C_86  and  O_91 
REMARK   54  A    between atoms: C_87  and  C_89 
REMARK   55  A    between atoms: C_89  and  O_90 
ROOT
HETATM    1  C   UNL     1     -22.269  -8.425  -3.838  1.00  0.00     0.296 C 
HETATM    2  C   UNL     1     -21.037  -8.851  -4.824  1.00  0.00     0.303 C 
HETATM    3  C   UNL     1     -19.871  -7.756  -4.951  1.00  0.00     0.187 C 
HETATM    4  C   UNL     1     -20.387  -6.256  -5.198  1.00  0.00     0.186 C 
HETATM    5  C   UNL     1     -21.562  -6.092  -4.158  1.00  0.00     0.179 C 
HETATM    6  O   UNL     1     -22.602  -7.092  -4.229  1.00  0.00    -0.349 OA
ENDROOT
BRANCH   1   7
HETATM    7  O   UNL     1     -22.067  -8.467  -2.412  1.00  0.00    -0.348 OA
BRANCH   7   8
HETATM    8  C   UNL     1     -22.235  -9.740  -1.553  1.00  0.00     0.186 C 
HETATM    9  C   UNL     1     -21.947  -9.671  -0.002  1.00  0.00     0.187 C 
HETATM   10  C   UNL     1     -20.585 -10.279   0.437  1.00  0.00     0.303 C 
HETATM   11  C   UNL     1     -20.133 -11.679  -0.049  1.00  0.00     0.296 C 
HETATM   12  O   UNL     1     -20.455 -11.682  -1.483  1.00  0.00    -0.349 OA
HETATM   13  C   UNL     1     -21.682 -11.148  -2.114  1.00  0.00     0.179 C 
BRANCH   9  14
HETATM   14  O   UNL     1     -23.002 -10.359   0.694  1.00  0.00    -0.391 OA
HETATM   15  H   UNL     1     -23.590  -9.721   1.173  1.00  0.00     0.210 HD
ENDBRANCH   9  14
BRANCH  10  16
HETATM   16  N   UNL     1     -20.457 -10.175   1.884  1.00  0.00     0.090 N 
HETATM   17  H   UNL     1     -20.038  -9.272   2.100  1.00  0.00     0.313 HD
HETATM   18  H   UNL     1     -19.697 -10.812   2.136  1.00  0.00     0.313 HD
ENDBRANCH  10  16
BRANCH  11  19
HETATM   19  O   UNL     1     -20.378 -13.067   0.810  1.00  0.00    -0.348 OA
BRANCH  19  20
HETATM   20  C   UNL     1     -19.606 -14.442   0.394  1.00  0.00     0.186 C 
HETATM   21  C   UNL     1     -19.459 -14.861  -1.140  1.00  0.00     0.177 C 
HETATM   22  C   UNL     1     -18.696 -16.235  -1.463  1.00  0.00     0.173 C 
HETATM   23  C   UNL     1     -17.346 -16.512  -0.655  1.00  0.00     0.286 C 
HETATM   24  O   UNL     1     -17.667 -16.168   0.723  1.00  0.00    -0.349 OA
HETATM   25  C   UNL     1     -18.102 -14.793   1.036  1.00  0.00     0.180 C 
BRANCH  21  26
HETATM   26  O   UNL     1     -18.874 -13.860  -1.986  1.00  0.00    -0.391 OA
HETATM   27  H   UNL     1     -19.483 -13.555  -2.670  1.00  0.00     0.210 HD
ENDBRANCH  21  26
BRANCH  22  28
HETATM   28  N   UNL     1     -18.590 -16.513  -2.915  1.00  0.00    -0.325 N 
HETATM   29  C   UNL     1     -19.642 -16.811  -3.744  1.00  0.00     0.360 C 
HETATM   30  O   UNL     1     -20.805 -16.869  -3.359  1.00  0.00    -0.239 OA
HETATM   31  H   UNL     1     -17.700 -16.276  -3.365  1.00  0.00     0.165 HD
BRANCH  29  32
HETATM   32  O   UNL     1     -19.215 -17.038  -5.012  1.00  0.00    -0.309 OA
HETATM   33  C   UNL     1     -20.190 -16.993  -6.069  1.00  0.00     0.215 C 
ENDBRANCH  29  32
ENDBRANCH  22  28
BRANCH  23  34
HETATM   34  O   UNL     1     -16.023 -15.985  -1.162  1.00  0.00    -0.348 OA
BRANCH  34  35
HETATM   35  C   UNL     1     -15.552 -16.505  -2.484  1.00  0.00     0.186 C 
HETATM   36  C   UNL     1     -16.520 -16.287  -3.710  1.00  0.00     0.179 C 
HETATM   37  O   UNL     1     -16.673 -14.941  -4.267  1.00  0.00    -0.349 OA
HETATM   38  C   UNL     1     -15.505 -14.187  -4.619  1.00  0.00     0.296 C 
HETATM   39  C   UNL     1     -14.155 -14.690  -3.915  1.00  0.00     0.303 C 
HETATM   40  C   UNL     1     -14.173 -16.024  -3.014  1.00  0.00     0.187 C 
BRANCH  36  41
HETATM   41  C   UNL     1     -16.174 -17.183  -4.929  1.00  0.00     0.198 C 
BRANCH  41  42
HETATM   42  O   UNL     1     -16.722 -16.536  -6.076  1.00  0.00    -0.398 OA
HETATM   43  H   UNL     1     -17.541 -17.027  -6.261  1.00  0.00     0.209 HD
ENDBRANCH  41  42
ENDBRANCH  36  41
BRANCH  38  44
HETATM   44  O   UNL     1     -15.295 -13.917  -6.044  1.00  0.00    -0.348 OA
BRANCH  44  45
HETATM   45  C   UNL     1     -16.027 -12.799  -6.633  1.00  0.00     0.186 C 
HETATM   46  C   UNL     1     -17.520 -13.136  -7.179  1.00  0.00     0.179 C 
HETATM   47  O   UNL     1     -18.450 -13.823  -6.310  1.00  0.00    -0.349 OA
HETATM   48  C   UNL     1     -18.554 -13.177  -5.042  1.00  0.00     0.292 C 
HETATM   49  C   UNL     1     -17.461 -12.114  -4.601  1.00  0.00     0.303 C 
HETATM   50  C   UNL     1     -16.152 -11.715  -5.530  1.00  0.00     0.187 C 
BRANCH  46  51
HETATM   51  C   UNL     1     -18.126 -11.782  -7.641  1.00  0.00     0.198 C 
BRANCH  51  52
HETATM   52  O   UNL     1     -19.494 -11.647  -7.432  1.00  0.00    -0.398 OA
HETATM   53  H   UNL     1     -19.668 -11.299  -6.535  1.00  0.00     0.209 HD
ENDBRANCH  51  52
ENDBRANCH  46  51
BRANCH  48  54
HETATM   54  O   UNL     1     -20.074 -13.135  -4.807  1.00  0.00    -0.369 OA
HETATM   55  H   UNL     1     -20.584 -13.412  -5.591  1.00  0.00     0.212 HD
ENDBRANCH  48  54
BRANCH  49  56
HETATM   56  N   UNL     1     -18.117 -11.198  -3.704  1.00  0.00     0.090 NA
HETATM   57  H   UNL     1     -17.507 -10.786  -3.003  1.00  0.00     0.313 HD
HETATM   58  H   UNL     1     -18.550 -10.432  -4.271  1.00  0.00     0.313 HD
ENDBRANCH  49  56
BRANCH  50  59
HETATM   59  O   UNL     1     -15.854 -10.427  -6.085  1.00  0.00    -0.391 OA
HETATM   60  H   UNL     1     -16.332  -9.695  -5.668  1.00  0.00     0.210 HD
ENDBRANCH  50  59
ENDBRANCH  44  45
ENDBRANCH  38  44
BRANCH  39  61
HETATM   61  N   UNL     1     -12.953 -14.534  -4.828  1.00  0.00     0.090 N 
HETATM   62  H   UNL     1     -13.068 -15.172  -5.606  1.00  0.00     0.313 HD
HETATM   63  H   UNL     1     -13.006 -13.594  -5.208  1.00  0.00     0.313 HD
ENDBRANCH  39  61
BRANCH  40  64
HETATM   64  O   UNL     1     -13.692 -17.183  -3.749  1.00  0.00    -0.391 OA
HETATM   65  H   UNL     1     -12.999 -17.682  -3.291  1.00  0.00     0.210 HD
ENDBRANCH  40  64
ENDBRANCH  34  35
ENDBRANCH  23  34
BRANCH  25  66
HETATM   66  C   UNL     1     -16.858 -13.896   0.772  1.00  0.00     0.198 C 
BRANCH  66  67
HETATM   67  O   UNL     1     -17.170 -12.480   0.755  1.00  0.00    -0.398 OA
HETATM   68  H   UNL     1     -16.359 -12.029   0.470  1.00  0.00     0.209 HD
ENDBRANCH  66  67
ENDBRANCH  25  66
ENDBRANCH  19  20
ENDBRANCH  11  19
BRANCH  13  69
HETATM   69  C   UNL     1     -22.715 -12.326  -2.082  1.00  0.00     0.198 C 
BRANCH  69  70
HETATM   70  O   UNL     1     -23.949 -11.857  -1.504  1.00  0.00    -0.398 OA
HETATM   71  H   UNL     1     -23.985 -10.908  -1.781  1.00  0.00     0.209 HD
ENDBRANCH  69  70
ENDBRANCH  13  69
ENDBRANCH   7   8
ENDBRANCH   1   7
BRANCH   2  72
HETATM   72  N   UNL     1     -20.612 -10.256  -4.612  1.00  0.00     0.090 N 
HETATM   73  H   UNL     1     -21.293 -10.972  -4.903  1.00  0.00     0.313 HD
HETATM   74  H   UNL     1     -20.339 -10.473  -3.652  1.00  0.00     0.313 HD
ENDBRANCH   2  72
BRANCH   3  75
HETATM   75  O   UNL     1     -18.768  -8.109  -5.833  1.00  0.00    -0.391 OA
HETATM   76  H   UNL     1     -17.943  -7.819  -5.404  1.00  0.00     0.210 HD
ENDBRANCH   3  75
BRANCH   5  77
HETATM   77  C   UNL     1     -21.049  -5.887  -2.738  1.00  0.00     0.198 C 
BRANCH  77  78
HETATM   78  O   UNL     1     -22.201  -5.572  -1.957  1.00  0.00    -0.398 OA
HETATM   79  H   UNL     1     -22.517  -4.698  -2.230  1.00  0.00     0.209 HD
ENDBRANCH  77  78
ENDBRANCH   5  77
BRANCH   4  80
HETATM   80  O   UNL     1     -20.568  -5.753  -6.630  1.00  0.00    -0.348 OA
BRANCH  80  81
HETATM   81  C   UNL     1     -21.098  -4.351  -6.839  1.00  0.00     0.296 C 
HETATM   82  C   UNL     1     -22.568  -4.469  -7.370  1.00  0.00     0.303 C 
HETATM   83  C   UNL     1     -22.714  -4.422  -9.067  1.00  0.00     0.187 C 
HETATM   84  C   UNL     1     -21.804  -3.510  -9.999  1.00  0.00     0.186 C 
HETATM   85  C   UNL     1     -20.452  -3.315  -9.123  1.00  0.00     0.179 C 
HETATM   86  O   UNL     1     -20.511  -3.261  -7.627  1.00  0.00    -0.349 OA
BRANCH  82  87
HETATM   87  N   UNL     1     -23.280  -5.715  -6.805  1.00  0.00     0.090 N 
HETATM   88  H   UNL     1     -23.986  -5.360  -6.154  1.00  0.00     0.313 HD
HETATM   89  H   UNL     1     -23.714  -6.337  -7.497  1.00  0.00     0.313 HD
ENDBRANCH  82  87
BRANCH  83  90
HETATM   90  O   UNL     1     -22.577  -5.749  -9.667  1.00  0.00    -0.391 OA
HETATM   91  H   UNL     1     -22.386  -5.543 -10.594  1.00  0.00     0.210 HD
ENDBRANCH  83  90
BRANCH  84  92
HETATM   92  O   UNL     1     -22.671  -2.381 -10.550  1.00  0.00    -0.348 OA
BRANCH  92  93
HETATM   93  C   UNL     1     -23.658  -2.407 -11.733  1.00  0.00     0.296 C 
HETATM   94  C   UNL     1     -24.677  -3.665 -11.768  1.00  0.00     0.303 C 
HETATM   95  C   UNL     1     -24.612  -4.774 -12.907  1.00  0.00     0.187 C 
HETATM   96  C   UNL     1     -24.114  -4.368 -14.294  1.00  0.00     0.186 C 
HETATM   97  C   UNL     1     -23.280  -2.999 -14.217  1.00  0.00     0.179 C 
HETATM   98  O   UNL     1     -23.392  -2.028 -13.101  1.00  0.00    -0.349 OA
BRANCH  94  99
HETATM   99  N   UNL     1     -24.934  -4.304 -10.466  1.00  0.00     0.090 NA
HETATM  100  H   UNL     1     -25.734  -4.940 -10.598  1.00  0.00     0.313 HD
HETATM  101  H   UNL     1     -24.141  -4.909 -10.246  1.00  0.00     0.313 HD
ENDBRANCH  94  99
BRANCH  95 102
HETATM  102  O   UNL     1     -23.833  -5.937 -12.574  1.00  0.00    -0.391 OA
HETATM  103  H   UNL     1     -22.934  -5.604 -12.348  1.00  0.00     0.210 HD
ENDBRANCH  95 102
BRANCH  96 104
HETATM  104  O   UNL     1     -24.916  -5.087 -15.330  1.00  0.00    -0.348 OA
BRANCH 104 105
HETATM  105  C   UNL     1     -25.152  -6.474 -15.615  1.00  0.00     0.296 C 
HETATM  106  C   UNL     1     -25.471  -6.791 -17.178  1.00  0.00     0.303 C 
HETATM  107  C   UNL     1     -26.978  -6.636 -17.582  1.00  0.00     0.187 C 
HETATM  108  C   UNL     1     -28.076  -6.962 -16.545  1.00  0.00     0.186 C 
HETATM  109  C   UNL     1     -27.590  -6.860 -15.075  1.00  0.00     0.179 C 
HETATM  110  O   UNL     1     -26.179  -7.140 -14.840  1.00  0.00    -0.349 OA
BRANCH 106 111
HETATM  111  N   UNL     1     -24.594  -6.204 -18.290  1.00  0.00     0.090 N 
HETATM  112  H   UNL     1     -25.225  -6.142 -19.094  1.00  0.00     0.313 HD
HETATM  113  H   UNL     1     -23.980  -6.995 -18.553  1.00  0.00     0.313 HD
ENDBRANCH 106 111
BRANCH 107 114
HETATM  114  O   UNL     1     -27.166  -5.408 -18.274  1.00  0.00    -0.391 OA
HETATM  115  H   UNL     1     -27.888  -5.501 -18.932  1.00  0.00     0.210 HD
ENDBRANCH 107 114
BRANCH 108 116
HETATM  116  O   UNL     1     -28.508  -8.261 -16.980  1.00  0.00    -0.348 OA
BRANCH 116 117
HETATM  117  C   UNL     1     -29.842  -8.557 -17.425  1.00  0.00     0.296 C 
HETATM  118  C   UNL     1     -30.002  -8.541 -18.992  1.00  0.00     0.303 C 
HETATM  119  C   UNL     1     -30.471  -7.192 -19.558  1.00  0.00     0.187 C 
HETATM  120  C   UNL     1     -31.542  -6.523 -18.666  1.00  0.00     0.180 C 
HETATM  121  C   UNL     1     -31.408  -6.726 -17.137  1.00  0.00     0.179 C 
HETATM  122  O   UNL     1     -30.908  -7.989 -16.695  1.00  0.00    -0.349 OA
BRANCH 118 123
HETATM  123  N   UNL     1     -28.691  -8.900 -19.729  1.00  0.00     0.090 N 
HETATM  124  H   UNL     1     -28.391  -9.746 -19.248  1.00  0.00     0.313 HD
HETATM  125  H   UNL     1     -28.072  -8.250 -19.215  1.00  0.00     0.313 HD
ENDBRANCH 118 123
BRANCH 119 126
HETATM  126  O   UNL     1     -29.256  -6.507 -19.973  1.00  0.00    -0.391 OA
HETATM  127  H   UNL     1     -29.538  -5.761 -20.537  1.00  0.00     0.210 HD
ENDBRANCH 119 126
BRANCH 120 128
HETATM  128  O   UNL     1     -32.748  -7.273 -19.020  1.00  0.00    -0.390 OA
HETATM  129  H   UNL     1     -33.109  -6.837 -19.832  1.00  0.00     0.210 HD
ENDBRANCH 120 128
BRANCH 121 130
HETATM  130  C   UNL     1     -30.758  -5.560 -16.400  1.00  0.00     0.198 C 
BRANCH 130 131
HETATM  131  O   UNL     1     -31.540  -4.420 -16.672  1.00  0.00    -0.398 OA
HETATM  132  H   UNL     1     -32.429  -4.728 -16.940  1.00  0.00     0.209 HD
ENDBRANCH 130 131
ENDBRANCH 121 130
ENDBRANCH 116 117
ENDBRANCH 108 116
BRANCH 109 133
HETATM  133  C   UNL     1     -27.952  -5.497 -14.431  1.00  0.00     0.198 C 
BRANCH 133 134
HETATM  134  O   UNL     1     -29.247  -5.572 -13.843  1.00  0.00    -0.398 OA
HETATM  135  H   UNL     1     -29.113  -5.710 -12.889  1.00  0.00     0.209 HD
ENDBRANCH 133 134
ENDBRANCH 109 133
ENDBRANCH 104 105
ENDBRANCH  96 104
BRANCH  97 136
HETATM  136  C   UNL     1     -21.743  -3.254 -14.244  1.00  0.00     0.198 C 
BRANCH 136 137
HETATM  137  O   UNL     1     -21.378  -3.979 -13.064  1.00  0.00    -0.398 OA
HETATM  138  H   UNL     1     -21.235  -3.348 -12.343  1.00  0.00     0.209 HD
ENDBRANCH 136 137
ENDBRANCH  97 136
ENDBRANCH  92  93
ENDBRANCH  84  92
BRANCH  85 139
HETATM  139  C   UNL     1     -19.380  -4.414  -9.402  1.00  0.00     0.198 C 
BRANCH 139 140
HETATM  140  O   UNL     1     -19.678  -5.120 -10.638  1.00  0.00    -0.398 OA
HETATM  141  H   UNL     1     -19.989  -4.457 -11.281  1.00  0.00     0.209 HD
ENDBRANCH 139 140
ENDBRANCH  85 139
ENDBRANCH  80  81
ENDBRANCH   4  80
TORSDOF 55
ENDMDL
MODEL 6
REMARK VINA RESULT:       1.7      2.738     15.894
REMARK WARNING: 32 MAX_TORS EXCEEDED!!!
REMARK  55 active torsions:
REMARK  status: ('A' for Active; 'I' for Inactive)
REMARK    1  A    between atoms: O_2  and  C_3 
REMARK       I    between atoms: C_3  and  N_5 
REMARK    2  A    between atoms: N_5  and  C_6 
REMARK    3  A    between atoms: C_7  and  O_104 
REMARK    4  A    between atoms: C_8  and  O_37 
REMARK    5  A    between atoms: C_9  and  C_35 
REMARK    6  A    between atoms: C_11  and  O_12 
REMARK    7  A    between atoms: O_12  and  C_13 
REMARK    8  A    between atoms: C_14  and  C_33 
REMARK    9  A    between atoms: C_16  and  O_21 
REMARK   10  A    between atoms: C_17  and  N_20 
REMARK   11  A    between atoms: C_18  and  O_19 
REMARK   12  A    between atoms: O_21  and  C_22 
REMARK   13  A    between atoms: C_23  and  C_31 
REMARK   14  A    between atoms: C_25  and  O_30 
REMARK   15  A    between atoms: C_26  and  N_29 
REMARK   16  A    between atoms: C_27  and  O_28 
REMARK   17  A    between atoms: C_31  and  O_32 
REMARK   18  A    between atoms: C_33  and  O_34 
REMARK   19  A    between atoms: C_35  and  O_36 
REMARK   20  A    between atoms: O_37  and  C_38 
REMARK   21  A    between atoms: C_39  and  N_103 
REMARK   22  A    between atoms: C_40  and  O_102 
REMARK   23  A    between atoms: C_41  and  O_46 
REMARK   24  A    between atoms: C_42  and  C_44 
REMARK   25  A    between atoms: C_44  and  O_45 
REMARK   26  A    between atoms: O_46  and  C_47 
REMARK   27  A    between atoms: C_48  and  N_101 
REMARK   28  A    between atoms: C_49  and  O_100 
REMARK   29  A    between atoms: C_50  and  O_55 
REMARK   30  A    between atoms: C_51  and  C_53 
REMARK   31  A    between atoms: C_53  and  O_54 
REMARK   32  A    between atoms: O_55  and  C_56 
REMARK   33  A    between atoms: C_57  and  N_99 
REMARK   34  A    between atoms: C_58  and  O_98 
REMARK   35  A    between atoms: C_59  and  O_64 
REMARK   36  A    between atoms: C_60  and  C_62 
REMARK   37  A    between atoms: C_62  and  O_63 
REMARK   38  A    between atoms: O_64  and  C_65 
REMARK   39  A    between atoms: C_66  and  N_97 
REMARK   40  A    between atoms: C_67  and  O_96 
REMARK   41  A    between atoms: C_68  and  O_73 
REMARK   42  A    between atoms: C_69  and  C_71 
REMARK   43  A    between atoms: C_71  and  O_72 
REMARK   44  A    between atoms: O_73  and  C_74 
REMARK   45  A    between atoms: C_75  and  N_95 
REMARK   46  A    between atoms: C_76  and  O_94 
REMARK   47  A    between atoms: C_77  and  O_82 
REMARK   48  A    between atoms: C_78  and  C_80 
REMARK   49  A    between atoms: C_80  and  O_81 
REMARK   50  A    between atoms: O_82  and  C_83 
REMARK   51  A    between atoms: C_84  and  N_93 
REMARK   52  A    between atoms: C_85  and  O_92 
REMARK   53  A    between atoms: C_86  and  O_91 
REMARK   54  A    between atoms: C_87  and  C_89 
REMARK   55  A    between atoms: C_89  and  O_90 
ROOT
HETATM    1  C   UNL     1     -20.744  -7.708  -2.247  1.00  0.00     0.296 C 
HETATM    2  C   UNL     1     -21.573  -6.388  -2.738  1.00  0.00     0.303 C 
HETATM    3  C   UNL     1     -22.117  -6.460  -4.246  1.00  0.00     0.187 C 
HETATM    4  C   UNL     1     -21.038  -6.963  -5.322  1.00  0.00     0.186 C 
HETATM    5  C   UNL     1     -20.373  -8.212  -4.625  1.00  0.00     0.179 C 
HETATM    6  O   UNL     1     -19.825  -7.975  -3.309  1.00  0.00    -0.349 OA
ENDROOT
BRANCH   1   7
HETATM    7  O   UNL     1     -21.471  -8.911  -1.933  1.00  0.00    -0.348 OA
BRANCH   7   8
HETATM    8  C   UNL     1     -20.844 -10.323  -1.928  1.00  0.00     0.186 C 
HETATM    9  C   UNL     1     -21.780 -11.587  -2.069  1.00  0.00     0.187 C 
HETATM   10  C   UNL     1     -22.046 -12.354  -0.743  1.00  0.00     0.303 C 
HETATM   11  C   UNL     1     -20.887 -12.748   0.207  1.00  0.00     0.296 C 
HETATM   12  O   UNL     1     -20.047 -11.544   0.267  1.00  0.00    -0.349 OA
HETATM   13  C   UNL     1     -19.680 -10.666  -0.866  1.00  0.00     0.179 C 
BRANCH   9  14
HETATM   14  O   UNL     1     -21.189 -12.496  -3.014  1.00  0.00    -0.391 OA
HETATM   15  H   UNL     1     -21.091 -13.403  -2.626  1.00  0.00     0.210 HD
ENDBRANCH   9  14
BRANCH  10  16
HETATM   16  N   UNL     1     -22.897 -13.503  -1.015  1.00  0.00     0.090 N 
HETATM   17  H   UNL     1     -22.510 -14.307  -0.523  1.00  0.00     0.313 HD
HETATM   18  H   UNL     1     -22.708 -13.758  -1.989  1.00  0.00     0.313 HD
ENDBRANCH  10  16
BRANCH  11  19
HETATM   19  O   UNL     1     -20.142 -14.220   0.174  1.00  0.00    -0.348 OA
BRANCH  19  20
HETATM   20  C   UNL     1     -19.932 -15.007  -1.239  1.00  0.00     0.186 C 
HETATM   21  C   UNL     1     -19.200 -14.295  -2.467  1.00  0.00     0.177 C 
HETATM   22  C   UNL     1     -19.045 -15.135  -3.825  1.00  0.00     0.173 C 
HETATM   23  C   UNL     1     -18.580 -16.656  -3.678  1.00  0.00     0.286 C 
HETATM   24  O   UNL     1     -19.391 -17.183  -2.590  1.00  0.00    -0.349 OA
HETATM   25  C   UNL     1     -19.298 -16.554  -1.257  1.00  0.00     0.180 C 
BRANCH  21  26
HETATM   26  O   UNL     1     -17.904 -13.757  -2.169  1.00  0.00    -0.391 OA
HETATM   27  H   UNL     1     -17.941 -12.830  -1.907  1.00  0.00     0.210 HD
ENDBRANCH  21  26
BRANCH  22  28
HETATM   28  N   UNL     1     -18.327 -14.392  -4.889  1.00  0.00    -0.325 N 
HETATM   29  C   UNL     1     -18.909 -13.530  -5.785  1.00  0.00     0.360 C 
HETATM   30  O   UNL     1     -20.109 -13.275  -5.789  1.00  0.00    -0.239 OA
HETATM   31  H   UNL     1     -17.304 -14.371  -4.825  1.00  0.00     0.165 HD
BRANCH  29  32
HETATM   32  O   UNL     1     -17.988 -13.029  -6.646  1.00  0.00    -0.309 OA
HETATM   33  C   UNL     1     -17.234 -11.876  -6.229  1.00  0.00     0.215 C 
ENDBRANCH  29  32
ENDBRANCH  22  28
BRANCH  23  34
HETATM   34  O   UNL     1     -17.112 -17.011  -3.622  1.00  0.00    -0.348 OA
BRANCH  34  35
HETATM   35  C   UNL     1     -16.148 -15.972  -4.101  1.00  0.00     0.186 C 
HETATM   36  C   UNL     1     -15.850 -14.780  -3.112  1.00  0.00     0.179 C 
HETATM   37  O   UNL     1     -15.028 -15.028  -1.925  1.00  0.00    -0.349 OA
HETATM   38  C   UNL     1     -13.755 -15.676  -2.070  1.00  0.00     0.296 C 
HETATM   39  C   UNL     1     -13.584 -16.498  -3.436  1.00  0.00     0.303 C 
HETATM   40  C   UNL     1     -14.736 -16.434  -4.558  1.00  0.00     0.187 C 
BRANCH  36  41
HETATM   41  C   UNL     1     -15.184 -13.562  -3.806  1.00  0.00     0.198 C 
BRANCH  41  42
HETATM   42  O   UNL     1     -15.365 -12.449  -2.932  1.00  0.00    -0.398 OA
HETATM   43  H   UNL     1     -16.136 -12.691  -2.391  1.00  0.00     0.209 HD
ENDBRANCH  41  42
ENDBRANCH  36  41
BRANCH  38  44
HETATM   44  O   UNL     1     -12.566 -14.872  -1.778  1.00  0.00    -0.348 OA
BRANCH  44  45
HETATM   45  C   UNL     1     -11.912 -15.081  -0.490  1.00  0.00     0.186 C 
HETATM   46  C   UNL     1     -12.025 -13.856   0.573  1.00  0.00     0.179 C 
HETATM   47  O   UNL     1     -13.325 -13.290   0.860  1.00  0.00    -0.349 OA
HETATM   48  C   UNL     1     -14.268 -14.301   1.214  1.00  0.00     0.292 C 
HETATM   49  C   UNL     1     -13.951 -15.825   0.906  1.00  0.00     0.303 C 
HETATM   50  C   UNL     1     -12.570 -16.332   0.149  1.00  0.00     0.187 C 
BRANCH  46  51
HETATM   51  C   UNL     1     -11.365 -14.360   1.886  1.00  0.00     0.198 C 
BRANCH  51  52
HETATM   52  O   UNL     1     -10.002 -14.619   1.797  1.00  0.00    -0.398 OA
HETATM   53  H   UNL     1      -9.546 -14.319   2.609  1.00  0.00     0.209 HD
ENDBRANCH  51  52
ENDBRANCH  46  51
BRANCH  48  54
HETATM   54  O   UNL     1     -14.956 -13.702   2.453  1.00  0.00    -0.369 OA
HETATM   55  H   UNL     1     -15.245 -12.781   2.315  1.00  0.00     0.212 HD
ENDBRANCH  48  54
BRANCH  49  56
HETATM   56  N   UNL     1     -14.655 -16.599   1.895  1.00  0.00     0.090 NA
HETATM   57  H   UNL     1     -15.076 -17.453   1.538  1.00  0.00     0.313 HD
HETATM   58  H   UNL     1     -13.985 -16.845   2.661  1.00  0.00     0.313 HD
ENDBRANCH  49  56
BRANCH  50  59
HETATM   59  O   UNL     1     -11.554 -17.183   0.697  1.00  0.00    -0.391 OA
HETATM   60  H   UNL     1     -10.833 -16.707   1.136  1.00  0.00     0.210 HD
ENDBRANCH  50  59
ENDBRANCH  44  45
ENDBRANCH  38  44
BRANCH  39  61
HETATM   61  N   UNL     1     -12.160 -16.431  -3.957  1.00  0.00     0.090 N 
HETATM   62  H   UNL     1     -12.109 -15.673  -4.626  1.00  0.00     0.313 HD
HETATM   63  H   UNL     1     -11.582 -16.166  -3.166  1.00  0.00     0.313 HD
ENDBRANCH  39  61
BRANCH  40  64
HETATM   64  O   UNL     1     -14.416 -15.484  -5.612  1.00  0.00    -0.391 OA
HETATM   65  H   UNL     1     -13.592 -15.681  -6.085  1.00  0.00     0.210 HD
ENDBRANCH  40  64
ENDBRANCH  34  35
ENDBRANCH  23  34
BRANCH  25  66
HETATM   66  C   UNL     1     -17.858 -16.867  -0.754  1.00  0.00     0.198 C 
BRANCH  66  67
HETATM   67  O   UNL     1     -17.241 -15.751  -0.065  1.00  0.00    -0.398 OA
HETATM   68  H   UNL     1     -17.689 -14.954  -0.391  1.00  0.00     0.209 HD
ENDBRANCH  66  67
ENDBRANCH  25  66
ENDBRANCH  19  20
ENDBRANCH  11  19
BRANCH  13  69
HETATM   69  C   UNL     1     -18.385 -11.296  -1.481  1.00  0.00     0.198 C 
BRANCH  69  70
HETATM   70  O   UNL     1     -18.381 -11.074  -2.904  1.00  0.00    -0.398 OA
HETATM   71  H   UNL     1     -18.111 -11.952  -3.272  1.00  0.00     0.209 HD
ENDBRANCH  69  70
ENDBRANCH  13  69
ENDBRANCH   7   8
ENDBRANCH   1   7
BRANCH   2  72
HETATM   72  N   UNL     1     -22.527  -5.913  -1.707  1.00  0.00     0.090 N 
HETATM   73  H   UNL     1     -22.249  -5.053  -1.210  1.00  0.00     0.313 HD
HETATM   74  H   UNL     1     -22.760  -6.608  -0.996  1.00  0.00     0.313 HD
ENDBRANCH   2  72
BRANCH   3  75
HETATM   75  O   UNL     1     -22.849  -5.291  -4.708  1.00  0.00    -0.391 OA
HETATM   76  H   UNL     1     -23.078  -5.437  -5.644  1.00  0.00     0.210 HD
ENDBRANCH   3  75
BRANCH   5  77
HETATM   77  C   UNL     1     -21.273  -9.442  -4.667  1.00  0.00     0.198 C 
BRANCH  77  78
HETATM   78  O   UNL     1     -20.444 -10.506  -5.130  1.00  0.00    -0.398 OA
HETATM   79  H   UNL     1     -21.015 -11.174  -5.539  1.00  0.00     0.209 HD
ENDBRANCH  77  78
ENDBRANCH   5  77
BRANCH   4  80
HETATM   80  O   UNL     1     -20.158  -5.937  -6.035  1.00  0.00    -0.348 OA
BRANCH  80  81
HETATM   81  C   UNL     1     -20.135  -5.936  -7.548  1.00  0.00     0.296 C 
HETATM   82  C   UNL     1     -19.354  -4.660  -8.015  1.00  0.00     0.303 C 
HETATM   83  C   UNL     1     -20.338  -3.312  -8.358  1.00  0.00     0.187 C 
HETATM   84  C   UNL     1     -21.773  -3.426  -9.034  1.00  0.00     0.186 C 
HETATM   85  C   UNL     1     -22.258  -4.920  -8.628  1.00  0.00     0.179 C 
HETATM   86  O   UNL     1     -21.266  -6.033  -8.478  1.00  0.00    -0.349 OA
BRANCH  82  87
HETATM   87  N   UNL     1     -18.245  -4.272  -7.015  1.00  0.00     0.090 N 
HETATM   88  H   UNL     1     -18.097  -3.266  -7.139  1.00  0.00     0.313 HD
HETATM   89  H   UNL     1     -18.433  -4.486  -6.030  1.00  0.00     0.313 HD
ENDBRANCH  82  87
BRANCH  83  90
HETATM   90  O   UNL     1     -20.597  -2.504  -7.167  1.00  0.00    -0.391 OA
HETATM   91  H   UNL     1     -20.828  -3.172  -6.504  1.00  0.00     0.210 HD
ENDBRANCH  83  90
BRANCH  84  92
HETATM   92  O   UNL     1     -21.670  -2.886 -10.459  1.00  0.00    -0.348 OA
BRANCH  92  93
HETATM   93  C   UNL     1     -21.781  -3.646 -11.794  1.00  0.00     0.296 C 
HETATM   94  C   UNL     1     -22.653  -2.914 -12.946  1.00  0.00     0.303 C 
HETATM   95  C   UNL     1     -24.030  -3.513 -13.473  1.00  0.00     0.187 C 
HETATM   96  C   UNL     1     -24.225  -5.028 -13.446  1.00  0.00     0.186 C 
HETATM   97  C   UNL     1     -23.188  -5.715 -12.432  1.00  0.00     0.179 C 
HETATM   98  O   UNL     1     -21.931  -5.070 -11.979  1.00  0.00    -0.349 OA
BRANCH  94  99
HETATM   99  N   UNL     1     -22.764  -1.450 -12.819  1.00  0.00     0.090 NA
HETATM  100  H   UNL     1     -22.326  -1.044 -13.659  1.00  0.00     0.313 HD
HETATM  101  H   UNL     1     -23.751  -1.200 -12.880  1.00  0.00     0.313 HD
ENDBRANCH  94  99
BRANCH  95 102
HETATM  102  O   UNL     1     -25.203  -2.991 -12.824  1.00  0.00    -0.391 OA
HETATM  103  H   UNL     1     -25.924  -3.634 -13.013  1.00  0.00     0.210 HD
ENDBRANCH  95 102
BRANCH  96 104
HETATM  104  O   UNL     1     -24.973  -5.445 -14.671  1.00  0.00    -0.348 OA
BRANCH 104 105
HETATM  105  C   UNL     1     -25.301  -6.720 -15.246  1.00  0.00     0.296 C 
HETATM  106  C   UNL     1     -25.303  -6.739 -16.873  1.00  0.00     0.303 C 
HETATM  107  C   UNL     1     -26.656  -6.294 -17.529  1.00  0.00     0.187 C 
HETATM  108  C   UNL     1     -27.986  -6.604 -16.806  1.00  0.00     0.186 C 
HETATM  109  C   UNL     1     -27.826  -6.806 -15.276  1.00  0.00     0.179 C 
HETATM  110  O   UNL     1     -26.545  -7.331 -14.824  1.00  0.00    -0.349 OA
BRANCH 106 111
HETATM  111  N   UNL     1     -24.140  -6.130 -17.664  1.00  0.00     0.090 N 
HETATM  112  H   UNL     1     -24.083  -5.169 -17.315  1.00  0.00     0.313 HD
HETATM  113  H   UNL     1     -24.539  -5.996 -18.610  1.00  0.00     0.313 HD
ENDBRANCH 106 111
BRANCH 107 114
HETATM  114  O   UNL     1     -26.541  -4.960 -18.009  1.00  0.00    -0.391 OA
HETATM  115  H   UNL     1     -26.855  -4.909 -18.937  1.00  0.00     0.210 HD
ENDBRANCH 107 114
BRANCH 108 116
HETATM  116  O   UNL     1     -28.461  -7.739 -17.548  1.00  0.00    -0.348 OA
BRANCH 116 117
HETATM  117  C   UNL     1     -29.788  -8.276 -17.431  1.00  0.00     0.296 C 
HETATM  118  C   UNL     1     -30.275  -9.042 -18.719  1.00  0.00     0.303 C 
HETATM  119  C   UNL     1     -31.075  -8.171 -19.699  1.00  0.00     0.187 C 
HETATM  120  C   UNL     1     -32.031  -7.199 -18.972  1.00  0.00     0.180 C 
HETATM  121  C   UNL     1     -31.547  -6.615 -17.622  1.00  0.00     0.179 C 
HETATM  122  O   UNL     1     -30.758  -7.471 -16.795  1.00  0.00    -0.349 OA
BRANCH 118 123
HETATM  123  N   UNL     1     -29.106  -9.657 -19.524  1.00  0.00     0.090 N 
HETATM  124  H   UNL     1     -28.305  -9.479 -18.921  1.00  0.00     0.313 HD
HETATM  125  H   UNL     1     -28.951  -8.856 -20.158  1.00  0.00     0.313 HD
ENDBRANCH 118 123
BRANCH 119 126
HETATM  126  O   UNL     1     -30.108  -7.724 -20.691  1.00  0.00    -0.391 OA
HETATM  127  H   UNL     1     -29.237  -7.726 -20.250  1.00  0.00     0.210 HD
ENDBRANCH 119 126
BRANCH 120 128
HETATM  128  O   UNL     1     -33.139  -8.080 -18.601  1.00  0.00    -0.390 OA
HETATM  129  H   UNL     1     -32.996  -8.921 -19.103  1.00  0.00     0.210 HD
ENDBRANCH 120 128
BRANCH 121 130
HETATM  130  C   UNL     1     -30.965  -5.209 -17.716  1.00  0.00     0.198 C 
BRANCH 130 131
HETATM  131  O   UNL     1     -30.710  -4.785 -16.396  1.00  0.00    -0.398 OA
HETATM  132  H   UNL     1     -30.540  -5.583 -15.857  1.00  0.00     0.209 HD
ENDBRANCH 130 131
ENDBRANCH 121 130
ENDBRANCH 116 117
ENDBRANCH 108 116
BRANCH 109 133
HETATM  133  C   UNL     1     -28.158  -5.518 -14.478  1.00  0.00     0.198 C 
BRANCH 133 134
HETATM  134  O   UNL     1     -29.485  -5.600 -13.965  1.00  0.00    -0.398 OA
HETATM  135  H   UNL     1     -29.997  -4.900 -14.405  1.00  0.00     0.209 HD
ENDBRANCH 133 134
ENDBRANCH 109 133
ENDBRANCH 104 105
ENDBRANCH  96 104
BRANCH  97 136
HETATM  136  C   UNL     1     -23.856  -6.066 -11.069  1.00  0.00     0.198 C 
BRANCH 136 137
HETATM  137  O   UNL     1     -24.558  -4.913 -10.592  1.00  0.00    -0.398 OA
HETATM  138  H   UNL     1     -24.243  -4.134 -11.076  1.00  0.00     0.209 HD
ENDBRANCH 136 137
ENDBRANCH  97 136
ENDBRANCH  92  93
ENDBRANCH  84  92
BRANCH  85 139
HETATM  139  C   UNL     1     -23.052  -4.960  -7.285  1.00  0.00     0.198 C 
BRANCH 139 140
HETATM  140  O   UNL     1     -24.206  -4.078  -7.343  1.00  0.00    -0.398 OA
HETATM  141  H   UNL     1     -23.985  -3.279  -6.829  1.00  0.00     0.209 HD
ENDBRANCH 139 140
ENDBRANCH  85 139
ENDBRANCH  80  81
ENDBRANCH   4  80
TORSDOF 55
ENDMDL
MODEL 7
REMARK VINA RESULT:       1.7      2.998     16.332
REMARK WARNING: 32 MAX_TORS EXCEEDED!!!
REMARK  55 active torsions:
REMARK  status: ('A' for Active; 'I' for Inactive)
REMARK    1  A    between atoms: O_2  and  C_3 
REMARK       I    between atoms: C_3  and  N_5 
REMARK    2  A    between atoms: N_5  and  C_6 
REMARK    3  A    between atoms: C_7  and  O_104 
REMARK    4  A    between atoms: C_8  and  O_37 
REMARK    5  A    between atoms: C_9  and  C_35 
REMARK    6  A    between atoms: C_11  and  O_12 
REMARK    7  A    between atoms: O_12  and  C_13 
REMARK    8  A    between atoms: C_14  and  C_33 
REMARK    9  A    between atoms: C_16  and  O_21 
REMARK   10  A    between atoms: C_17  and  N_20 
REMARK   11  A    between atoms: C_18  and  O_19 
REMARK   12  A    between atoms: O_21  and  C_22 
REMARK   13  A    between atoms: C_23  and  C_31 
REMARK   14  A    between atoms: C_25  and  O_30 
REMARK   15  A    between atoms: C_26  and  N_29 
REMARK   16  A    between atoms: C_27  and  O_28 
REMARK   17  A    between atoms: C_31  and  O_32 
REMARK   18  A    between atoms: C_33  and  O_34 
REMARK   19  A    between atoms: C_35  and  O_36 
REMARK   20  A    between atoms: O_37  and  C_38 
REMARK   21  A    between atoms: C_39  and  N_103 
REMARK   22  A    between atoms: C_40  and  O_102 
REMARK   23  A    between atoms: C_41  and  O_46 
REMARK   24  A    between atoms: C_42  and  C_44 
REMARK   25  A    between atoms: C_44  and  O_45 
REMARK   26  A    between atoms: O_46  and  C_47 
REMARK   27  A    between atoms: C_48  and  N_101 
REMARK   28  A    between atoms: C_49  and  O_100 
REMARK   29  A    between atoms: C_50  and  O_55 
REMARK   30  A    between atoms: C_51  and  C_53 
REMARK   31  A    between atoms: C_53  and  O_54 
REMARK   32  A    between atoms: O_55  and  C_56 
REMARK   33  A    between atoms: C_57  and  N_99 
REMARK   34  A    between atoms: C_58  and  O_98 
REMARK   35  A    between atoms: C_59  and  O_64 
REMARK   36  A    between atoms: C_60  and  C_62 
REMARK   37  A    between atoms: C_62  and  O_63 
REMARK   38  A    between atoms: O_64  and  C_65 
REMARK   39  A    between atoms: C_66  and  N_97 
REMARK   40  A    between atoms: C_67  and  O_96 
REMARK   41  A    between atoms: C_68  and  O_73 
REMARK   42  A    between atoms: C_69  and  C_71 
REMARK   43  A    between atoms: C_71  and  O_72 
REMARK   44  A    between atoms: O_73  and  C_74 
REMARK   45  A    between atoms: C_75  and  N_95 
REMARK   46  A    between atoms: C_76  and  O_94 
REMARK   47  A    between atoms: C_77  and  O_82 
REMARK   48  A    between atoms: C_78  and  C_80 
REMARK   49  A    between atoms: C_80  and  O_81 
REMARK   50  A    between atoms: O_82  and  C_83 
REMARK   51  A    between atoms: C_84  and  N_93 
REMARK   52  A    between atoms: C_85  and  O_92 
REMARK   53  A    between atoms: C_86  and  O_91 
REMARK   54  A    between atoms: C_87  and  C_89 
REMARK   55  A    between atoms: C_89  and  O_90 
ROOT
HETATM    1  C   UNL     1     -20.610  -7.692  -2.148  1.00  0.00     0.296 C 
HETATM    2  C   UNL     1     -21.377  -6.342  -2.658  1.00  0.00     0.303 C 
HETATM    3  C   UNL     1     -21.979  -6.434  -4.143  1.00  0.00     0.187 C 
HETATM    4  C   UNL     1     -20.970  -7.037  -5.236  1.00  0.00     0.186 C 
HETATM    5  C   UNL     1     -20.355  -8.298  -4.517  1.00  0.00     0.179 C 
HETATM    6  O   UNL     1     -19.748  -8.050  -3.230  1.00  0.00    -0.349 OA
ENDROOT
BRANCH   1   7
HETATM    7  O   UNL     1     -21.396  -8.838  -1.766  1.00  0.00    -0.348 OA
BRANCH   7   8
HETATM    8  C   UNL     1     -20.820 -10.263  -1.599  1.00  0.00     0.186 C 
HETATM    9  C   UNL     1     -21.628 -11.495  -2.166  1.00  0.00     0.187 C 
HETATM   10  C   UNL     1     -22.390 -12.325  -1.094  1.00  0.00     0.303 C 
HETATM   11  C   UNL     1     -21.693 -12.795   0.208  1.00  0.00     0.296 C 
HETATM   12  O   UNL     1     -20.942 -11.615   0.660  1.00  0.00    -0.349 OA
HETATM   13  C   UNL     1     -20.162 -10.687  -0.189  1.00  0.00     0.179 C 
BRANCH   9  14
HETATM   14  O   UNL     1     -20.715 -12.366  -2.857  1.00  0.00    -0.391 OA
HETATM   15  H   UNL     1     -20.636 -13.240  -2.396  1.00  0.00     0.210 HD
ENDBRANCH   9  14
BRANCH  10  16
HETATM   16  N   UNL     1     -23.068 -13.439  -1.742  1.00  0.00     0.090 N 
HETATM   17  H   UNL     1     -22.582 -13.640  -2.614  1.00  0.00     0.313 HD
HETATM   18  H   UNL     1     -23.950 -13.055  -2.091  1.00  0.00     0.313 HD
ENDBRANCH  10  16
BRANCH  11  19
HETATM   19  O   UNL     1     -20.993 -14.280   0.383  1.00  0.00    -0.348 OA
BRANCH  19  20
HETATM   20  C   UNL     1     -20.365 -15.053  -0.908  1.00  0.00     0.186 C 
HETATM   21  C   UNL     1     -19.422 -14.282  -1.940  1.00  0.00     0.177 C 
HETATM   22  C   UNL     1     -18.854 -15.113  -3.190  1.00  0.00     0.173 C 
HETATM   23  C   UNL     1     -18.299 -16.578  -2.883  1.00  0.00     0.286 C 
HETATM   24  O   UNL     1     -19.302 -17.175  -2.012  1.00  0.00    -0.349 OA
HETATM   25  C   UNL     1     -19.603 -16.530  -0.719  1.00  0.00     0.180 C 
BRANCH  21  26
HETATM   26  O   UNL     1     -18.297 -13.615  -1.348  1.00  0.00    -0.391 OA
HETATM   27  H   UNL     1     -17.708 -13.230  -2.008  1.00  0.00     0.210 HD
ENDBRANCH  21  26
BRANCH  22  28
HETATM   28  N   UNL     1     -17.968 -14.310  -4.067  1.00  0.00    -0.325 N 
HETATM   29  C   UNL     1     -18.238 -13.970  -5.368  1.00  0.00     0.360 C 
HETATM   30  O   UNL     1     -19.270 -14.295  -5.948  1.00  0.00    -0.239 OA
HETATM   31  H   UNL     1     -17.196 -13.814  -3.610  1.00  0.00     0.165 HD
BRANCH  29  32
HETATM   32  O   UNL     1     -17.219 -13.252  -5.906  1.00  0.00    -0.309 OA
HETATM   33  C   UNL     1     -17.463 -12.563  -7.145  1.00  0.00     0.215 C 
ENDBRANCH  29  32
ENDBRANCH  22  28
BRANCH  23  34
HETATM   34  O   UNL     1     -16.864 -16.784  -2.454  1.00  0.00    -0.348 OA
BRANCH  34  35
HETATM   35  C   UNL     1     -16.037 -15.554  -2.254  1.00  0.00     0.186 C 
HETATM   36  C   UNL     1     -15.477 -15.313  -0.799  1.00  0.00     0.179 C 
HETATM   37  O   UNL     1     -14.385 -16.156  -0.307  1.00  0.00    -0.349 OA
HETATM   38  C   UNL     1     -13.202 -16.315  -1.104  1.00  0.00     0.296 C 
HETATM   39  C   UNL     1     -13.397 -15.958  -2.655  1.00  0.00     0.303 C 
HETATM   40  C   UNL     1     -14.795 -15.346  -3.165  1.00  0.00     0.187 C 
BRANCH  36  41
HETATM   41  C   UNL     1     -14.990 -13.858  -0.564  1.00  0.00     0.198 C 
BRANCH  41  42
HETATM   42  O   UNL     1     -15.781 -13.332   0.499  1.00  0.00    -0.398 OA
HETATM   43  H   UNL     1     -16.607 -13.052   0.069  1.00  0.00     0.209 HD
ENDBRANCH  41  42
ENDBRANCH  36  41
BRANCH  38  44
HETATM   44  O   UNL     1     -11.964 -15.737  -0.575  1.00  0.00    -0.348 OA
BRANCH  44  45
HETATM   45  C   UNL     1     -12.004 -15.179   0.774  1.00  0.00     0.186 C 
HETATM   46  C   UNL     1     -11.844 -16.246   1.990  1.00  0.00     0.179 C 
HETATM   47  O   UNL     1     -10.743 -17.183   1.965  1.00  0.00    -0.349 OA
HETATM   48  C   UNL     1      -9.496 -16.517   1.765  1.00  0.00     0.292 C 
HETATM   49  C   UNL     1      -9.471 -15.019   1.242  1.00  0.00     0.303 C 
HETATM   50  C   UNL     1     -10.837 -14.162   0.872  1.00  0.00     0.187 C 
BRANCH  46  51
HETATM   51  C   UNL     1     -11.799 -15.408   3.297  1.00  0.00     0.198 C 
BRANCH  51  52
HETATM   52  O   UNL     1     -12.587 -15.892   4.335  1.00  0.00    -0.398 OA
HETATM   53  H   UNL     1     -12.156 -15.722   5.196  1.00  0.00     0.209 HD
ENDBRANCH  51  52
ENDBRANCH  46  51
BRANCH  48  54
HETATM   54  O   UNL     1      -8.589 -17.175   2.820  1.00  0.00    -0.369 OA
HETATM   55  H   UNL     1      -7.658 -16.897   2.742  1.00  0.00     0.212 HD
ENDBRANCH  48  54
BRANCH  49  56
HETATM   56  N   UNL     1      -8.264 -14.425   1.755  1.00  0.00     0.090 NA
HETATM   57  H   UNL     1      -7.772 -13.834   1.091  1.00  0.00     0.313 HD
HETATM   58  H   UNL     1      -8.509 -13.857   2.600  1.00  0.00     0.313 HD
ENDBRANCH  49  56
BRANCH  50  59
HETATM   59  O   UNL     1     -11.296 -12.963   1.512  1.00  0.00    -0.391 OA
HETATM   60  H   UNL     1     -10.619 -12.276   1.599  1.00  0.00     0.210 HD
ENDBRANCH  50  59
ENDBRANCH  44  45
ENDBRANCH  38  44
BRANCH  39  61
HETATM   61  N   UNL     1     -12.151 -15.324  -3.247  1.00  0.00     0.090 N 
HETATM   62  H   UNL     1     -11.548 -16.069  -3.572  1.00  0.00     0.313 HD
HETATM   63  H   UNL     1     -12.457 -14.812  -4.067  1.00  0.00     0.313 HD
ENDBRANCH  39  61
BRANCH  40  64
HETATM   64  O   UNL     1     -14.739 -13.899  -3.300  1.00  0.00    -0.391 OA
HETATM   65  H   UNL     1     -13.918 -13.571  -3.700  1.00  0.00     0.210 HD
ENDBRANCH  40  64
ENDBRANCH  34  35
ENDBRANCH  23  34
BRANCH  25  66
HETATM   66  C   UNL     1     -18.311 -16.693   0.135  1.00  0.00     0.198 C 
BRANCH  66  67
HETATM   67  O   UNL     1     -18.085 -15.585   1.042  1.00  0.00    -0.398 OA
HETATM   68  H   UNL     1     -17.573 -14.929   0.542  1.00  0.00     0.209 HD
ENDBRANCH  66  67
ENDBRANCH  25  66
ENDBRANCH  19  20
ENDBRANCH  11  19
BRANCH  13  69
HETATM   69  C   UNL     1     -18.730 -11.313  -0.287  1.00  0.00     0.198 C 
BRANCH  69  70
HETATM   70  O   UNL     1     -18.255 -11.617   1.040  1.00  0.00    -0.398 OA
HETATM   71  H   UNL     1     -18.897 -12.297   1.362  1.00  0.00     0.209 HD
ENDBRANCH  69  70
ENDBRANCH  13  69
ENDBRANCH   7   8
ENDBRANCH   1   7
BRANCH   2  72
HETATM   72  N   UNL     1     -22.265  -5.776  -1.614  1.00  0.00     0.090 N 
HETATM   73  H   UNL     1     -23.021  -5.166  -1.959  1.00  0.00     0.313 HD
HETATM   74  H   UNL     1     -21.776  -5.261  -0.879  1.00  0.00     0.313 HD
ENDBRANCH   2  72
BRANCH   3  75
HETATM   75  O   UNL     1     -22.657  -5.239  -4.623  1.00  0.00    -0.391 OA
HETATM   76  H   UNL     1     -22.007  -4.712  -5.122  1.00  0.00     0.210 HD
ENDBRANCH   3  75
BRANCH   5  77
HETATM   77  C   UNL     1     -21.326  -9.473  -4.484  1.00  0.00     0.198 C 
BRANCH  77  78
HETATM   78  O   UNL     1     -20.699 -10.509  -5.238  1.00  0.00    -0.398 OA
HETATM   79  H   UNL     1     -20.574 -10.186  -6.143  1.00  0.00     0.209 HD
ENDBRANCH  77  78
ENDBRANCH   5  77
BRANCH   4  80
HETATM   80  O   UNL     1     -20.057  -6.090  -6.015  1.00  0.00    -0.348 OA
BRANCH  80  81
HETATM   81  C   UNL     1     -20.101  -6.130  -7.527  1.00  0.00     0.296 C 
HETATM   82  C   UNL     1     -19.235  -4.939  -8.063  1.00  0.00     0.303 C 
HETATM   83  C   UNL     1     -20.113  -3.520  -8.404  1.00  0.00     0.187 C 
HETATM   84  C   UNL     1     -21.581  -3.526  -9.017  1.00  0.00     0.186 C 
HETATM   85  C   UNL     1     -22.175  -4.961  -8.547  1.00  0.00     0.179 C 
HETATM   86  O   UNL     1     -21.276  -6.151  -8.406  1.00  0.00    -0.349 OA
BRANCH  82  87
HETATM   87  N   UNL     1     -18.053  -4.624  -7.123  1.00  0.00     0.090 N 
HETATM   88  H   UNL     1     -18.436  -4.658  -6.174  1.00  0.00     0.313 HD
HETATM   89  H   UNL     1     -17.239  -5.243  -7.202  1.00  0.00     0.313 HD
ENDBRANCH  82  87
BRANCH  83  90
HETATM   90  O   UNL     1     -20.249  -2.662  -7.228  1.00  0.00    -0.391 OA
HETATM   91  H   UNL     1     -19.708  -3.121  -6.567  1.00  0.00     0.210 HD
ENDBRANCH  83  90
BRANCH  84  92
HETATM   92  O   UNL     1     -21.495  -3.033 -10.459  1.00  0.00    -0.348 OA
BRANCH  92  93
HETATM   93  C   UNL     1     -21.788  -3.798 -11.764  1.00  0.00     0.296 C 
HETATM   94  C   UNL     1     -22.729  -3.025 -12.832  1.00  0.00     0.303 C 
HETATM   95  C   UNL     1     -24.186  -3.545 -13.206  1.00  0.00     0.187 C 
HETATM   96  C   UNL     1     -24.467  -5.045 -13.135  1.00  0.00     0.186 C 
HETATM   97  C   UNL     1     -23.374  -5.783 -12.221  1.00  0.00     0.179 C 
HETATM   98  O   UNL     1     -22.041  -5.212 -11.909  1.00  0.00    -0.349 OA
BRANCH  94  99
HETATM   99  N   UNL     1     -22.739  -1.557 -12.718  1.00  0.00     0.090 NA
HETATM  100  H   UNL     1     -22.921  -1.336 -11.728  1.00  0.00     0.313 HD
HETATM  101  H   UNL     1     -21.793  -1.217 -12.901  1.00  0.00     0.313 HD
ENDBRANCH  94  99
BRANCH  95 102
HETATM  102  O   UNL     1     -25.253  -2.946 -12.449  1.00  0.00    -0.391 OA
HETATM  103  H   UNL     1     -25.542  -2.160 -12.967  1.00  0.00     0.210 HD
ENDBRANCH  95 102
BRANCH  96 104
HETATM  104  O   UNL     1     -25.361  -5.428 -14.270  1.00  0.00    -0.348 OA
BRANCH 104 105
HETATM  105  C   UNL     1     -25.511  -6.621 -15.055  1.00  0.00     0.296 C 
HETATM  106  C   UNL     1     -25.232  -6.417 -16.644  1.00  0.00     0.303 C 
HETATM  107  C   UNL     1     -26.476  -5.933 -17.468  1.00  0.00     0.187 C 
HETATM  108  C   UNL     1     -27.889  -6.384 -17.040  1.00  0.00     0.186 C 
HETATM  109  C   UNL     1     -27.984  -6.789 -15.544  1.00  0.00     0.179 C 
HETATM  110  O   UNL     1     -26.771  -7.328 -14.943  1.00  0.00    -0.349 OA
BRANCH 106 111
HETATM  111  N   UNL     1     -23.988  -5.665 -17.130  1.00  0.00     0.090 N 
HETATM  112  H   UNL     1     -23.208  -6.203 -16.742  1.00  0.00     0.313 HD
HETATM  113  H   UNL     1     -23.980  -4.812 -16.543  1.00  0.00     0.313 HD
ENDBRANCH 106 111
BRANCH 107 114
HETATM  114  O   UNL     1     -26.358  -4.542 -17.743  1.00  0.00    -0.391 OA
HETATM  115  H   UNL     1     -27.070  -4.048 -17.283  1.00  0.00     0.210 HD
ENDBRANCH 107 114
BRANCH 108 116
HETATM  116  O   UNL     1     -28.163  -7.422 -17.995  1.00  0.00    -0.348 OA
BRANCH 116 117
HETATM  117  C   UNL     1     -28.483  -7.179 -19.375  1.00  0.00     0.296 C 
HETATM  118  C   UNL     1     -29.425  -8.272 -20.006  1.00  0.00     0.303 C 
HETATM  119  C   UNL     1     -28.676  -9.402 -20.726  1.00  0.00     0.187 C 
HETATM  120  C   UNL     1     -27.456  -8.882 -21.521  1.00  0.00     0.180 C 
HETATM  121  C   UNL     1     -26.677  -7.690 -20.912  1.00  0.00     0.179 C 
HETATM  122  O   UNL     1     -27.443  -6.712 -20.207  1.00  0.00    -0.349 OA
BRANCH 118 123
HETATM  123  N   UNL     1     -30.343  -8.945 -18.959  1.00  0.00     0.090 N 
HETATM  124  H   UNL     1     -29.962  -8.602 -18.078  1.00  0.00     0.313 HD
HETATM  125  H   UNL     1     -29.865  -9.862 -18.940  1.00  0.00     0.313 HD
ENDBRANCH 118 123
BRANCH 119 126
HETATM  126  O   UNL     1     -28.575 -10.478 -19.751  1.00  0.00    -0.391 OA
HETATM  127  H   UNL     1     -29.382 -10.431 -19.203  1.00  0.00     0.210 HD
ENDBRANCH 119 126
BRANCH 120 128
HETATM  128  O   UNL     1     -28.087  -8.321 -22.717  1.00  0.00    -0.390 OA
HETATM  129  H   UNL     1     -27.422  -8.419 -23.444  1.00  0.00     0.210 HD
ENDBRANCH 120 128
BRANCH 121 130
HETATM  130  C   UNL     1     -25.411  -8.082 -20.160  1.00  0.00     0.198 C 
BRANCH 130 131
HETATM  131  O   UNL     1     -24.717  -6.888 -19.880  1.00  0.00    -0.398 OA
HETATM  132  H   UNL     1     -23.961  -7.114 -19.303  1.00  0.00     0.209 HD
ENDBRANCH 130 131
ENDBRANCH 121 130
ENDBRANCH 116 117
ENDBRANCH 108 116
BRANCH 109 133
HETATM  133  C   UNL     1     -28.522  -5.636 -14.658  1.00  0.00     0.198 C 
BRANCH 133 134
HETATM  134  O   UNL     1     -29.727  -5.121 -15.219  1.00  0.00    -0.398 OA
HETATM  135  H   UNL     1     -29.482  -4.691 -16.057  1.00  0.00     0.209 HD
ENDBRANCH 133 134
ENDBRANCH 109 133
ENDBRANCH 104 105
ENDBRANCH  96 104
BRANCH  97 136
HETATM  136  C   UNL     1     -23.918  -6.080 -10.791  1.00  0.00     0.198 C 
BRANCH 136 137
HETATM  137  O   UNL     1     -24.659  -4.942 -10.338  1.00  0.00    -0.398 OA
HETATM  138  H   UNL     1     -24.330  -4.153 -10.796  1.00  0.00     0.209 HD
ENDBRANCH 136 137
ENDBRANCH  97 136
ENDBRANCH  92  93
ENDBRANCH  84  92
BRANCH  85 139
HETATM  139  C   UNL     1     -22.908  -4.897  -7.171  1.00  0.00     0.198 C 
BRANCH 139 140
HETATM  140  O   UNL     1     -24.175  -4.193  -7.296  1.00  0.00    -0.398 OA
HETATM  141  H   UNL     1     -24.460  -4.275  -8.225  1.00  0.00     0.209 HD
ENDBRANCH 139 140
ENDBRANCH  85 139
ENDBRANCH  80  81
ENDBRANCH   4  80
TORSDOF 55
ENDMDL
MODEL 8
REMARK VINA RESULT:       2.1      2.388     14.402
REMARK WARNING: 32 MAX_TORS EXCEEDED!!!
REMARK  55 active torsions:
REMARK  status: ('A' for Active; 'I' for Inactive)
REMARK    1  A    between atoms: O_2  and  C_3 
REMARK       I    between atoms: C_3  and  N_5 
REMARK    2  A    between atoms: N_5  and  C_6 
REMARK    3  A    between atoms: C_7  and  O_104 
REMARK    4  A    between atoms: C_8  and  O_37 
REMARK    5  A    between atoms: C_9  and  C_35 
REMARK    6  A    between atoms: C_11  and  O_12 
REMARK    7  A    between atoms: O_12  and  C_13 
REMARK    8  A    between atoms: C_14  and  C_33 
REMARK    9  A    between atoms: C_16  and  O_21 
REMARK   10  A    between atoms: C_17  and  N_20 
REMARK   11  A    between atoms: C_18  and  O_19 
REMARK   12  A    between atoms: O_21  and  C_22 
REMARK   13  A    between atoms: C_23  and  C_31 
REMARK   14  A    between atoms: C_25  and  O_30 
REMARK   15  A    between atoms: C_26  and  N_29 
REMARK   16  A    between atoms: C_27  and  O_28 
REMARK   17  A    between atoms: C_31  and  O_32 
REMARK   18  A    between atoms: C_33  and  O_34 
REMARK   19  A    between atoms: C_35  and  O_36 
REMARK   20  A    between atoms: O_37  and  C_38 
REMARK   21  A    between atoms: C_39  and  N_103 
REMARK   22  A    between atoms: C_40  and  O_102 
REMARK   23  A    between atoms: C_41  and  O_46 
REMARK   24  A    between atoms: C_42  and  C_44 
REMARK   25  A    between atoms: C_44  and  O_45 
REMARK   26  A    between atoms: O_46  and  C_47 
REMARK   27  A    between atoms: C_48  and  N_101 
REMARK   28  A    between atoms: C_49  and  O_100 
REMARK   29  A    between atoms: C_50  and  O_55 
REMARK   30  A    between atoms: C_51  and  C_53 
REMARK   31  A    between atoms: C_53  and  O_54 
REMARK   32  A    between atoms: O_55  and  C_56 
REMARK   33  A    between atoms: C_57  and  N_99 
REMARK   34  A    between atoms: C_58  and  O_98 
REMARK   35  A    between atoms: C_59  and  O_64 
REMARK   36  A    between atoms: C_60  and  C_62 
REMARK   37  A    between atoms: C_62  and  O_63 
REMARK   38  A    between atoms: O_64  and  C_65 
REMARK   39  A    between atoms: C_66  and  N_97 
REMARK   40  A    between atoms: C_67  and  O_96 
REMARK   41  A    between atoms: C_68  and  O_73 
REMARK   42  A    between atoms: C_69  and  C_71 
REMARK   43  A    between atoms: C_71  and  O_72 
REMARK   44  A    between atoms: O_73  and  C_74 
REMARK   45  A    between atoms: C_75  and  N_95 
REMARK   46  A    between atoms: C_76  and  O_94 
REMARK   47  A    between atoms: C_77  and  O_82 
REMARK   48  A    between atoms: C_78  and  C_80 
REMARK   49  A    between atoms: C_80  and  O_81 
REMARK   50  A    between atoms: O_82  and  C_83 
REMARK   51  A    between atoms: C_84  and  N_93 
REMARK   52  A    between atoms: C_85  and  O_92 
REMARK   53  A    between atoms: C_86  and  O_91 
REMARK   54  A    between atoms: C_87  and  C_89 
REMARK   55  A    between atoms: C_89  and  O_90 
ROOT
HETATM    1  C   UNL     1     -20.830  -7.599  -1.976  1.00  0.00     0.296 C 
HETATM    2  C   UNL     1     -21.439  -6.200  -2.561  1.00  0.00     0.303 C 
HETATM    3  C   UNL     1     -21.953  -6.275  -4.079  1.00  0.00     0.187 C 
HETATM    4  C   UNL     1     -20.937  -6.993  -5.093  1.00  0.00     0.186 C 
HETATM    5  C   UNL     1     -20.484  -8.286  -4.311  1.00  0.00     0.179 C 
HETATM    6  O   UNL     1     -19.938  -8.059  -2.993  1.00  0.00    -0.349 OA
ENDROOT
BRANCH   1   7
HETATM    7  O   UNL     1     -21.737  -8.660  -1.622  1.00  0.00    -0.348 OA
BRANCH   7   8
HETATM    8  C   UNL     1     -21.346 -10.155  -1.586  1.00  0.00     0.186 C 
HETATM    9  C   UNL     1     -22.365 -11.208  -0.999  1.00  0.00     0.187 C 
HETATM   10  C   UNL     1     -22.036 -11.705   0.437  1.00  0.00     0.303 C 
HETATM   11  C   UNL     1     -20.614 -12.185   0.819  1.00  0.00     0.296 C 
HETATM   12  O   UNL     1     -19.723 -11.181   0.219  1.00  0.00    -0.349 OA
HETATM   13  C   UNL     1     -19.858 -10.569  -1.121  1.00  0.00     0.179 C 
BRANCH   9  14
HETATM   14  O   UNL     1     -22.410 -12.346  -1.879  1.00  0.00    -0.391 OA
HETATM   15  H   UNL     1     -21.599 -12.906  -1.781  1.00  0.00     0.210 HD
ENDBRANCH   9  14
BRANCH  10  16
HETATM   16  N   UNL     1     -23.033 -12.684   0.846  1.00  0.00     0.090 N 
HETATM   17  H   UNL     1     -23.303 -12.478   1.807  1.00  0.00     0.313 HD
HETATM   18  H   UNL     1     -22.519 -13.561   0.969  1.00  0.00     0.313 HD
ENDBRANCH  10  16
BRANCH  11  19
HETATM   19  O   UNL     1     -20.144 -13.767   0.782  1.00  0.00    -0.348 OA
BRANCH  19  20
HETATM   20  C   UNL     1     -20.853 -14.814  -0.248  1.00  0.00     0.186 C 
HETATM   21  C   UNL     1     -21.373 -14.326  -1.677  1.00  0.00     0.177 C 
HETATM   22  C   UNL     1     -22.070 -15.417  -2.625  1.00  0.00     0.173 C 
HETATM   23  C   UNL     1     -21.354 -16.841  -2.725  1.00  0.00     0.286 C 
HETATM   24  O   UNL     1     -21.023 -17.183  -1.349  1.00  0.00    -0.349 OA
HETATM   25  C   UNL     1     -20.135 -16.287  -0.582  1.00  0.00     0.180 C 
BRANCH  21  26
HETATM   26  O   UNL     1     -20.391 -13.655  -2.480  1.00  0.00    -0.391 OA
HETATM   27  H   UNL     1     -20.776 -12.959  -3.026  1.00  0.00     0.210 HD
ENDBRANCH  21  26
BRANCH  22  28
HETATM   28  N   UNL     1     -22.488 -14.865  -3.936  1.00  0.00    -0.325 N 
HETATM   29  C   UNL     1     -23.548 -15.313  -4.682  1.00  0.00     0.360 C 
HETATM   30  O   UNL     1     -24.281 -16.231  -4.327  1.00  0.00    -0.239 OA
HETATM   31  H   UNL     1     -22.078 -13.965  -4.208  1.00  0.00     0.165 HD
BRANCH  29  32
HETATM   32  O   UNL     1     -23.655 -14.618  -5.843  1.00  0.00    -0.309 OA
HETATM   33  C   UNL     1     -23.164 -13.265  -5.865  1.00  0.00     0.215 C 
ENDBRANCH  29  32
ENDBRANCH  22  28
BRANCH  23  34
HETATM   34  O   UNL     1     -20.253 -17.080  -3.733  1.00  0.00    -0.348 OA
BRANCH  34  35
HETATM   35  C   UNL     1     -20.289 -16.254  -4.980  1.00  0.00     0.186 C 
HETATM   36  C   UNL     1     -19.606 -14.834  -4.902  1.00  0.00     0.179 C 
HETATM   37  O   UNL     1     -18.144 -14.748  -4.859  1.00  0.00    -0.349 OA
HETATM   38  C   UNL     1     -17.367 -15.445  -5.844  1.00  0.00     0.296 C 
HETATM   39  C   UNL     1     -18.149 -16.634  -6.583  1.00  0.00     0.303 C 
HETATM   40  C   UNL     1     -19.714 -16.868  -6.286  1.00  0.00     0.187 C 
BRANCH  36  41
HETATM   41  C   UNL     1     -20.024 -13.890  -6.060  1.00  0.00     0.198 C 
BRANCH  41  42
HETATM   42  O   UNL     1     -19.535 -12.593  -5.723  1.00  0.00    -0.398 OA
HETATM   43  H   UNL     1     -19.033 -12.731  -4.902  1.00  0.00     0.209 HD
ENDBRANCH  41  42
ENDBRANCH  36  41
BRANCH  38  44
HETATM   44  O   UNL     1     -16.618 -14.624  -6.799  1.00  0.00    -0.348 OA
BRANCH  44  45
HETATM   45  C   UNL     1     -15.259 -14.236  -6.432  1.00  0.00     0.186 C 
HETATM   46  C   UNL     1     -14.878 -12.673  -6.667  1.00  0.00     0.179 C 
HETATM   47  O   UNL     1     -15.753 -11.648  -6.143  1.00  0.00    -0.349 OA
HETATM   48  C   UNL     1     -16.030 -11.856  -4.758  1.00  0.00     0.292 C 
HETATM   49  C   UNL     1     -15.715 -13.259  -4.087  1.00  0.00     0.303 C 
HETATM   50  C   UNL     1     -15.097 -14.548  -4.921  1.00  0.00     0.187 C 
BRANCH  46  51
HETATM   51  C   UNL     1     -13.444 -12.489  -6.098  1.00  0.00     0.198 C 
BRANCH  51  52
HETATM   52  O   UNL     1     -12.479 -13.322  -6.652  1.00  0.00    -0.398 OA
HETATM   53  H   UNL     1     -11.781 -12.791  -7.087  1.00  0.00     0.209 HD
ENDBRANCH  51  52
ENDBRANCH  46  51
BRANCH  48  54
HETATM   54  O   UNL     1     -15.841 -10.450  -4.162  1.00  0.00    -0.369 OA
HETATM   55  H   UNL     1     -14.902 -10.202  -4.072  1.00  0.00     0.212 HD
ENDBRANCH  48  54
BRANCH  49  56
HETATM   56  N   UNL     1     -15.447 -12.999  -2.697  1.00  0.00     0.090 NA
HETATM   57  H   UNL     1     -14.783 -12.247  -2.531  1.00  0.00     0.313 HD
HETATM   58  H   UNL     1     -16.350 -12.766  -2.223  1.00  0.00     0.313 HD
ENDBRANCH  49  56
BRANCH  50  59
HETATM   59  O   UNL     1     -13.835 -15.189  -4.695  1.00  0.00    -0.391 OA
HETATM   60  H   UNL     1     -13.291 -15.286  -5.491  1.00  0.00     0.210 HD
ENDBRANCH  50  59
ENDBRANCH  44  45
ENDBRANCH  38  44
BRANCH  39  61
HETATM   61  N   UNL     1     -17.733 -16.761  -8.036  1.00  0.00     0.090 N 
HETATM   62  H   UNL     1     -17.837 -17.732  -8.306  1.00  0.00     0.313 HD
HETATM   63  H   UNL     1     -18.412 -16.231  -8.573  1.00  0.00     0.313 HD
ENDBRANCH  39  61
BRANCH  40  64
HETATM   64  O   UNL     1     -20.556 -16.276  -7.314  1.00  0.00    -0.391 OA
HETATM   65  H   UNL     1     -20.904 -16.914  -7.956  1.00  0.00     0.210 HD
ENDBRANCH  40  64
ENDBRANCH  34  35
ENDBRANCH  23  34
BRANCH  25  66
HETATM   66  C   UNL     1     -18.744 -16.394  -1.272  1.00  0.00     0.198 C 
BRANCH  66  67
HETATM   67  O   UNL     1     -18.287 -15.136  -1.829  1.00  0.00    -0.398 OA
HETATM   68  H   UNL     1     -19.083 -14.672  -2.134  1.00  0.00     0.209 HD
ENDBRANCH  66  67
ENDBRANCH  25  66
ENDBRANCH  19  20
ENDBRANCH  11  19
BRANCH  13  69
HETATM   69  C   UNL     1     -19.102 -11.533  -2.098  1.00  0.00     0.198 C 
BRANCH  69  70
HETATM   70  O   UNL     1     -18.168 -12.331  -1.346  1.00  0.00    -0.398 OA
HETATM   71  H   UNL     1     -18.644 -12.499  -0.495  1.00  0.00     0.209 HD
ENDBRANCH  69  70
ENDBRANCH  13  69
ENDBRANCH   7   8
ENDBRANCH   1   7
BRANCH   2  72
HETATM   72  N   UNL     1     -22.335  -5.530  -1.586  1.00  0.00     0.090 N 
HETATM   73  H   UNL     1     -22.261  -4.503  -1.552  1.00  0.00     0.313 HD
HETATM   74  H   UNL     1     -22.243  -5.869  -0.627  1.00  0.00     0.313 HD
ENDBRANCH   2  72
BRANCH   3  75
HETATM   75  O   UNL     1     -22.490  -5.038  -4.625  1.00  0.00    -0.391 OA
HETATM   76  H   UNL     1     -23.435  -5.184  -4.813  1.00  0.00     0.210 HD
ENDBRANCH   3  75
BRANCH   5  77
HETATM   77  C   UNL     1     -21.557  -9.368  -4.317  1.00  0.00     0.198 C 
BRANCH  77  78
HETATM   78  O   UNL     1     -21.203 -10.252  -5.379  1.00  0.00    -0.398 OA
HETATM   79  H   UNL     1     -21.409  -9.810  -6.217  1.00  0.00     0.209 HD
ENDBRANCH  77  78
ENDBRANCH   5  77
BRANCH   4  80
HETATM   80  O   UNL     1     -19.896  -6.151  -5.831  1.00  0.00    -0.348 OA
BRANCH  80  81
HETATM   81  C   UNL     1     -19.912  -6.151  -7.344  1.00  0.00     0.296 C 
HETATM   82  C   UNL     1     -19.195  -4.845  -7.830  1.00  0.00     0.303 C 
HETATM   83  C   UNL     1     -20.239  -3.538  -8.147  1.00  0.00     0.187 C 
HETATM   84  C   UNL     1     -21.685  -3.709  -8.787  1.00  0.00     0.186 C 
HETATM   85  C   UNL     1     -22.101  -5.220  -8.369  1.00  0.00     0.179 C 
HETATM   86  O   UNL     1     -21.062  -6.293  -8.245  1.00  0.00    -0.349 OA
BRANCH  82  87
HETATM   87  N   UNL     1     -18.076  -4.413  -6.859  1.00  0.00     0.090 N 
HETATM   88  H   UNL     1     -18.518  -3.776  -6.191  1.00  0.00     0.313 HD
HETATM   89  H   UNL     1     -17.593  -5.171  -6.365  1.00  0.00     0.313 HD
ENDBRANCH  82  87
BRANCH  83  90
HETATM   90  O   UNL     1     -20.499  -2.739  -6.950  1.00  0.00    -0.391 OA
HETATM   91  H   UNL     1     -20.086  -3.267  -6.250  1.00  0.00     0.210 HD
ENDBRANCH  83  90
BRANCH  84  92
HETATM   92  O   UNL     1     -21.640  -3.165 -10.213  1.00  0.00    -0.348 OA
BRANCH  92  93
HETATM   93  C   UNL     1     -21.861  -3.913 -11.542  1.00  0.00     0.296 C 
HETATM   94  C   UNL     1     -22.691  -3.102 -12.673  1.00  0.00     0.303 C 
HETATM   95  C   UNL     1     -24.133  -3.568 -13.158  1.00  0.00     0.187 C 
HETATM   96  C   UNL     1     -24.471  -5.058 -13.121  1.00  0.00     0.186 C 
HETATM   97  C   UNL     1     -23.476  -5.839 -12.133  1.00  0.00     0.179 C 
HETATM   98  O   UNL     1     -22.151  -5.317 -11.717  1.00  0.00    -0.349 OA
BRANCH  94  99
HETATM   99  N   UNL     1     -22.658  -1.635 -12.548  1.00  0.00     0.090 NA
HETATM  100  H   UNL     1     -23.084  -1.404 -11.638  1.00  0.00     0.313 HD
HETATM  101  H   UNL     1     -21.682  -1.344 -12.472  1.00  0.00     0.313 HD
ENDBRANCH  94  99
BRANCH  95 102
HETATM  102  O   UNL     1     -25.232  -2.936 -12.480  1.00  0.00    -0.391 OA
HETATM  103  H   UNL     1     -24.853  -2.146 -12.030  1.00  0.00     0.210 HD
ENDBRANCH  95 102
BRANCH  96 104
HETATM  104  O   UNL     1     -25.289  -5.403 -14.323  1.00  0.00    -0.348 OA
BRANCH 104 105
HETATM  105  C   UNL     1     -25.510  -6.618 -15.056  1.00  0.00     0.296 C 
HETATM  106  C   UNL     1     -25.243  -6.493 -16.655  1.00  0.00     0.303 C 
HETATM  107  C   UNL     1     -26.471  -5.979 -17.484  1.00  0.00     0.187 C 
HETATM  108  C   UNL     1     -27.900  -6.340 -17.022  1.00  0.00     0.186 C 
HETATM  109  C   UNL     1     -27.995  -6.679 -15.510  1.00  0.00     0.179 C 
HETATM  110  O   UNL     1     -26.803  -7.254 -14.901  1.00  0.00    -0.349 OA
BRANCH 106 111
HETATM  111  N   UNL     1     -23.968  -5.825 -17.186  1.00  0.00     0.090 N 
HETATM  112  H   UNL     1     -24.074  -5.868 -18.203  1.00  0.00     0.313 HD
HETATM  113  H   UNL     1     -23.236  -6.536 -17.011  1.00  0.00     0.313 HD
ENDBRANCH 106 111
BRANCH 107 114
HETATM  114  O   UNL     1     -26.286  -4.609 -17.817  1.00  0.00    -0.391 OA
HETATM  115  H   UNL     1     -25.337  -4.430 -17.988  1.00  0.00     0.210 HD
ENDBRANCH 107 114
BRANCH 108 116
HETATM  116  O   UNL     1     -28.239  -7.400 -17.930  1.00  0.00    -0.348 OA
BRANCH 116 117
HETATM  117  C   UNL     1     -28.584  -7.194 -19.310  1.00  0.00     0.296 C 
HETATM  118  C   UNL     1     -29.524  -8.313 -19.899  1.00  0.00     0.303 C 
HETATM  119  C   UNL     1     -28.773  -9.453 -20.603  1.00  0.00     0.187 C 
HETATM  120  C   UNL     1     -27.573  -8.939 -21.431  1.00  0.00     0.180 C 
HETATM  121  C   UNL     1     -26.797  -7.724 -20.864  1.00  0.00     0.179 C 
HETATM  122  O   UNL     1     -27.563  -6.737 -20.171  1.00  0.00    -0.349 OA
BRANCH 118 123
HETATM  123  N   UNL     1     -30.416  -8.970 -18.820  1.00  0.00     0.090 N 
HETATM  124  H   UNL     1     -30.936  -8.176 -18.450  1.00  0.00     0.313 HD
HETATM  125  H   UNL     1     -29.707  -9.002 -18.068  1.00  0.00     0.313 HD
ENDBRANCH 118 123
BRANCH 119 126
HETATM  126  O   UNL     1     -28.644 -10.503 -19.603  1.00  0.00    -0.391 OA
HETATM  127  H   UNL     1     -29.451 -11.050 -19.671  1.00  0.00     0.210 HD
ENDBRANCH 119 126
BRANCH 120 128
HETATM  128  O   UNL     1     -28.229  -8.416 -22.629  1.00  0.00    -0.390 OA
HETATM  129  H   UNL     1     -28.768  -9.163 -22.991  1.00  0.00     0.210 HD
ENDBRANCH 120 128
BRANCH 121 130
HETATM  130  C   UNL     1     -25.515  -8.084 -20.123  1.00  0.00     0.198 C 
BRANCH 130 131
HETATM  131  O   UNL     1     -24.457  -7.457 -20.811  1.00  0.00    -0.398 OA
HETATM  132  H   UNL     1     -24.226  -6.644 -20.319  1.00  0.00     0.209 HD
ENDBRANCH 130 131
ENDBRANCH 121 130
ENDBRANCH 116 117
ENDBRANCH 108 116
BRANCH 109 133
HETATM  133  C   UNL     1     -28.462  -5.464 -14.666  1.00  0.00     0.198 C 
BRANCH 133 134
HETATM  134  O   UNL     1     -29.863  -5.558 -14.424  1.00  0.00    -0.398 OA
HETATM  135  H   UNL     1     -30.158  -4.673 -14.152  1.00  0.00     0.209 HD
ENDBRANCH 133 134
ENDBRANCH 109 133
ENDBRANCH 104 105
ENDBRANCH  96 104
BRANCH  97 136
HETATM  136  C   UNL     1     -24.136  -6.124 -10.750  1.00  0.00     0.198 C 
BRANCH 136 137
HETATM  137  O   UNL     1     -24.691  -4.903 -10.247  1.00  0.00    -0.398 OA
HETATM  138  H   UNL     1     -24.878  -4.315 -10.995  1.00  0.00     0.209 HD
ENDBRANCH 136 137
ENDBRANCH  97 136
ENDBRANCH  92  93
ENDBRANCH  84  92
BRANCH  85 139
HETATM  139  C   UNL     1     -22.857  -5.290  -7.005  1.00  0.00     0.198 C 
BRANCH 139 140
HETATM  140  O   UNL     1     -23.853  -4.235  -6.916  1.00  0.00    -0.398 OA
HETATM  141  H   UNL     1     -23.426  -3.409  -7.210  1.00  0.00     0.209 HD
ENDBRANCH 139 140
ENDBRANCH  85 139
ENDBRANCH  80  81
ENDBRANCH   4  80
TORSDOF 55
ENDMDL
MODEL 9
REMARK VINA RESULT:       2.2      3.268      7.438
REMARK WARNING: 32 MAX_TORS EXCEEDED!!!
REMARK  55 active torsions:
REMARK  status: ('A' for Active; 'I' for Inactive)
REMARK    1  A    between atoms: O_2  and  C_3 
REMARK       I    between atoms: C_3  and  N_5 
REMARK    2  A    between atoms: N_5  and  C_6 
REMARK    3  A    between atoms: C_7  and  O_104 
REMARK    4  A    between atoms: C_8  and  O_37 
REMARK    5  A    between atoms: C_9  and  C_35 
REMARK    6  A    between atoms: C_11  and  O_12 
REMARK    7  A    between atoms: O_12  and  C_13 
REMARK    8  A    between atoms: C_14  and  C_33 
REMARK    9  A    between atoms: C_16  and  O_21 
REMARK   10  A    between atoms: C_17  and  N_20 
REMARK   11  A    between atoms: C_18  and  O_19 
REMARK   12  A    between atoms: O_21  and  C_22 
REMARK   13  A    between atoms: C_23  and  C_31 
REMARK   14  A    between atoms: C_25  and  O_30 
REMARK   15  A    between atoms: C_26  and  N_29 
REMARK   16  A    between atoms: C_27  and  O_28 
REMARK   17  A    between atoms: C_31  and  O_32 
REMARK   18  A    between atoms: C_33  and  O_34 
REMARK   19  A    between atoms: C_35  and  O_36 
REMARK   20  A    between atoms: O_37  and  C_38 
REMARK   21  A    between atoms: C_39  and  N_103 
REMARK   22  A    between atoms: C_40  and  O_102 
REMARK   23  A    between atoms: C_41  and  O_46 
REMARK   24  A    between atoms: C_42  and  C_44 
REMARK   25  A    between atoms: C_44  and  O_45 
REMARK   26  A    between atoms: O_46  and  C_47 
REMARK   27  A    between atoms: C_48  and  N_101 
REMARK   28  A    between atoms: C_49  and  O_100 
REMARK   29  A    between atoms: C_50  and  O_55 
REMARK   30  A    between atoms: C_51  and  C_53 
REMARK   31  A    between atoms: C_53  and  O_54 
REMARK   32  A    between atoms: O_55  and  C_56 
REMARK   33  A    between atoms: C_57  and  N_99 
REMARK   34  A    between atoms: C_58  and  O_98 
REMARK   35  A    between atoms: C_59  and  O_64 
REMARK   36  A    between atoms: C_60  and  C_62 
REMARK   37  A    between atoms: C_62  and  O_63 
REMARK   38  A    between atoms: O_64  and  C_65 
REMARK   39  A    between atoms: C_66  and  N_97 
REMARK   40  A    between atoms: C_67  and  O_96 
REMARK   41  A    between atoms: C_68  and  O_73 
REMARK   42  A    between atoms: C_69  and  C_71 
REMARK   43  A    between atoms: C_71  and  O_72 
REMARK   44  A    between atoms: O_73  and  C_74 
REMARK   45  A    between atoms: C_75  and  N_95 
REMARK   46  A    between atoms: C_76  and  O_94 
REMARK   47  A    between atoms: C_77  and  O_82 
REMARK   48  A    between atoms: C_78  and  C_80 
REMARK   49  A    between atoms: C_80  and  O_81 
REMARK   50  A    between atoms: O_82  and  C_83 
REMARK   51  A    between atoms: C_84  and  N_93 
REMARK   52  A    between atoms: C_85  and  O_92 
REMARK   53  A    between atoms: C_86  and  O_91 
REMARK   54  A    between atoms: C_87  and  C_89 
REMARK   55  A    between atoms: C_89  and  O_90 
ROOT
HETATM    1  C   UNL     1     -18.510 -15.718   2.077  1.00  0.00     0.296 C 
HETATM    2  C   UNL     1     -18.538 -16.715   0.783  1.00  0.00     0.303 C 
HETATM    3  C   UNL     1     -19.586 -16.302  -0.360  1.00  0.00     0.187 C 
HETATM    4  C   UNL     1     -21.051 -15.931   0.182  1.00  0.00     0.186 C 
HETATM    5  C   UNL     1     -20.763 -14.991   1.415  1.00  0.00     0.179 C 
HETATM    6  O   UNL     1     -19.884 -15.536   2.424  1.00  0.00    -0.349 OA
ENDROOT
BRANCH   1   7
HETATM    7  O   UNL     1     -17.875 -14.431   1.952  1.00  0.00    -0.348 OA
BRANCH   7   8
HETATM    8  C   UNL     1     -17.934 -13.560   0.676  1.00  0.00     0.186 C 
HETATM    9  C   UNL     1     -17.040 -13.946  -0.567  1.00  0.00     0.187 C 
HETATM   10  C   UNL     1     -15.767 -13.073  -0.752  1.00  0.00     0.303 C 
HETATM   11  C   UNL     1     -15.835 -11.526  -0.702  1.00  0.00     0.296 C 
HETATM   12  O   UNL     1     -16.700 -11.241   0.452  1.00  0.00    -0.349 OA
HETATM   13  C   UNL     1     -17.945 -11.953   0.819  1.00  0.00     0.179 C 
BRANCH   9  14
HETATM   14  O   UNL     1     -17.840 -13.849  -1.758  1.00  0.00    -0.391 OA
HETATM   15  H   UNL     1     -17.667 -12.998  -2.237  1.00  0.00     0.210 HD
ENDBRANCH   9  14
BRANCH  10  16
HETATM   16  N   UNL     1     -15.050 -13.514  -1.940  1.00  0.00     0.090 N 
HETATM   17  H   UNL     1     -14.576 -14.388  -1.716  1.00  0.00     0.313 HD
HETATM   18  H   UNL     1     -14.255 -12.875  -2.032  1.00  0.00     0.313 HD
ENDBRANCH  10  16
BRANCH  11  19
HETATM   19  O   UNL     1     -15.985 -10.576  -2.043  1.00  0.00    -0.348 OA
BRANCH  19  20
HETATM   20  C   UNL     1     -17.387 -10.540  -2.876  1.00  0.00     0.186 C 
HETATM   21  C   UNL     1     -18.537  -9.501  -2.492  1.00  0.00     0.177 C 
HETATM   22  C   UNL     1     -19.889  -9.539  -3.354  1.00  0.00     0.173 C 
HETATM   23  C   UNL     1     -19.726  -9.662  -4.938  1.00  0.00     0.286 C 
HETATM   24  O   UNL     1     -18.719 -10.697  -5.124  1.00  0.00    -0.349 OA
HETATM   25  C   UNL     1     -17.374 -10.500  -4.548  1.00  0.00     0.180 C 
BRANCH  21  26
HETATM   26  O   UNL     1     -18.120  -8.128  -2.447  1.00  0.00    -0.391 OA
HETATM   27  H   UNL     1     -18.034  -7.800  -1.544  1.00  0.00     0.210 HD
ENDBRANCH  21  26
BRANCH  22  28
HETATM   28  N   UNL     1     -20.876  -8.516  -2.933  1.00  0.00    -0.325 N 
HETATM   29  C   UNL     1     -21.684  -8.601  -1.828  1.00  0.00     0.360 C 
HETATM   30  O   UNL     1     -21.663  -9.552  -1.052  1.00  0.00    -0.239 OA
HETATM   31  H   UNL     1     -20.811  -7.599  -3.389  1.00  0.00     0.165 HD
BRANCH  29  32
HETATM   32  O   UNL     1     -22.493  -7.516  -1.730  1.00  0.00    -0.309 OA
HETATM   33  C   UNL     1     -22.612  -6.879  -0.446  1.00  0.00     0.215 C 
ENDBRANCH  29  32
ENDBRANCH  22  28
BRANCH  23  34
HETATM   34  O   UNL     1     -19.549  -8.427  -5.792  1.00  0.00    -0.348 OA
BRANCH  34  35
HETATM   35  C   UNL     1     -20.051  -7.137  -5.224  1.00  0.00     0.186 C 
HETATM   36  C   UNL     1     -19.667  -5.826  -6.012  1.00  0.00     0.179 C 
HETATM   37  O   UNL     1     -20.324  -5.545  -7.291  1.00  0.00    -0.349 OA
HETATM   38  C   UNL     1     -21.756  -5.583  -7.372  1.00  0.00     0.296 C 
HETATM   39  C   UNL     1     -22.464  -6.404  -6.190  1.00  0.00     0.303 C 
HETATM   40  C   UNL     1     -21.578  -6.985  -4.979  1.00  0.00     0.187 C 
BRANCH  36  41
HETATM   41  C   UNL     1     -19.859  -4.532  -5.177  1.00  0.00     0.198 C 
BRANCH  41  42
HETATM   42  O   UNL     1     -19.990  -3.462  -6.111  1.00  0.00    -0.398 OA
HETATM   43  H   UNL     1     -20.878  -3.104  -5.944  1.00  0.00     0.209 HD
ENDBRANCH  41  42
ENDBRANCH  36  41
BRANCH  38  44
HETATM   44  O   UNL     1     -22.439  -4.311  -7.621  1.00  0.00    -0.348 OA
BRANCH  44  45
HETATM   45  C   UNL     1     -23.583  -4.327  -8.529  1.00  0.00     0.186 C 
HETATM   46  C   UNL     1     -23.972  -2.903  -9.209  1.00  0.00     0.179 C 
HETATM   47  O   UNL     1     -22.941  -2.129  -9.863  1.00  0.00    -0.349 OA
HETATM   48  C   UNL     1     -22.221  -2.915 -10.812  1.00  0.00     0.292 C 
HETATM   49  C   UNL     1     -22.335  -4.498 -10.781  1.00  0.00     0.303 C 
HETATM   50  C   UNL     1     -23.237  -5.323  -9.667  1.00  0.00     0.187 C 
BRANCH  46  51
HETATM   51  C   UNL     1     -25.125  -3.202 -10.206  1.00  0.00     0.198 C 
BRANCH  51  52
HETATM   52  O   UNL     1     -26.168  -3.963  -9.691  1.00  0.00    -0.398 OA
HETATM   53  H   UNL     1     -26.046  -4.099  -8.730  1.00  0.00     0.209 HD
ENDBRANCH  51  52
ENDBRANCH  46  51
BRANCH  48  54
HETATM   54  O   UNL     1     -22.154  -1.987 -12.038  1.00  0.00    -0.369 OA
HETATM   55  H   UNL     1     -22.375  -1.062 -11.822  1.00  0.00     0.212 HD
ENDBRANCH  48  54
BRANCH  49  56
HETATM   56  N   UNL     1     -22.112  -4.952 -12.129  1.00  0.00     0.090 NA
HETATM   57  H   UNL     1     -21.432  -5.702 -12.212  1.00  0.00     0.313 HD
HETATM   58  H   UNL     1     -23.026  -5.276 -12.524  1.00  0.00     0.313 HD
ENDBRANCH  49  56
BRANCH  50  59
HETATM   59  O   UNL     1     -24.369  -6.163  -9.932  1.00  0.00    -0.391 OA
HETATM   60  H   UNL     1     -24.227  -6.808 -10.640  1.00  0.00     0.210 HD
ENDBRANCH  50  59
ENDBRANCH  44  45
ENDBRANCH  38  44
BRANCH  39  61
HETATM   61  N   UNL     1     -23.790  -5.783  -5.791  1.00  0.00     0.090 N 
HETATM   62  H   UNL     1     -24.026  -6.122  -4.867  1.00  0.00     0.313 HD
HETATM   63  H   UNL     1     -23.622  -4.786  -5.707  1.00  0.00     0.313 HD
ENDBRANCH  39  61
BRANCH  40  64
HETATM   64  O   UNL     1     -21.628  -6.126  -3.807  1.00  0.00    -0.391 OA
HETATM   65  H   UNL     1     -21.279  -5.233  -3.956  1.00  0.00     0.210 HD
ENDBRANCH  40  64
ENDBRANCH  34  35
ENDBRANCH  23  34
BRANCH  25  66
HETATM   66  C   UNL     1     -16.754  -9.315  -5.345  1.00  0.00     0.198 C 
BRANCH  66  67
HETATM   67  O   UNL     1     -15.312  -9.402  -5.463  1.00  0.00    -0.398 OA
HETATM   68  H   UNL     1     -15.126 -10.271  -5.855  1.00  0.00     0.209 HD
ENDBRANCH  66  67
ENDBRANCH  25  66
ENDBRANCH  19  20
ENDBRANCH  11  19
BRANCH  13  69
HETATM   69  C   UNL     1     -19.089 -11.225   0.035  1.00  0.00     0.198 C 
BRANCH  69  70
HETATM   70  O   UNL     1     -19.557 -12.085  -1.023  1.00  0.00    -0.398 OA
HETATM   71  H   UNL     1     -19.422 -12.993  -0.657  1.00  0.00     0.209 HD
ENDBRANCH  69  70
ENDBRANCH  13  69
ENDBRANCH   7   8
ENDBRANCH   1   7
BRANCH   2  72
HETATM   72  N   UNL     1     -17.173 -17.085   0.333  1.00  0.00     0.090 N 
HETATM   73  H   UNL     1     -16.425 -16.432   0.610  1.00  0.00     0.313 HD
HETATM   74  H   UNL     1     -17.086 -17.231  -0.674  1.00  0.00     0.313 HD
ENDBRANCH   2  72
BRANCH   3  75
HETATM   75  O   UNL     1     -19.636 -17.183  -1.517  1.00  0.00    -0.391 OA
HETATM   76  H   UNL     1     -20.562 -17.221  -1.818  1.00  0.00     0.210 HD
ENDBRANCH   3  75
BRANCH   5  77
HETATM   77  C   UNL     1     -20.355 -13.586   0.986  1.00  0.00     0.198 C 
BRANCH  77  78
HETATM   78  O   UNL     1     -21.547 -12.806   1.049  1.00  0.00    -0.398 OA
HETATM   79  H   UNL     1     -21.763 -12.665   1.984  1.00  0.00     0.209 HD
ENDBRANCH  77  78
ENDBRANCH   5  77
BRANCH   4  80
HETATM   80  O   UNL     1     -22.107 -17.029   0.298  1.00  0.00    -0.348 OA
BRANCH  80  81
HETATM   81  C   UNL     1     -23.113 -17.181  -0.823  1.00  0.00     0.296 C 
HETATM   82  C   UNL     1     -22.394 -16.811  -2.165  1.00  0.00     0.303 C 
HETATM   83  C   UNL     1     -22.591 -15.190  -2.652  1.00  0.00     0.187 C 
HETATM   84  C   UNL     1     -23.937 -14.370  -2.439  1.00  0.00     0.186 C 
HETATM   85  C   UNL     1     -24.623 -15.105  -1.165  1.00  0.00     0.179 C 
HETATM   86  O   UNL     1     -24.445 -16.576  -0.942  1.00  0.00    -0.349 OA
BRANCH  82  87
HETATM   87  N   UNL     1     -20.897 -17.182  -2.132  1.00  0.00     0.090 N 
HETATM   88  H   UNL     1     -20.572 -16.944  -1.190  1.00  0.00     0.313 HD
HETATM   89  H   UNL     1     -20.671 -18.158  -2.351  1.00  0.00     0.313 HD
ENDBRANCH  82  87
BRANCH  83  90
HETATM   90  O   UNL     1     -21.575 -14.315  -2.070  1.00  0.00    -0.391 OA
HETATM   91  H   UNL     1     -21.027 -14.934  -1.564  1.00  0.00     0.210 HD
ENDBRANCH  83  90
BRANCH  84  92
HETATM   92  O   UNL     1     -24.592 -14.171  -3.804  1.00  0.00    -0.348 OA
BRANCH  92  93
HETATM   93  C   UNL     1     -23.931 -13.849  -5.158  1.00  0.00     0.296 C 
HETATM   94  C   UNL     1     -23.654 -15.121  -6.122  1.00  0.00     0.303 C 
HETATM   95  C   UNL     1     -22.181 -15.599  -6.487  1.00  0.00     0.187 C 
HETATM   96  C   UNL     1     -21.065 -14.556  -6.535  1.00  0.00     0.186 C 
HETATM   97  C   UNL     1     -21.489 -13.236  -5.727  1.00  0.00     0.179 C 
HETATM   98  O   UNL     1     -22.894 -12.878  -5.415  1.00  0.00    -0.349 OA
BRANCH  94  99
HETATM   99  N   UNL     1     -24.513 -16.293  -5.882  1.00  0.00     0.090 NA
HETATM  100  H   UNL     1     -24.300 -16.975  -6.624  1.00  0.00     0.313 HD
HETATM  101  H   UNL     1     -24.212 -16.735  -5.013  1.00  0.00     0.313 HD
ENDBRANCH  94  99
BRANCH  95 102
HETATM  102  O   UNL     1     -21.659 -16.642  -5.644  1.00  0.00    -0.391 OA
HETATM  103  H   UNL     1     -20.729 -16.782  -5.934  1.00  0.00     0.210 HD
ENDBRANCH  95 102
BRANCH  96 104
HETATM  104  O   UNL     1     -20.144 -14.880  -7.666  1.00  0.00    -0.348 OA
BRANCH 104 105
HETATM  105  C   UNL     1     -19.111 -15.860  -7.854  1.00  0.00     0.296 C 
HETATM  106  C   UNL     1     -18.343 -16.295  -6.488  1.00  0.00     0.303 C 
HETATM  107  C   UNL     1     -17.142 -15.367  -6.092  1.00  0.00     0.187 C 
HETATM  108  C   UNL     1     -16.305 -14.696  -7.204  1.00  0.00     0.186 C 
HETATM  109  C   UNL     1     -17.066 -14.549  -8.548  1.00  0.00     0.179 C 
HETATM  110  O   UNL     1     -18.083 -15.554  -8.828  1.00  0.00    -0.349 OA
BRANCH 106 111
HETATM  111  N   UNL     1     -19.135 -16.653  -5.225  1.00  0.00     0.090 N 
HETATM  112  H   UNL     1     -19.030 -15.828  -4.628  1.00  0.00     0.313 HD
HETATM  113  H   UNL     1     -18.528 -17.346  -4.752  1.00  0.00     0.313 HD
ENDBRANCH 106 111
BRANCH 107 114
HETATM  114  O   UNL     1     -17.536 -14.494  -5.041  1.00  0.00    -0.391 OA
HETATM  115  H   UNL     1     -17.619 -13.576  -5.380  1.00  0.00     0.210 HD
ENDBRANCH 107 114
BRANCH 108 116
HETATM  116  O   UNL     1     -15.135 -15.528  -7.226  1.00  0.00    -0.348 OA
BRANCH 116 117
HETATM  117  C   UNL     1     -13.925 -15.232  -6.510  1.00  0.00     0.296 C 
HETATM  118  C   UNL     1     -13.867 -15.879  -5.075  1.00  0.00     0.303 C 
HETATM  119  C   UNL     1     -14.362 -14.956  -3.952  1.00  0.00     0.187 C 
HETATM  120  C   UNL     1     -13.910 -13.491  -4.157  1.00  0.00     0.180 C 
HETATM  121  C   UNL     1     -13.833 -12.978  -5.616  1.00  0.00     0.179 C 
HETATM  122  O   UNL     1     -13.419 -13.918  -6.610  1.00  0.00    -0.349 OA
BRANCH 118 123
HETATM  123  N   UNL     1     -14.694 -17.182  -4.975  1.00  0.00     0.090 N 
HETATM  124  H   UNL     1     -14.048 -17.820  -4.514  1.00  0.00     0.313 HD
HETATM  125  H   UNL     1     -14.520 -17.519  -5.937  1.00  0.00     0.313 HD
ENDBRANCH 118 123
BRANCH 119 126
HETATM  126  O   UNL     1     -15.753 -15.324  -3.738  1.00  0.00    -0.391 OA
HETATM  127  H   UNL     1     -16.120 -15.545  -4.617  1.00  0.00     0.210 HD
ENDBRANCH 119 126
BRANCH 120 128
HETATM  128  O   UNL     1     -12.514 -13.538  -3.721  1.00  0.00    -0.390 OA
HETATM  129  H   UNL     1     -12.105 -14.300  -4.203  1.00  0.00     0.210 HD
ENDBRANCH 120 128
BRANCH 121 130
HETATM  130  C   UNL     1     -15.040 -12.162  -6.063  1.00  0.00     0.198 C 
BRANCH 130 131
HETATM  131  O   UNL     1     -14.776 -11.730  -7.378  1.00  0.00    -0.398 OA
HETATM  132  H   UNL     1     -14.123 -11.005  -7.326  1.00  0.00     0.209 HD
ENDBRANCH 130 131
ENDBRANCH 121 130
ENDBRANCH 116 117
ENDBRANCH 108 116
BRANCH 109 133
HETATM  133  C   UNL     1     -17.685 -13.138  -8.720  1.00  0.00     0.198 C 
BRANCH 133 134
HETATM  134  O   UNL     1     -17.948 -12.570  -7.439  1.00  0.00    -0.398 OA
HETATM  135  H   UNL     1     -18.575 -11.839  -7.582  1.00  0.00     0.209 HD
ENDBRANCH 133 134
ENDBRANCH 109 133
ENDBRANCH 104 105
ENDBRANCH  96 104
BRANCH  97 136
HETATM  136  C   UNL     1     -20.843 -13.191  -4.309  1.00  0.00     0.198 C 
BRANCH 136 137
HETATM  137  O   UNL     1     -19.722 -14.082  -4.288  1.00  0.00    -0.398 OA
HETATM  138  H   UNL     1     -19.738 -14.583  -3.458  1.00  0.00     0.209 HD
ENDBRANCH 136 137
ENDBRANCH  97 136
ENDBRANCH  92  93
ENDBRANCH  84  92
BRANCH  85 139
HETATM  139  C   UNL     1     -24.199 -14.479   0.201  1.00  0.00     0.198 C 
BRANCH 139 140
HETATM  140  O   UNL     1     -24.335 -15.451   1.274  1.00  0.00    -0.398 OA
HETATM  141  H   UNL     1     -24.736 -14.988   2.033  1.00  0.00     0.209 HD
ENDBRANCH 139 140
ENDBRANCH  85 139
ENDBRANCH  80  81
ENDBRANCH   4  80
TORSDOF 55
ENDMDL
