MODEL 1
REMARK VINA RESULT:      -5.7      0.000      0.000
REMARK  6 active torsions:
REMARK  status: ('A' for Active; 'I' for Inactive)
REMARK    1  A    between atoms: C_5  and  C_6 
REMARK    2  A    between atoms: C_6  and  C_7 
REMARK    3  A    between atoms: C_7  and  C_8 
REMARK    4  A    between atoms: C_8  and  C_9 
REMARK    5  A    between atoms: C_9  and  C_10 
REMARK    6  A    between atoms: C_10  and  O_12 
ROOT
HETATM    1  C   UNL     1     -20.596  -3.921 -11.055  1.00  0.00     0.002 C 
ENDROOT
BRANCH   1   2
HETATM    2  C   UNL     1     -20.312  -4.781  -9.820  1.00  0.00     0.016 C 
BRANCH   2   3
HETATM    3  C   UNL     1     -20.109  -3.950  -8.543  1.00  0.00     0.059 C 
HETATM    4  C   UNL     1     -19.166  -4.572  -7.503  1.00  0.00     0.027 C 
HETATM    5  C   UNL     1     -19.768  -5.843  -6.911  1.00  0.00     0.087 C 
HETATM    6  S   UNL     1     -21.510  -5.507  -6.535  1.00  0.00    -0.097 SA
HETATM    7  S   UNL     1     -21.694  -3.796  -7.656  1.00  0.00    -0.093 SA
ENDBRANCH   2   3
ENDBRANCH   1   2
BRANCH   1   8
HETATM    8  C   UNL     1     -22.025  -4.142 -11.550  1.00  0.00     0.010 C 
BRANCH   8   9
HETATM    9  C   UNL     1     -22.739  -2.820 -11.825  1.00  0.00     0.110 C 
BRANCH   9  10
HETATM   10  C   UNL     1     -24.214  -3.033 -12.073  1.00  0.00     0.139 C 
HETATM   11  O   UNL     1     -24.753  -3.053 -13.167  1.00  0.00    -0.650 OA
BRANCH  10  12
HETATM   12  O   UNL     1     -24.909  -3.201 -10.924  1.00  0.00    -0.776 OA
HETATM   13  H   UNL     1     -25.007  -2.385 -10.398  1.00  0.00     0.167 HD
ENDBRANCH  10  12
ENDBRANCH   9  10
ENDBRANCH   8   9
ENDBRANCH   1   8
TORSDOF 6
ENDMDL
MODEL 2
REMARK VINA RESULT:      -5.2      4.173      5.798
REMARK  6 active torsions:
REMARK  status: ('A' for Active; 'I' for Inactive)
REMARK    1  A    between atoms: C_5  and  C_6 
REMARK    2  A    between atoms: C_6  and  C_7 
REMARK    3  A    between atoms: C_7  and  C_8 
REMARK    4  A    between atoms: C_8  and  C_9 
REMARK    5  A    between atoms: C_9  and  C_10 
REMARK    6  A    between atoms: C_10  and  O_12 
ROOT
HETATM    1  C   UNL     1     -22.479  -4.273  -7.575  1.00  0.00     0.002 C 
ENDROOT
BRANCH   1   2
HETATM    2  C   UNL     1     -22.860  -3.739  -8.960  1.00  0.00     0.016 C 
BRANCH   2   3
HETATM    3  C   UNL     1     -22.372  -4.639 -10.106  1.00  0.00     0.059 C 
HETATM    4  C   UNL     1     -21.064  -4.193 -10.774  1.00  0.00     0.027 C 
HETATM    5  C   UNL     1     -21.252  -2.875 -11.520  1.00  0.00     0.087 C 
HETATM    6  S   UNL     1     -22.806  -2.984 -12.449  1.00  0.00    -0.097 SA
HETATM    7  S   UNL     1     -23.587  -4.608 -11.464  1.00  0.00    -0.093 SA
ENDBRANCH   2   3
ENDBRANCH   1   2
BRANCH   1   8
HETATM    8  C   UNL     1     -21.186  -3.624  -7.083  1.00  0.00     0.010 C 
BRANCH   8   9
HETATM    9  C   UNL     1     -20.029  -4.620  -7.054  1.00  0.00     0.110 C 
BRANCH   9  10
HETATM   10  C   UNL     1     -20.262  -5.704  -6.029  1.00  0.00     0.139 C 
HETATM   11  O   UNL     1     -20.692  -5.533  -4.901  1.00  0.00    -0.650 OA
BRANCH  10  12
HETATM   12  O   UNL     1     -19.933  -6.931  -6.496  1.00  0.00    -0.776 OA
HETATM   13  H   UNL     1     -20.665  -7.392  -6.947  1.00  0.00     0.167 HD
ENDBRANCH  10  12
ENDBRANCH   9  10
ENDBRANCH   8   9
ENDBRANCH   1   8
TORSDOF 6
ENDMDL
MODEL 3
REMARK VINA RESULT:      -4.9      3.434      4.461
REMARK  6 active torsions:
REMARK  status: ('A' for Active; 'I' for Inactive)
REMARK    1  A    between atoms: C_5  and  C_6 
REMARK    2  A    between atoms: C_6  and  C_7 
REMARK    3  A    between atoms: C_7  and  C_8 
REMARK    4  A    between atoms: C_8  and  C_9 
REMARK    5  A    between atoms: C_9  and  C_10 
REMARK    6  A    between atoms: C_10  and  O_12 
ROOT
HETATM    1  C   UNL     1     -19.917  -5.681  -7.474  1.00  0.00     0.002 C 
ENDROOT
BRANCH   1   2
HETATM    2  C   UNL     1     -20.122  -6.044  -5.999  1.00  0.00     0.016 C 
BRANCH   2   3
HETATM    3  C   UNL     1     -21.275  -7.036  -5.780  1.00  0.00     0.059 C 
HETATM    4  C   UNL     1     -22.372  -6.561  -4.817  1.00  0.00     0.027 C 
HETATM    5  C   UNL     1     -21.835  -6.443  -3.393  1.00  0.00     0.087 C 
HETATM    6  S   UNL     1     -20.846  -7.924  -3.051  1.00  0.00    -0.097 SA
HETATM    7  S   UNL     1     -20.633  -8.551  -4.995  1.00  0.00    -0.093 SA
ENDBRANCH   2   3
ENDBRANCH   1   2
BRANCH   1   8
HETATM    8  C   UNL     1     -20.071  -4.175  -7.686  1.00  0.00     0.010 C 
BRANCH   8   9
HETATM    9  C   UNL     1     -21.408  -3.664  -7.154  1.00  0.00     0.110 C 
BRANCH   9  10
HETATM   10  C   UNL     1     -22.550  -4.069  -8.057  1.00  0.00     0.139 C 
HETATM   11  O   UNL     1     -22.486  -4.191  -9.268  1.00  0.00    -0.650 OA
BRANCH  10  12
HETATM   12  O   UNL     1     -23.695  -4.288  -7.369  1.00  0.00    -0.776 OA
HETATM   13  H   UNL     1     -24.493  -3.943  -7.810  1.00  0.00     0.167 HD
ENDBRANCH  10  12
ENDBRANCH   9  10
ENDBRANCH   8   9
ENDBRANCH   1   8
TORSDOF 6
ENDMDL
MODEL 4
REMARK VINA RESULT:      -4.9      4.007      5.491
REMARK  6 active torsions:
REMARK  status: ('A' for Active; 'I' for Inactive)
REMARK    1  A    between atoms: C_5  and  C_6 
REMARK    2  A    between atoms: C_6  and  C_7 
REMARK    3  A    between atoms: C_7  and  C_8 
REMARK    4  A    between atoms: C_8  and  C_9 
REMARK    5  A    between atoms: C_9  and  C_10 
REMARK    6  A    between atoms: C_10  and  O_12 
ROOT
HETATM    1  C   UNL     1     -19.908  -4.180  -8.434  1.00  0.00     0.002 C 
ENDROOT
BRANCH   1   2
HETATM    2  C   UNL     1     -20.858  -4.504  -9.591  1.00  0.00     0.016 C 
BRANCH   2   3
HETATM    3  C   UNL     1     -21.933  -3.427  -9.806  1.00  0.00     0.059 C 
HETATM    4  C   UNL     1     -23.351  -3.825  -9.374  1.00  0.00     0.027 C 
HETATM    5  C   UNL     1     -23.898  -4.941 -10.260  1.00  0.00     0.087 C 
HETATM    6  S   UNL     1     -23.511  -4.520 -11.981  1.00  0.00    -0.097 SA
HETATM    7  S   UNL     1     -22.101  -3.080 -11.587  1.00  0.00    -0.093 SA
ENDBRANCH   2   3
ENDBRANCH   1   2
BRANCH   1   8
HETATM    8  C   UNL     1     -19.810  -5.363  -7.469  1.00  0.00     0.010 C 
BRANCH   8   9
HETATM    9  C   UNL     1     -21.184  -5.940  -7.141  1.00  0.00     0.110 C 
BRANCH   9  10
HETATM   10  C   UNL     1     -21.544  -5.714  -5.691  1.00  0.00     0.139 C 
HETATM   11  O   UNL     1     -22.590  -6.046  -5.161  1.00  0.00    -0.650 OA
BRANCH  10  12
HETATM   12  O   UNL     1     -20.560  -5.081  -5.011  1.00  0.00    -0.776 OA
HETATM   13  H   UNL     1     -20.159  -5.620  -4.304  1.00  0.00     0.167 HD
ENDBRANCH  10  12
ENDBRANCH   9  10
ENDBRANCH   8   9
ENDBRANCH   1   8
TORSDOF 6
ENDMDL
MODEL 5
REMARK VINA RESULT:      -4.9      5.175      7.460
REMARK  6 active torsions:
REMARK  status: ('A' for Active; 'I' for Inactive)
REMARK    1  A    between atoms: C_5  and  C_6 
REMARK    2  A    between atoms: C_6  and  C_7 
REMARK    3  A    between atoms: C_7  and  C_8 
REMARK    4  A    between atoms: C_8  and  C_9 
REMARK    5  A    between atoms: C_9  and  C_10 
REMARK    6  A    between atoms: C_10  and  O_12 
ROOT
HETATM    1  C   UNL     1     -20.557  -6.770  -5.208  1.00  0.00     0.002 C 
ENDROOT
BRANCH   1   2
HETATM    2  C   UNL     1     -21.095  -6.226  -6.535  1.00  0.00     0.016 C 
BRANCH   2   3
HETATM    3  C   UNL     1     -20.878  -4.713  -6.697  1.00  0.00     0.059 C 
HETATM    4  C   UNL     1     -22.010  -3.964  -7.414  1.00  0.00     0.027 C 
HETATM    5  C   UNL     1     -22.102  -4.386  -8.878  1.00  0.00     0.087 C 
HETATM    6  S   UNL     1     -20.417  -4.431  -9.547  1.00  0.00    -0.097 SA
HETATM    7  S   UNL     1     -19.421  -4.415  -7.751  1.00  0.00    -0.093 SA
ENDBRANCH   2   3
ENDBRANCH   1   2
BRANCH   1   8
HETATM    8  C   UNL     1     -21.633  -6.710  -4.124  1.00  0.00     0.010 C 
BRANCH   8   9
HETATM    9  C   UNL     1     -21.128  -7.267  -2.795  1.00  0.00     0.110 C 
BRANCH   9  10
HETATM   10  C   UNL     1     -22.031  -6.868  -1.652  1.00  0.00     0.139 C 
HETATM   11  O   UNL     1     -22.346  -7.582  -0.716  1.00  0.00    -0.650 OA
BRANCH  10  12
HETATM   12  O   UNL     1     -22.478  -5.596  -1.771  1.00  0.00    -0.776 OA
HETATM   13  H   UNL     1     -22.636  -5.152  -0.917  1.00  0.00     0.167 HD
ENDBRANCH  10  12
ENDBRANCH   9  10
ENDBRANCH   8   9
ENDBRANCH   1   8
TORSDOF 6
ENDMDL
MODEL 6
REMARK VINA RESULT:      -4.8      6.764      8.796
REMARK  6 active torsions:
REMARK  status: ('A' for Active; 'I' for Inactive)
REMARK    1  A    between atoms: C_5  and  C_6 
REMARK    2  A    between atoms: C_6  and  C_7 
REMARK    3  A    between atoms: C_7  and  C_8 
REMARK    4  A    between atoms: C_8  and  C_9 
REMARK    5  A    between atoms: C_9  and  C_10 
REMARK    6  A    between atoms: C_10  and  O_12 
ROOT
HETATM    1  C   UNL     1     -21.926  -6.261  -2.252  1.00  0.00     0.002 C 
ENDROOT
BRANCH   1   2
HETATM    2  C   UNL     1     -21.399  -7.516  -1.548  1.00  0.00     0.016 C 
BRANCH   2   3
HETATM    3  C   UNL     1     -22.472  -8.228  -0.709  1.00  0.00     0.059 C 
HETATM    4  C   UNL     1     -22.351  -8.030   0.809  1.00  0.00     0.027 C 
HETATM    5  C   UNL     1     -21.089  -8.698   1.348  1.00  0.00     0.087 C 
HETATM    6  S   UNL     1     -20.968 -10.341   0.592  1.00  0.00    -0.097 SA
HETATM    7  S   UNL     1     -22.317 -10.031  -0.925  1.00  0.00    -0.093 SA
ENDBRANCH   2   3
ENDBRANCH   1   2
BRANCH   1   8
HETATM    8  C   UNL     1     -21.335  -6.143  -3.657  1.00  0.00     0.010 C 
BRANCH   8   9
HETATM    9  C   UNL     1     -22.201  -6.850  -4.696  1.00  0.00     0.110 C 
BRANCH   9  10
HETATM   10  C   UNL     1     -21.356  -7.593  -5.704  1.00  0.00     0.139 C 
HETATM   11  O   UNL     1     -21.100  -8.785  -5.672  1.00  0.00    -0.650 OA
BRANCH  10  12
HETATM   12  O   UNL     1     -20.888  -6.782  -6.680  1.00  0.00    -0.776 OA
HETATM   13  H   UNL     1     -21.125  -7.070  -7.581  1.00  0.00     0.167 HD
ENDBRANCH  10  12
ENDBRANCH   9  10
ENDBRANCH   8   9
ENDBRANCH   1   8
TORSDOF 6
ENDMDL
MODEL 7
REMARK VINA RESULT:      -4.6      8.520     10.733
REMARK  6 active torsions:
REMARK  status: ('A' for Active; 'I' for Inactive)
REMARK    1  A    between atoms: C_5  and  C_6 
REMARK    2  A    between atoms: C_6  and  C_7 
REMARK    3  A    between atoms: C_7  and  C_8 
REMARK    4  A    between atoms: C_8  and  C_9 
REMARK    5  A    between atoms: C_9  and  C_10 
REMARK    6  A    between atoms: C_10  and  O_12 
ROOT
HETATM    1  C   UNL     1     -21.795  -8.201   0.548  1.00  0.00     0.002 C 
ENDROOT
BRANCH   1   2
HETATM    2  C   UNL     1     -21.753  -9.705   0.260  1.00  0.00     0.016 C 
BRANCH   2   3
HETATM    3  C   UNL     1     -22.851 -10.162  -0.713  1.00  0.00     0.059 C 
HETATM    4  C   UNL     1     -23.947 -11.040  -0.094  1.00  0.00     0.027 C 
HETATM    5  C   UNL     1     -23.384 -12.391   0.340  1.00  0.00     0.087 C 
HETATM    6  S   UNL     1     -22.319 -13.000  -0.995  1.00  0.00    -0.097 SA
HETATM    7  S   UNL     1     -22.121 -11.221  -2.003  1.00  0.00    -0.093 SA
ENDBRANCH   2   3
ENDBRANCH   1   2
BRANCH   1   8
HETATM    8  C   UNL     1     -22.786  -7.501  -0.383  1.00  0.00     0.010 C 
BRANCH   8   9
HETATM    9  C   UNL     1     -22.118  -6.387  -1.185  1.00  0.00     0.110 C 
BRANCH   9  10
HETATM   10  C   UNL     1     -21.698  -6.871  -2.553  1.00  0.00     0.139 C 
HETATM   11  O   UNL     1     -20.942  -7.801  -2.774  1.00  0.00    -0.650 OA
BRANCH  10  12
HETATM   12  O   UNL     1     -22.258  -6.145  -3.549  1.00  0.00    -0.776 OA
HETATM   13  H   UNL     1     -22.948  -5.526  -3.246  1.00  0.00     0.167 HD
ENDBRANCH  10  12
ENDBRANCH   9  10
ENDBRANCH   8   9
ENDBRANCH   1   8
TORSDOF 6
ENDMDL
MODEL 8
REMARK VINA RESULT:      -4.6      6.333      8.185
REMARK  6 active torsions:
REMARK  status: ('A' for Active; 'I' for Inactive)
REMARK    1  A    between atoms: C_5  and  C_6 
REMARK    2  A    between atoms: C_6  and  C_7 
REMARK    3  A    between atoms: C_7  and  C_8 
REMARK    4  A    between atoms: C_8  and  C_9 
REMARK    5  A    between atoms: C_9  and  C_10 
REMARK    6  A    between atoms: C_10  and  O_12 
ROOT
HETATM    1  C   UNL     1     -21.481  -6.062  -2.707  1.00  0.00     0.002 C 
ENDROOT
BRANCH   1   2
HETATM    2  C   UNL     1     -22.221  -6.824  -1.604  1.00  0.00     0.016 C 
BRANCH   2   3
HETATM    3  C   UNL     1     -21.308  -7.774  -0.812  1.00  0.00     0.059 C 
HETATM    4  C   UNL     1     -20.842  -9.020  -1.577  1.00  0.00     0.027 C 
HETATM    5  C   UNL     1     -22.016  -9.950  -1.872  1.00  0.00     0.087 C 
HETATM    6  S   UNL     1     -23.012 -10.078  -0.362  1.00  0.00    -0.097 SA
HETATM    7  S   UNL     1     -22.220  -8.452   0.612  1.00  0.00    -0.093 SA
ENDBRANCH   2   3
ENDBRANCH   1   2
BRANCH   1   8
HETATM    8  C   UNL     1     -21.908  -6.562  -4.088  1.00  0.00     0.010 C 
BRANCH   8   9
HETATM    9  C   UNL     1     -20.711  -7.029  -4.914  1.00  0.00     0.110 C 
BRANCH   9  10
HETATM   10  C   UNL     1     -20.298  -5.984  -5.923  1.00  0.00     0.139 C 
HETATM   11  O   UNL     1     -20.043  -4.819  -5.672  1.00  0.00    -0.650 OA
BRANCH  10  12
HETATM   12  O   UNL     1     -20.238  -6.481  -7.181  1.00  0.00    -0.776 OA
HETATM   13  H   UNL     1     -21.063  -6.909  -7.476  1.00  0.00     0.167 HD
ENDBRANCH  10  12
ENDBRANCH   9  10
ENDBRANCH   8   9
ENDBRANCH   1   8
TORSDOF 6
ENDMDL
MODEL 9
REMARK VINA RESULT:      -4.3     19.296     20.927
REMARK  6 active torsions:
REMARK  status: ('A' for Active; 'I' for Inactive)
REMARK    1  A    between atoms: C_5  and  C_6 
REMARK    2  A    between atoms: C_6  and  C_7 
REMARK    3  A    between atoms: C_7  and  C_8 
REMARK    4  A    between atoms: C_8  and  C_9 
REMARK    5  A    between atoms: C_9  and  C_10 
REMARK    6  A    between atoms: C_10  and  O_12 
ROOT
HETATM    1  C   UNL     1     -14.631   7.993   4.934  1.00  0.00     0.002 C 
ENDROOT
BRANCH   1   2
HETATM    2  C   UNL     1     -14.071   8.697   3.693  1.00  0.00     0.016 C 
BRANCH   2   3
HETATM    3  C   UNL     1     -14.828   8.335   2.405  1.00  0.00     0.059 C 
HETATM    4  C   UNL     1     -14.094   8.674   1.100  1.00  0.00     0.027 C 
HETATM    5  C   UNL     1     -13.960  10.185   0.926  1.00  0.00     0.087 C 
HETATM    6  S   UNL     1     -15.559  10.933   1.341  1.00  0.00    -0.097 SA
HETATM    7  S   UNL     1     -16.365   9.310   2.307  1.00  0.00    -0.093 SA
ENDBRANCH   2   3
ENDBRANCH   1   2
BRANCH   1   8
HETATM    8  C   UNL     1     -14.184   8.710   6.208  1.00  0.00     0.010 C 
BRANCH   8   9
HETATM    9  C   UNL     1     -15.371   9.067   7.101  1.00  0.00     0.110 C 
BRANCH   9  10
HETATM   10  C   UNL     1     -16.365   9.940   6.373  1.00  0.00     0.139 C 
HETATM   11  O   UNL     1     -17.528   9.653   6.148  1.00  0.00    -0.650 OA
BRANCH  10  12
HETATM   12  O   UNL     1     -15.822  11.114   5.974  1.00  0.00    -0.776 OA
HETATM   13  H   UNL     1     -16.384  11.620   5.358  1.00  0.00     0.167 HD
ENDBRANCH  10  12
ENDBRANCH   9  10
ENDBRANCH   8   9
ENDBRANCH   1   8
TORSDOF 6
ENDMDL
