MODEL 1
REMARK VINA RESULT:      -6.7      0.000      0.000
REMARK  22 active torsions:
REMARK  status: ('A' for Active; 'I' for Inactive)
REMARK    1  A    between atoms: O_2  and  C_3 
REMARK    2  A    between atoms: C_3  and  C_4 
REMARK    3  A    between atoms: C_5  and  O_39 
REMARK    4  A    between atoms: C_6  and  O_38 
REMARK    5  A    between atoms: C_7  and  O_37 
REMARK    6  A    between atoms: C_8  and  C_10 
REMARK    7  A    between atoms: C_10  and  O_11 
REMARK    8  A    between atoms: O_11  and  C_12 
REMARK    9  A    between atoms: C_12  and  C_13 
REMARK   10  A    between atoms: C_14  and  C_35 
REMARK   11  A    between atoms: C_16  and  C_21 
REMARK   12  A    between atoms: C_17  and  O_20 
REMARK   13  A    between atoms: C_18  and  O_19 
REMARK   14  A    between atoms: C_21  and  O_22 
REMARK   15  A    between atoms: O_22  and  C_23 
REMARK   16  A    between atoms: C_23  and  C_24 
REMARK   17  A    between atoms: C_25  and  C_33 
REMARK   18  A    between atoms: C_27  and  O_32 
REMARK   19  A    between atoms: C_28  and  O_31 
REMARK   20  A    between atoms: C_29  and  O_30 
REMARK   21  A    between atoms: C_33  and  O_34 
REMARK   22  A    between atoms: C_35  and  O_36 
ROOT
HETATM    1  C   UNL     1     -20.499  -8.489  -2.744  1.00  0.00     0.072 C 
HETATM    2  C   UNL     1     -21.681  -7.607  -3.175  1.00  0.00     0.154 C 
HETATM    3  O   UNL     1     -22.050  -7.791  -4.545  1.00  0.00    -0.373 OA
HETATM    4  C   UNL     1     -21.005  -7.822  -5.538  1.00  0.00     0.177 C 
HETATM    5  C   UNL     1     -19.841  -8.759  -5.155  1.00  0.00     0.178 C 
HETATM    6  C   UNL     1     -19.351  -8.377  -3.758  1.00  0.00     0.158 C 
ENDROOT
BRANCH   1   7
HETATM    7  C   UNL     1     -20.987  -9.935  -2.521  1.00  0.00     0.177 C 
BRANCH   7   8
HETATM    8  O   UNL     1     -20.074 -10.728  -1.768  1.00  0.00    -0.388 OA
BRANCH   8   9
HETATM    9  C   UNL     1     -19.766 -11.984  -2.391  1.00  0.00     0.202 C 
BRANCH   9  10
HETATM   10  C   UNL     1     -18.332 -12.369  -2.035  1.00  0.00     0.177 C 
HETATM   11  C   UNL     1     -18.304 -13.360  -0.866  1.00  0.00     0.180 C 
HETATM   12  C   UNL     1     -16.847 -13.616  -0.451  1.00  0.00     0.180 C 
HETATM   13  C   UNL     1     -16.075 -12.305  -0.212  1.00  0.00     0.180 C 
HETATM   14  C   UNL     1     -16.215 -11.357  -1.412  1.00  0.00     0.177 C 
HETATM   15  O   UNL     1     -17.619 -11.169  -1.677  1.00  0.00    -0.371 OA
BRANCH  11  16
HETATM   16  O   UNL     1     -19.059 -12.861   0.253  1.00  0.00    -0.390 OA
HETATM   17  H   UNL     1     -19.999 -12.860  -0.013  1.00  0.00     0.210 HD
ENDBRANCH  11  16
BRANCH  12  18
HETATM   18  O   UNL     1     -16.815 -14.422   0.730  1.00  0.00    -0.390 OA
HETATM   19  H   UNL     1     -17.712 -14.813   0.784  1.00  0.00     0.210 HD
ENDBRANCH  12  18
BRANCH  13  20
HETATM   20  O   UNL     1     -16.622 -11.672   0.969  1.00  0.00    -0.390 OA
HETATM   21  H   UNL     1     -17.195 -12.320   1.422  1.00  0.00     0.210 HD
ENDBRANCH  13  20
BRANCH  14  22
HETATM   22  C   UNL     1     -15.419 -11.784  -2.658  1.00  0.00     0.201 C 
BRANCH  22  23
HETATM   23  O   UNL     1     -15.628 -10.803  -3.679  1.00  0.00    -0.393 OA
HETATM   24  C   UNL     1     -16.034 -11.375  -4.912  1.00  0.00     0.201 C 
ENDBRANCH  22  23
ENDBRANCH  14  22
ENDBRANCH   9  10
ENDBRANCH   8   9
ENDBRANCH   7   8
ENDBRANCH   1   7
BRANCH   2  25
HETATM   25  C   UNL     1     -21.487  -6.131  -2.789  1.00  0.00     0.196 C 
BRANCH  25  26
HETATM   26  O   UNL     1     -22.458  -5.719  -1.830  1.00  0.00    -0.398 OA
HETATM   27  H   UNL     1     -22.985  -6.496  -1.590  1.00  0.00     0.209 HD
ENDBRANCH  25  26
ENDBRANCH   2  25
BRANCH   6  28
HETATM   28  O   UNL     1     -18.194  -9.130  -3.402  1.00  0.00    -0.392 OA
HETATM   29  H   UNL     1     -17.444  -8.837  -3.962  1.00  0.00     0.210 HD
ENDBRANCH   6  28
BRANCH   5  30
HETATM   30  O   UNL     1     -18.771  -8.764  -6.098  1.00  0.00    -0.390 OA
HETATM   31  H   UNL     1     -19.134  -8.491  -6.960  1.00  0.00     0.210 HD
ENDBRANCH   5  30
BRANCH   4  32
HETATM   32  C   UNL     1     -20.590  -6.400  -5.970  1.00  0.00     0.202 C 
BRANCH  32  33
HETATM   33  O   UNL     1     -21.633  -5.601  -6.515  1.00  0.00    -0.388 OA
BRANCH  33  34
HETATM   34  C   UNL     1     -21.687  -5.651  -7.939  1.00  0.00     0.177 C 
BRANCH  34  35
HETATM   35  C   UNL     1     -22.185  -4.302  -8.465  1.00  0.00     0.072 C 
HETATM   36  C   UNL     1     -23.523  -4.460  -9.199  1.00  0.00     0.157 C 
HETATM   37  O   UNL     1     -23.370  -5.153 -10.450  1.00  0.00    -0.351 OA
HETATM   38  C   UNL     1     -22.371  -4.689 -11.341  1.00  0.00     0.288 C 
HETATM   39  C   UNL     1     -20.994  -4.462 -10.689  1.00  0.00     0.202 C 
HETATM   40  C   UNL     1     -21.134  -3.669  -9.383  1.00  0.00     0.160 C 
BRANCH  36  41
HETATM   41  C   UNL     1     -24.257  -3.117  -9.366  1.00  0.00     0.196 C 
BRANCH  41  42
HETATM   42  O   UNL     1     -25.331  -3.242 -10.289  1.00  0.00    -0.398 OA
HETATM   43  H   UNL     1     -25.785  -4.078 -10.067  1.00  0.00     0.209 HD
ENDBRANCH  41  42
ENDBRANCH  36  41
BRANCH  38  44
HETATM   44  O   UNL     1     -22.818  -3.545 -12.065  1.00  0.00    -0.369 OA
HETATM   45  H   UNL     1     -22.768  -2.769 -11.499  1.00  0.00     0.212 HD
ENDBRANCH  38  44
BRANCH  39  46
HETATM   46  O   UNL     1     -20.085  -3.782 -11.563  1.00  0.00    -0.388 OA
HETATM   47  H   UNL     1     -20.141  -4.200 -12.443  1.00  0.00     0.210 HD
ENDBRANCH  39  46
BRANCH  40  48
HETATM   48  O   UNL     1     -19.890  -3.571  -8.684  1.00  0.00    -0.392 OA
HETATM   49  H   UNL     1     -19.300  -2.972  -9.176  1.00  0.00     0.210 HD
ENDBRANCH  40  48
ENDBRANCH  34  35
ENDBRANCH  33  34
ENDBRANCH  32  33
ENDBRANCH   4  32
TORSDOF 22
ENDMDL
MODEL 2
REMARK VINA RESULT:      -6.3      1.950      2.858
REMARK  22 active torsions:
REMARK  status: ('A' for Active; 'I' for Inactive)
REMARK    1  A    between atoms: O_2  and  C_3 
REMARK    2  A    between atoms: C_3  and  C_4 
REMARK    3  A    between atoms: C_5  and  O_39 
REMARK    4  A    between atoms: C_6  and  O_38 
REMARK    5  A    between atoms: C_7  and  O_37 
REMARK    6  A    between atoms: C_8  and  C_10 
REMARK    7  A    between atoms: C_10  and  O_11 
REMARK    8  A    between atoms: O_11  and  C_12 
REMARK    9  A    between atoms: C_12  and  C_13 
REMARK   10  A    between atoms: C_14  and  C_35 
REMARK   11  A    between atoms: C_16  and  C_21 
REMARK   12  A    between atoms: C_17  and  O_20 
REMARK   13  A    between atoms: C_18  and  O_19 
REMARK   14  A    between atoms: C_21  and  O_22 
REMARK   15  A    between atoms: O_22  and  C_23 
REMARK   16  A    between atoms: C_23  and  C_24 
REMARK   17  A    between atoms: C_25  and  C_33 
REMARK   18  A    between atoms: C_27  and  O_32 
REMARK   19  A    between atoms: C_28  and  O_31 
REMARK   20  A    between atoms: C_29  and  O_30 
REMARK   21  A    between atoms: C_33  and  O_34 
REMARK   22  A    between atoms: C_35  and  O_36 
ROOT
HETATM    1  C   UNL     1     -20.865  -8.506  -2.988  1.00  0.00     0.072 C 
HETATM    2  C   UNL     1     -22.022  -7.522  -3.223  1.00  0.00     0.154 C 
HETATM    3  O   UNL     1     -22.361  -7.373  -4.604  1.00  0.00    -0.373 OA
HETATM    4  C   UNL     1     -21.294  -7.194  -5.557  1.00  0.00     0.177 C 
HETATM    5  C   UNL     1     -20.156  -8.220  -5.382  1.00  0.00     0.178 C 
HETATM    6  C   UNL     1     -19.691  -8.185  -3.926  1.00  0.00     0.158 C 
ENDROOT
BRANCH   1   7
HETATM    7  C   UNL     1     -21.382  -9.953  -3.118  1.00  0.00     0.177 C 
BRANCH   7   8
HETATM    8  O   UNL     1     -20.346 -10.929  -3.063  1.00  0.00    -0.388 OA
BRANCH   8   9
HETATM    9  C   UNL     1     -20.686 -12.156  -3.725  1.00  0.00     0.202 C 
BRANCH   9  10
HETATM   10  C   UNL     1     -19.598 -12.482  -4.745  1.00  0.00     0.177 C 
HETATM   11  C   UNL     1     -18.291 -12.875  -4.047  1.00  0.00     0.180 C 
HETATM   12  C   UNL     1     -17.188 -13.060  -5.101  1.00  0.00     0.180 C 
HETATM   13  C   UNL     1     -17.083 -11.850  -6.048  1.00  0.00     0.180 C 
HETATM   14  C   UNL     1     -18.452 -11.498  -6.647  1.00  0.00     0.177 C 
HETATM   15  O   UNL     1     -19.385 -11.314  -5.564  1.00  0.00    -0.371 OA
BRANCH  11  16
HETATM   16  O   UNL     1     -17.898 -11.878  -3.088  1.00  0.00    -0.390 OA
HETATM   17  H   UNL     1     -17.370 -11.209  -3.568  1.00  0.00     0.210 HD
ENDBRANCH  11  16
BRANCH  12  18
HETATM   18  O   UNL     1     -15.933 -13.282  -4.454  1.00  0.00    -0.390 OA
HETATM   19  H   UNL     1     -15.609 -12.384  -4.232  1.00  0.00     0.210 HD
ENDBRANCH  12  18
BRANCH  13  20
HETATM   20  O   UNL     1     -16.588 -10.725  -5.283  1.00  0.00    -0.390 OA
HETATM   21  H   UNL     1     -16.294 -11.056  -4.413  1.00  0.00     0.210 HD
ENDBRANCH  13  20
BRANCH  14  22
HETATM   22  C   UNL     1     -18.956 -12.488  -7.712  1.00  0.00     0.201 C 
BRANCH  22  23
HETATM   23  O   UNL     1     -17.827 -12.962  -8.452  1.00  0.00    -0.393 OA
HETATM   24  C   UNL     1     -17.879 -14.358  -8.697  1.00  0.00     0.201 C 
ENDBRANCH  22  23
ENDBRANCH  14  22
ENDBRANCH   9  10
ENDBRANCH   8   9
ENDBRANCH   7   8
ENDBRANCH   1   7
BRANCH   2  25
HETATM   25  C   UNL     1     -21.811  -6.181  -2.499  1.00  0.00     0.196 C 
BRANCH  25  26
HETATM   26  O   UNL     1     -22.409  -6.197  -1.205  1.00  0.00    -0.398 OA
HETATM   27  H   UNL     1     -22.442  -7.118  -0.905  1.00  0.00     0.209 HD
ENDBRANCH  25  26
ENDBRANCH   2  25
BRANCH   6  28
HETATM   28  O   UNL     1     -18.556  -9.025  -3.735  1.00  0.00    -0.392 OA
HETATM   29  H   UNL     1     -18.860  -9.891  -3.387  1.00  0.00     0.210 HD
ENDBRANCH   6  28
BRANCH   5  30
HETATM   30  O   UNL     1     -19.064  -8.028  -6.280  1.00  0.00    -0.390 OA
HETATM   31  H   UNL     1     -18.254  -7.933  -5.747  1.00  0.00     0.210 HD
ENDBRANCH   5  30
BRANCH   4  32
HETATM   32  C   UNL     1     -20.846  -5.720  -5.638  1.00  0.00     0.202 C 
BRANCH  32  33
HETATM   33  O   UNL     1     -20.485  -5.263  -6.935  1.00  0.00    -0.388 OA
BRANCH  33  34
HETATM   34  C   UNL     1     -21.482  -5.534  -7.918  1.00  0.00     0.177 C 
BRANCH  34  35
HETATM   35  C   UNL     1     -22.028  -4.208  -8.453  1.00  0.00     0.072 C 
HETATM   36  C   UNL     1     -23.405  -4.403  -9.102  1.00  0.00     0.157 C 
HETATM   37  O   UNL     1     -23.315  -5.130 -10.340  1.00  0.00    -0.351 OA
HETATM   38  C   UNL     1     -22.377  -4.681 -11.300  1.00  0.00     0.288 C 
HETATM   39  C   UNL     1     -20.967  -4.418 -10.737  1.00  0.00     0.202 C 
HETATM   40  C   UNL     1     -21.042  -3.589  -9.448  1.00  0.00     0.160 C 
BRANCH  36  41
HETATM   41  C   UNL     1     -24.165  -3.074  -9.263  1.00  0.00     0.196 C 
BRANCH  41  42
HETATM   42  O   UNL     1     -25.513  -3.309  -9.651  1.00  0.00    -0.398 OA
HETATM   43  H   UNL     1     -25.548  -4.235  -9.962  1.00  0.00     0.209 HD
ENDBRANCH  41  42
ENDBRANCH  36  41
BRANCH  38  44
HETATM   44  O   UNL     1     -22.880  -3.563 -12.029  1.00  0.00    -0.369 OA
HETATM   45  H   UNL     1     -22.625  -3.644 -12.953  1.00  0.00     0.212 HD
ENDBRANCH  38  44
BRANCH  39  46
HETATM   46  O   UNL     1     -20.119  -3.753 -11.682  1.00  0.00    -0.388 OA
HETATM   47  H   UNL     1     -19.816  -4.414 -12.333  1.00  0.00     0.210 HD
ENDBRANCH  39  46
BRANCH  40  48
HETATM   48  O   UNL     1     -19.760  -3.456  -8.827  1.00  0.00    -0.392 OA
HETATM   49  H   UNL     1     -19.479  -2.525  -8.882  1.00  0.00     0.210 HD
ENDBRANCH  40  48
ENDBRANCH  34  35
ENDBRANCH  33  34
ENDBRANCH  32  33
ENDBRANCH   4  32
TORSDOF 22
ENDMDL
MODEL 3
REMARK VINA RESULT:      -5.9      1.983      3.493
REMARK  22 active torsions:
REMARK  status: ('A' for Active; 'I' for Inactive)
REMARK    1  A    between atoms: O_2  and  C_3 
REMARK    2  A    between atoms: C_3  and  C_4 
REMARK    3  A    between atoms: C_5  and  O_39 
REMARK    4  A    between atoms: C_6  and  O_38 
REMARK    5  A    between atoms: C_7  and  O_37 
REMARK    6  A    between atoms: C_8  and  C_10 
REMARK    7  A    between atoms: C_10  and  O_11 
REMARK    8  A    between atoms: O_11  and  C_12 
REMARK    9  A    between atoms: C_12  and  C_13 
REMARK   10  A    between atoms: C_14  and  C_35 
REMARK   11  A    between atoms: C_16  and  C_21 
REMARK   12  A    between atoms: C_17  and  O_20 
REMARK   13  A    between atoms: C_18  and  O_19 
REMARK   14  A    between atoms: C_21  and  O_22 
REMARK   15  A    between atoms: O_22  and  C_23 
REMARK   16  A    between atoms: C_23  and  C_24 
REMARK   17  A    between atoms: C_25  and  C_33 
REMARK   18  A    between atoms: C_27  and  O_32 
REMARK   19  A    between atoms: C_28  and  O_31 
REMARK   20  A    between atoms: C_29  and  O_30 
REMARK   21  A    between atoms: C_33  and  O_34 
REMARK   22  A    between atoms: C_35  and  O_36 
ROOT
HETATM    1  C   UNL     1     -20.793  -9.032  -2.905  1.00  0.00     0.072 C 
HETATM    2  C   UNL     1     -20.425  -8.845  -4.386  1.00  0.00     0.154 C 
HETATM    3  O   UNL     1     -20.141  -7.486  -4.727  1.00  0.00    -0.373 OA
HETATM    4  C   UNL     1     -21.037  -6.459  -4.257  1.00  0.00     0.177 C 
HETATM    5  C   UNL     1     -21.362  -6.588  -2.755  1.00  0.00     0.178 C 
HETATM    6  C   UNL     1     -21.859  -8.009  -2.487  1.00  0.00     0.158 C 
ENDROOT
BRANCH   1   7
HETATM    7  C   UNL     1     -19.515  -8.980  -2.044  1.00  0.00     0.177 C 
BRANCH   7   8
HETATM    8  O   UNL     1     -18.392  -9.601  -2.664  1.00  0.00    -0.388 OA
BRANCH   8   9
HETATM    9  C   UNL     1     -18.305 -11.008  -2.401  1.00  0.00     0.202 C 
BRANCH   9  10
HETATM   10  C   UNL     1     -17.627 -11.689  -3.587  1.00  0.00     0.177 C 
HETATM   11  C   UNL     1     -16.102 -11.657  -3.440  1.00  0.00     0.180 C 
HETATM   12  C   UNL     1     -15.456 -12.227  -4.713  1.00  0.00     0.180 C 
HETATM   13  C   UNL     1     -16.002 -11.557  -5.988  1.00  0.00     0.180 C 
HETATM   14  C   UNL     1     -17.537 -11.585  -6.011  1.00  0.00     0.177 C 
HETATM   15  O   UNL     1     -18.019 -10.995  -4.788  1.00  0.00    -0.371 OA
BRANCH  11  16
HETATM   16  O   UNL     1     -15.634 -10.318  -3.202  1.00  0.00    -0.390 OA
HETATM   17  H   UNL     1     -14.795 -10.391  -2.706  1.00  0.00     0.210 HD
ENDBRANCH  11  16
BRANCH  12  18
HETATM   18  O   UNL     1     -14.037 -12.067  -4.649  1.00  0.00    -0.390 OA
HETATM   19  H   UNL     1     -13.869 -11.199  -5.073  1.00  0.00     0.210 HD
ENDBRANCH  12  18
BRANCH  13  20
HETATM   20  O   UNL     1     -15.546 -10.183  -6.002  1.00  0.00    -0.390 OA
HETATM   21  H   UNL     1     -14.839 -10.105  -6.671  1.00  0.00     0.210 HD
ENDBRANCH  13  20
BRANCH  14  22
HETATM   22  C   UNL     1     -18.145 -12.972  -6.290  1.00  0.00     0.201 C 
BRANCH  22  23
HETATM   23  O   UNL     1     -17.426 -13.566  -7.374  1.00  0.00    -0.393 OA
HETATM   24  C   UNL     1     -18.115 -13.462  -8.610  1.00  0.00     0.201 C 
ENDBRANCH  22  23
ENDBRANCH  14  22
ENDBRANCH   9  10
ENDBRANCH   8   9
ENDBRANCH   7   8
ENDBRANCH   1   7
BRANCH   2  25
HETATM   25  C   UNL     1     -21.436  -9.514  -5.333  1.00  0.00     0.196 C 
BRANCH  25  26
HETATM   26  O   UNL     1     -20.813 -10.531  -6.114  1.00  0.00    -0.398 OA
HETATM   27  H   UNL     1     -19.927 -10.220  -6.352  1.00  0.00     0.209 HD
ENDBRANCH  25  26
ENDBRANCH   2  25
BRANCH   6  28
HETATM   28  O   UNL     1     -22.292  -8.149  -1.136  1.00  0.00    -0.392 OA
HETATM   29  H   UNL     1     -22.496  -9.094  -0.968  1.00  0.00     0.210 HD
ENDBRANCH   6  28
BRANCH   5  30
HETATM   30  O   UNL     1     -22.289  -5.614  -2.279  1.00  0.00    -0.390 OA
HETATM   31  H   UNL     1     -22.634  -5.927  -1.424  1.00  0.00     0.210 HD
ENDBRANCH   5  30
BRANCH   4  32
HETATM   32  C   UNL     1     -22.261  -6.305  -5.183  1.00  0.00     0.202 C 
BRANCH  32  33
HETATM   33  O   UNL     1     -22.271  -5.133  -5.989  1.00  0.00    -0.388 OA
BRANCH  33  34
HETATM   34  C   UNL     1     -22.409  -5.414  -7.380  1.00  0.00     0.177 C 
BRANCH  34  35
HETATM   35  C   UNL     1     -22.788  -4.125  -8.113  1.00  0.00     0.072 C 
HETATM   36  C   UNL     1     -23.947  -4.370  -9.089  1.00  0.00     0.157 C 
HETATM   37  O   UNL     1     -23.540  -5.165 -10.216  1.00  0.00    -0.351 OA
HETATM   38  C   UNL     1     -22.380  -4.760 -10.921  1.00  0.00     0.288 C 
HETATM   39  C   UNL     1     -21.166  -4.453 -10.023  1.00  0.00     0.202 C 
HETATM   40  C   UNL     1     -21.572  -3.553  -8.848  1.00  0.00     0.160 C 
BRANCH  36  41
HETATM   41  C   UNL     1     -24.632  -3.060  -9.519  1.00  0.00     0.196 C 
BRANCH  41  42
HETATM   42  O   UNL     1     -26.021  -3.267  -9.740  1.00  0.00    -0.398 OA
HETATM   43  H   UNL     1     -26.195  -2.987 -10.659  1.00  0.00     0.209 HD
ENDBRANCH  41  42
ENDBRANCH  36  41
BRANCH  38  44
HETATM   44  O   UNL     1     -22.668  -3.691 -11.819  1.00  0.00    -0.369 OA
HETATM   45  H   UNL     1     -22.189  -2.904 -11.543  1.00  0.00     0.212 HD
ENDBRANCH  38  44
BRANCH  39  46
HETATM   46  O   UNL     1     -20.096  -3.833 -10.748  1.00  0.00    -0.388 OA
HETATM   47  H   UNL     1     -19.824  -4.440 -11.463  1.00  0.00     0.210 HD
ENDBRANCH  39  46
BRANCH  40  48
HETATM   48  O   UNL     1     -20.498  -3.373  -7.921  1.00  0.00    -0.392 OA
HETATM   49  H   UNL     1     -19.659  -3.331  -8.416  1.00  0.00     0.210 HD
ENDBRANCH  40  48
ENDBRANCH  34  35
ENDBRANCH  33  34
ENDBRANCH  32  33
ENDBRANCH   4  32
TORSDOF 22
ENDMDL
MODEL 4
REMARK VINA RESULT:      -5.9      4.621      8.185
REMARK  22 active torsions:
REMARK  status: ('A' for Active; 'I' for Inactive)
REMARK    1  A    between atoms: O_2  and  C_3 
REMARK    2  A    between atoms: C_3  and  C_4 
REMARK    3  A    between atoms: C_5  and  O_39 
REMARK    4  A    between atoms: C_6  and  O_38 
REMARK    5  A    between atoms: C_7  and  O_37 
REMARK    6  A    between atoms: C_8  and  C_10 
REMARK    7  A    between atoms: C_10  and  O_11 
REMARK    8  A    between atoms: O_11  and  C_12 
REMARK    9  A    between atoms: C_12  and  C_13 
REMARK   10  A    between atoms: C_14  and  C_35 
REMARK   11  A    between atoms: C_16  and  C_21 
REMARK   12  A    between atoms: C_17  and  O_20 
REMARK   13  A    between atoms: C_18  and  O_19 
REMARK   14  A    between atoms: C_21  and  O_22 
REMARK   15  A    between atoms: O_22  and  C_23 
REMARK   16  A    between atoms: C_23  and  C_24 
REMARK   17  A    between atoms: C_25  and  C_33 
REMARK   18  A    between atoms: C_27  and  O_32 
REMARK   19  A    between atoms: C_28  and  O_31 
REMARK   20  A    between atoms: C_29  and  O_30 
REMARK   21  A    between atoms: C_33  and  O_34 
REMARK   22  A    between atoms: C_35  and  O_36 
ROOT
HETATM    1  C   UNL     1     -15.844 -13.581  -2.028  1.00  0.00     0.072 C 
HETATM    2  C   UNL     1     -17.234 -13.249  -2.592  1.00  0.00     0.154 C 
HETATM    3  O   UNL     1     -17.734 -11.985  -2.146  1.00  0.00    -0.373 OA
HETATM    4  C   UNL     1     -17.624 -11.659  -0.746  1.00  0.00     0.177 C 
HETATM    5  C   UNL     1     -16.214 -11.919  -0.179  1.00  0.00     0.178 C 
HETATM    6  C   UNL     1     -15.816 -13.358  -0.508  1.00  0.00     0.158 C 
ENDROOT
BRANCH   1   7
HETATM    7  C   UNL     1     -14.771 -12.777  -2.790  1.00  0.00     0.177 C 
BRANCH   7   8
HETATM    8  O   UNL     1     -14.841 -12.943  -4.203  1.00  0.00    -0.388 OA
BRANCH   8   9
HETATM    9  C   UNL     1     -14.719 -11.710  -4.926  1.00  0.00     0.202 C 
BRANCH   9  10
HETATM   10  C   UNL     1     -15.967 -11.519  -5.785  1.00  0.00     0.177 C 
HETATM   11  C   UNL     1     -16.684 -10.212  -5.428  1.00  0.00     0.180 C 
HETATM   12  C   UNL     1     -18.002 -10.125  -6.214  1.00  0.00     0.180 C 
HETATM   13  C   UNL     1     -18.854 -11.398  -6.059  1.00  0.00     0.180 C 
HETATM   14  C   UNL     1     -18.029 -12.655  -6.379  1.00  0.00     0.177 C 
HETATM   15  O   UNL     1     -16.845 -12.639  -5.557  1.00  0.00    -0.371 OA
BRANCH  11  16
HETATM   16  O   UNL     1     -16.943 -10.134  -4.015  1.00  0.00    -0.390 OA
HETATM   17  H   UNL     1     -16.075 -10.119  -3.565  1.00  0.00     0.210 HD
ENDBRANCH  11  16
BRANCH  12  18
HETATM   18  O   UNL     1     -18.748  -8.985  -5.781  1.00  0.00    -0.390 OA
HETATM   19  H   UNL     1     -18.943  -9.163  -4.837  1.00  0.00     0.210 HD
ENDBRANCH  12  18
BRANCH  13  20
HETATM   20  O   UNL     1     -19.318 -11.463  -4.690  1.00  0.00    -0.390 OA
HETATM   21  H   UNL     1     -19.394 -12.404  -4.440  1.00  0.00     0.210 HD
ENDBRANCH  13  20
BRANCH  14  22
HETATM   22  C   UNL     1     -17.721 -12.851  -7.874  1.00  0.00     0.201 C 
BRANCH  22  23
HETATM   23  O   UNL     1     -17.435 -14.236  -8.093  1.00  0.00    -0.393 OA
HETATM   24  C   UNL     1     -18.202 -14.793  -9.148  1.00  0.00     0.201 C 
ENDBRANCH  22  23
ENDBRANCH  14  22
ENDBRANCH   9  10
ENDBRANCH   8   9
ENDBRANCH   7   8
ENDBRANCH   1   7
BRANCH   2  25
HETATM   25  C   UNL     1     -18.236 -14.401  -2.406  1.00  0.00     0.196 C 
BRANCH  25  26
HETATM   26  O   UNL     1     -19.536 -14.029  -2.858  1.00  0.00    -0.398 OA
HETATM   27  H   UNL     1     -19.694 -14.473  -3.705  1.00  0.00     0.209 HD
ENDBRANCH  25  26
ENDBRANCH   2  25
BRANCH   6  28
HETATM   28  O   UNL     1     -14.571 -13.693   0.099  1.00  0.00    -0.392 OA
HETATM   29  H   UNL     1     -14.647 -14.585   0.500  1.00  0.00     0.210 HD
ENDBRANCH   6  28
BRANCH   5  30
HETATM   30  O   UNL     1     -16.096 -11.655   1.218  1.00  0.00    -0.390 OA
HETATM   31  H   UNL     1     -15.215 -11.270   1.374  1.00  0.00     0.210 HD
ENDBRANCH   5  30
BRANCH   4  32
HETATM   32  C   UNL     1     -18.784 -12.266   0.071  1.00  0.00     0.202 C 
BRANCH  32  33
HETATM   33  O   UNL     1     -20.081 -12.079  -0.481  1.00  0.00    -0.388 OA
BRANCH  33  34
HETATM   34  C   UNL     1     -20.706 -10.874  -0.041  1.00  0.00     0.177 C 
BRANCH  34  35
HETATM   35  C   UNL     1     -21.533 -10.294  -1.191  1.00  0.00     0.072 C 
HETATM   36  C   UNL     1     -20.736  -9.228  -1.956  1.00  0.00     0.157 C 
HETATM   37  O   UNL     1     -20.555  -8.033  -1.177  1.00  0.00    -0.351 OA
HETATM   38  C   UNL     1     -21.703  -7.457  -0.580  1.00  0.00     0.288 C 
HETATM   39  C   UNL     1     -22.593  -8.457   0.183  1.00  0.00     0.202 C 
HETATM   40  C   UNL     1     -22.847  -9.712  -0.661  1.00  0.00     0.160 C 
BRANCH  36  41
HETATM   41  C   UNL     1     -21.341  -8.932  -3.340  1.00  0.00     0.196 C 
BRANCH  41  42
HETATM   42  O   UNL     1     -20.743  -7.776  -3.914  1.00  0.00    -0.398 OA
HETATM   43  H   UNL     1     -20.643  -7.132  -3.186  1.00  0.00     0.209 HD
ENDBRANCH  41  42
ENDBRANCH  36  41
BRANCH  38  44
HETATM   44  O   UNL     1     -22.446  -6.690  -1.525  1.00  0.00    -0.369 OA
HETATM   45  H   UNL     1     -23.351  -6.592  -1.216  1.00  0.00     0.212 HD
ENDBRANCH  38  44
BRANCH  39  46
HETATM   46  O   UNL     1     -23.847  -7.883   0.571  1.00  0.00    -0.388 OA
HETATM   47  H   UNL     1     -24.459  -7.953  -0.187  1.00  0.00     0.210 HD
ENDBRANCH  39  46
BRANCH  40  48
HETATM   48  O   UNL     1     -23.546 -10.717   0.079  1.00  0.00    -0.392 OA
HETATM   49  H   UNL     1     -24.425 -10.849  -0.322  1.00  0.00     0.210 HD
ENDBRANCH  40  48
ENDBRANCH  34  35
ENDBRANCH  33  34
ENDBRANCH  32  33
ENDBRANCH   4  32
TORSDOF 22
ENDMDL
MODEL 5
REMARK VINA RESULT:      -5.6      3.012      4.759
REMARK  22 active torsions:
REMARK  status: ('A' for Active; 'I' for Inactive)
REMARK    1  A    between atoms: O_2  and  C_3 
REMARK    2  A    between atoms: C_3  and  C_4 
REMARK    3  A    between atoms: C_5  and  O_39 
REMARK    4  A    between atoms: C_6  and  O_38 
REMARK    5  A    between atoms: C_7  and  O_37 
REMARK    6  A    between atoms: C_8  and  C_10 
REMARK    7  A    between atoms: C_10  and  O_11 
REMARK    8  A    between atoms: O_11  and  C_12 
REMARK    9  A    between atoms: C_12  and  C_13 
REMARK   10  A    between atoms: C_14  and  C_35 
REMARK   11  A    between atoms: C_16  and  C_21 
REMARK   12  A    between atoms: C_17  and  O_20 
REMARK   13  A    between atoms: C_18  and  O_19 
REMARK   14  A    between atoms: C_21  and  O_22 
REMARK   15  A    between atoms: O_22  and  C_23 
REMARK   16  A    between atoms: C_23  and  C_24 
REMARK   17  A    between atoms: C_25  and  C_33 
REMARK   18  A    between atoms: C_27  and  O_32 
REMARK   19  A    between atoms: C_28  and  O_31 
REMARK   20  A    between atoms: C_29  and  O_30 
REMARK   21  A    between atoms: C_33  and  O_34 
REMARK   22  A    between atoms: C_35  and  O_36 
ROOT
HETATM    1  C   UNL     1     -19.499 -10.585  -1.114  1.00  0.00     0.072 C 
HETATM    2  C   UNL     1     -20.984 -10.800  -0.782  1.00  0.00     0.154 C 
HETATM    3  O   UNL     1     -21.578 -11.867  -1.528  1.00  0.00    -0.373 OA
HETATM    4  C   UNL     1     -21.322 -11.939  -2.944  1.00  0.00     0.177 C 
HETATM    5  C   UNL     1     -19.826 -11.797  -3.292  1.00  0.00     0.178 C 
HETATM    6  C   UNL     1     -19.294 -10.523  -2.635  1.00  0.00     0.158 C 
ENDROOT
BRANCH   1   7
HETATM    7  C   UNL     1     -18.652 -11.672  -0.421  1.00  0.00     0.177 C 
BRANCH   7   8
HETATM    8  O   UNL     1     -17.311 -11.733  -0.901  1.00  0.00    -0.388 OA
BRANCH   8   9
HETATM    9  C   UNL     1     -16.794 -13.069  -0.969  1.00  0.00     0.202 C 
BRANCH   9  10
HETATM   10  C   UNL     1     -16.221 -13.303  -2.365  1.00  0.00     0.177 C 
HETATM   11  C   UNL     1     -15.152 -14.402  -2.343  1.00  0.00     0.180 C 
HETATM   12  C   UNL     1     -14.506 -14.511  -3.733  1.00  0.00     0.180 C 
HETATM   13  C   UNL     1     -14.024 -13.145  -4.256  1.00  0.00     0.180 C 
HETATM   14  C   UNL     1     -15.147 -12.099  -4.180  1.00  0.00     0.177 C 
HETATM   15  O   UNL     1     -15.643 -12.066  -2.827  1.00  0.00    -0.371 OA
BRANCH  11  16
HETATM   16  O   UNL     1     -14.149 -14.126  -1.349  1.00  0.00    -0.390 OA
HETATM   17  H   UNL     1     -13.287 -14.108  -1.809  1.00  0.00     0.210 HD
ENDBRANCH  11  16
BRANCH  12  18
HETATM   18  O   UNL     1     -13.410 -15.427  -3.686  1.00  0.00    -0.390 OA
HETATM   19  H   UNL     1     -13.763 -16.253  -4.081  1.00  0.00     0.210 HD
ENDBRANCH  12  18
BRANCH  13  20
HETATM   20  O   UNL     1     -12.912 -12.717  -3.434  1.00  0.00    -0.390 OA
HETATM   21  H   UNL     1     -13.266 -12.173  -2.704  1.00  0.00     0.210 HD
ENDBRANCH  13  20
BRANCH  14  22
HETATM   22  C   UNL     1     -16.262 -12.284  -5.224  1.00  0.00     0.201 C 
BRANCH  22  23
HETATM   23  O   UNL     1     -16.889 -11.016  -5.438  1.00  0.00    -0.393 OA
HETATM   24  C   UNL     1     -15.964 -10.001  -5.794  1.00  0.00     0.201 C 
ENDBRANCH  22  23
ENDBRANCH  14  22
ENDBRANCH   9  10
ENDBRANCH   8   9
ENDBRANCH   7   8
ENDBRANCH   1   7
BRANCH   2  25
HETATM   25  C   UNL     1     -21.795  -9.494  -0.836  1.00  0.00     0.196 C 
BRANCH  25  26
HETATM   26  O   UNL     1     -21.056  -8.408  -0.281  1.00  0.00    -0.398 OA
HETATM   27  H   UNL     1     -21.160  -8.440   0.682  1.00  0.00     0.209 HD
ENDBRANCH  25  26
ENDBRANCH   2  25
BRANCH   6  28
HETATM   28  O   UNL     1     -17.946 -10.275  -3.024  1.00  0.00    -0.392 OA
HETATM   29  H   UNL     1     -17.844 -10.508  -3.972  1.00  0.00     0.210 HD
ENDBRANCH   6  28
BRANCH   5  30
HETATM   30  O   UNL     1     -19.555 -11.811  -4.692  1.00  0.00    -0.390 OA
HETATM   31  H   UNL     1     -20.360 -11.513  -5.153  1.00  0.00     0.210 HD
ENDBRANCH   5  30
BRANCH   4  32
HETATM   32  C   UNL     1     -22.272 -11.021  -3.741  1.00  0.00     0.202 C 
BRANCH  32  33
HETATM   33  O   UNL     1     -21.710 -10.423  -4.902  1.00  0.00    -0.388 OA
BRANCH  33  34
HETATM   34  C   UNL     1     -22.164  -9.088  -5.117  1.00  0.00     0.177 C 
BRANCH  34  35
HETATM   35  C   UNL     1     -21.267  -8.126  -4.333  1.00  0.00     0.072 C 
HETATM   36  C   UNL     1     -22.049  -6.879  -3.899  1.00  0.00     0.157 C 
HETATM   37  O   UNL     1     -22.373  -6.033  -5.016  1.00  0.00    -0.351 OA
HETATM   38  C   UNL     1     -21.322  -5.675  -5.896  1.00  0.00     0.288 C 
HETATM   39  C   UNL     1     -20.452  -6.858  -6.361  1.00  0.00     0.202 C 
HETATM   40  C   UNL     1     -20.045  -7.736  -5.171  1.00  0.00     0.160 C 
BRANCH  36  41
HETATM   41  C   UNL     1     -21.334  -6.107  -2.775  1.00  0.00     0.196 C 
BRANCH  41  42
HETATM   42  O   UNL     1     -22.253  -5.740  -1.753  1.00  0.00    -0.398 OA
HETATM   43  H   UNL     1     -22.168  -6.419  -1.055  1.00  0.00     0.209 HD
ENDBRANCH  41  42
ENDBRANCH  36  41
BRANCH  38  44
HETATM   44  O   UNL     1     -20.539  -4.611  -5.358  1.00  0.00    -0.369 OA
HETATM   45  H   UNL     1     -20.788  -4.463  -4.441  1.00  0.00     0.212 HD
ENDBRANCH  38  44
BRANCH  39  46
HETATM   46  O   UNL     1     -19.276  -6.426  -7.057  1.00  0.00    -0.388 OA
HETATM   47  H   UNL     1     -19.302  -6.801  -7.958  1.00  0.00     0.210 HD
ENDBRANCH  39  46
BRANCH  40  48
HETATM   48  O   UNL     1     -19.361  -8.919  -5.593  1.00  0.00    -0.392 OA
HETATM   49  H   UNL     1     -18.408  -8.726  -5.654  1.00  0.00     0.210 HD
ENDBRANCH  40  48
ENDBRANCH  34  35
ENDBRANCH  33  34
ENDBRANCH  32  33
ENDBRANCH   4  32
TORSDOF 22
ENDMDL
MODEL 6
REMARK VINA RESULT:      -5.6      5.046      7.152
REMARK  22 active torsions:
REMARK  status: ('A' for Active; 'I' for Inactive)
REMARK    1  A    between atoms: O_2  and  C_3 
REMARK    2  A    between atoms: C_3  and  C_4 
REMARK    3  A    between atoms: C_5  and  O_39 
REMARK    4  A    between atoms: C_6  and  O_38 
REMARK    5  A    between atoms: C_7  and  O_37 
REMARK    6  A    between atoms: C_8  and  C_10 
REMARK    7  A    between atoms: C_10  and  O_11 
REMARK    8  A    between atoms: O_11  and  C_12 
REMARK    9  A    between atoms: C_12  and  C_13 
REMARK   10  A    between atoms: C_14  and  C_35 
REMARK   11  A    between atoms: C_16  and  C_21 
REMARK   12  A    between atoms: C_17  and  O_20 
REMARK   13  A    between atoms: C_18  and  O_19 
REMARK   14  A    between atoms: C_21  and  O_22 
REMARK   15  A    between atoms: O_22  and  C_23 
REMARK   16  A    between atoms: C_23  and  C_24 
REMARK   17  A    between atoms: C_25  and  C_33 
REMARK   18  A    between atoms: C_27  and  O_32 
REMARK   19  A    between atoms: C_28  and  O_31 
REMARK   20  A    between atoms: C_29  and  O_30 
REMARK   21  A    between atoms: C_33  and  O_34 
REMARK   22  A    between atoms: C_35  and  O_36 
ROOT
HETATM    1  C   UNL     1     -16.690 -12.605  -3.293  1.00  0.00     0.072 C 
HETATM    2  C   UNL     1     -17.656 -12.389  -4.468  1.00  0.00     0.154 C 
HETATM    3  O   UNL     1     -17.420 -11.166  -5.172  1.00  0.00    -0.373 OA
HETATM    4  C   UNL     1     -17.217  -9.962  -4.406  1.00  0.00     0.177 C 
HETATM    5  C   UNL     1     -16.196 -10.141  -3.265  1.00  0.00     0.178 C 
HETATM    6  C   UNL     1     -16.619 -11.343  -2.420  1.00  0.00     0.158 C 
ENDROOT
BRANCH   1   7
HETATM    7  C   UNL     1     -15.319 -13.065  -3.828  1.00  0.00     0.177 C 
BRANCH   7   8
HETATM    8  O   UNL     1     -14.576 -13.834  -2.887  1.00  0.00    -0.388 OA
BRANCH   8   9
HETATM    9  C   UNL     1     -15.356 -14.852  -2.245  1.00  0.00     0.202 C 
BRANCH   9  10
HETATM   10  C   UNL     1     -14.995 -14.885  -0.762  1.00  0.00     0.177 C 
HETATM   11  C   UNL     1     -16.249 -15.048   0.105  1.00  0.00     0.180 C 
HETATM   12  C   UNL     1     -15.859 -14.939   1.588  1.00  0.00     0.180 C 
HETATM   13  C   UNL     1     -15.028 -13.675   1.876  1.00  0.00     0.180 C 
HETATM   14  C   UNL     1     -13.833 -13.570   0.917  1.00  0.00     0.177 C 
HETATM   15  O   UNL     1     -14.329 -13.649  -0.434  1.00  0.00    -0.371 OA
BRANCH  11  16
HETATM   16  O   UNL     1     -17.237 -14.055  -0.223  1.00  0.00    -0.390 OA
HETATM   17  H   UNL     1     -17.999 -14.202   0.371  1.00  0.00     0.210 HD
ENDBRANCH  11  16
BRANCH  12  18
HETATM   18  O   UNL     1     -17.037 -14.942   2.398  1.00  0.00    -0.390 OA
HETATM   19  H   UNL     1     -17.776 -14.989   1.756  1.00  0.00     0.210 HD
ENDBRANCH  12  18
BRANCH  13  20
HETATM   20  O   UNL     1     -15.888 -12.524   1.700  1.00  0.00    -0.390 OA
HETATM   21  H   UNL     1     -15.768 -12.192   0.789  1.00  0.00     0.210 HD
ENDBRANCH  13  20
BRANCH  14  22
HETATM   22  C   UNL     1     -12.699 -14.572   1.200  1.00  0.00     0.201 C 
BRANCH  22  23
HETATM   23  O   UNL     1     -11.659 -14.352   0.244  1.00  0.00    -0.393 OA
HETATM   24  C   UNL     1     -10.363 -14.507   0.799  1.00  0.00     0.201 C 
ENDBRANCH  22  23
ENDBRANCH  14  22
ENDBRANCH   9  10
ENDBRANCH   8   9
ENDBRANCH   7   8
ENDBRANCH   1   7
BRANCH   2  25
HETATM   25  C   UNL     1     -19.128 -12.585  -4.066  1.00  0.00     0.196 C 
BRANCH  25  26
HETATM   26  O   UNL     1     -20.000 -12.324  -5.164  1.00  0.00    -0.398 OA
HETATM   27  H   UNL     1     -20.169 -13.165  -5.613  1.00  0.00     0.209 HD
ENDBRANCH  25  26
ENDBRANCH   2  25
BRANCH   6  28
HETATM   28  O   UNL     1     -15.779 -11.482  -1.277  1.00  0.00    -0.392 OA
HETATM   29  H   UNL     1     -15.974 -10.751  -0.652  1.00  0.00     0.210 HD
ENDBRANCH   6  28
BRANCH   5  30
HETATM   30  O   UNL     1     -16.020  -8.977  -2.460  1.00  0.00    -0.390 OA
HETATM   31  H   UNL     1     -15.719  -9.267  -1.581  1.00  0.00     0.210 HD
ENDBRANCH   5  30
BRANCH   4  32
HETATM   32  C   UNL     1     -18.558  -9.319  -3.995  1.00  0.00     0.202 C 
BRANCH  32  33
HETATM   33  O   UNL     1     -18.713  -9.073  -2.603  1.00  0.00    -0.388 OA
BRANCH  33  34
HETATM   34  C   UNL     1     -19.836  -9.749  -2.039  1.00  0.00     0.177 C 
BRANCH  34  35
HETATM   35  C   UNL     1     -21.110  -8.980  -2.396  1.00  0.00     0.072 C 
HETATM   36  C   UNL     1     -21.110  -7.589  -1.747  1.00  0.00     0.157 C 
HETATM   37  O   UNL     1     -21.277  -7.662  -0.321  1.00  0.00    -0.351 OA
HETATM   38  C   UNL     1     -22.352  -8.437   0.177  1.00  0.00     0.288 C 
HETATM   39  C   UNL     1     -22.462  -9.844  -0.443  1.00  0.00     0.202 C 
HETATM   40  C   UNL     1     -22.348  -9.775  -1.971  1.00  0.00     0.160 C 
BRANCH  36  41
HETATM   41  C   UNL     1     -22.131  -6.642  -2.403  1.00  0.00     0.196 C 
BRANCH  41  42
HETATM   42  O   UNL     1     -22.386  -5.520  -1.567  1.00  0.00    -0.398 OA
HETATM   43  H   UNL     1     -22.152  -4.730  -2.092  1.00  0.00     0.209 HD
ENDBRANCH  41  42
ENDBRANCH  36  41
BRANCH  38  44
HETATM   44  O   UNL     1     -23.583  -7.720   0.101  1.00  0.00    -0.369 OA
HETATM   45  H   UNL     1     -23.587  -7.176  -0.691  1.00  0.00     0.212 HD
ENDBRANCH  38  44
BRANCH  39  46
HETATM   46  O   UNL     1     -23.684 -10.501  -0.086  1.00  0.00    -0.388 OA
HETATM   47  H   UNL     1     -23.483 -11.160   0.606  1.00  0.00     0.210 HD
ENDBRANCH  39  46
BRANCH  40  48
HETATM   48  O   UNL     1     -22.300 -11.079  -2.559  1.00  0.00    -0.392 OA
HETATM   49  H   UNL     1     -23.141 -11.247  -3.021  1.00  0.00     0.210 HD
ENDBRANCH  40  48
ENDBRANCH  34  35
ENDBRANCH  33  34
ENDBRANCH  32  33
ENDBRANCH   4  32
TORSDOF 22
ENDMDL
MODEL 7
REMARK VINA RESULT:      -5.4      5.138      8.353
REMARK  22 active torsions:
REMARK  status: ('A' for Active; 'I' for Inactive)
REMARK    1  A    between atoms: O_2  and  C_3 
REMARK    2  A    between atoms: C_3  and  C_4 
REMARK    3  A    between atoms: C_5  and  O_39 
REMARK    4  A    between atoms: C_6  and  O_38 
REMARK    5  A    between atoms: C_7  and  O_37 
REMARK    6  A    between atoms: C_8  and  C_10 
REMARK    7  A    between atoms: C_10  and  O_11 
REMARK    8  A    between atoms: O_11  and  C_12 
REMARK    9  A    between atoms: C_12  and  C_13 
REMARK   10  A    between atoms: C_14  and  C_35 
REMARK   11  A    between atoms: C_16  and  C_21 
REMARK   12  A    between atoms: C_17  and  O_20 
REMARK   13  A    between atoms: C_18  and  O_19 
REMARK   14  A    between atoms: C_21  and  O_22 
REMARK   15  A    between atoms: O_22  and  C_23 
REMARK   16  A    between atoms: C_23  and  C_24 
REMARK   17  A    between atoms: C_25  and  C_33 
REMARK   18  A    between atoms: C_27  and  O_32 
REMARK   19  A    between atoms: C_28  and  O_31 
REMARK   20  A    between atoms: C_29  and  O_30 
REMARK   21  A    between atoms: C_33  and  O_34 
REMARK   22  A    between atoms: C_35  and  O_36 
ROOT
HETATM    1  C   UNL     1     -15.418 -13.618  -1.434  1.00  0.00     0.072 C 
HETATM    2  C   UNL     1     -16.572 -13.109  -0.556  1.00  0.00     0.154 C 
HETATM    3  O   UNL     1     -17.843 -13.169  -1.208  1.00  0.00    -0.373 OA
HETATM    4  C   UNL     1     -17.942 -12.693  -2.565  1.00  0.00     0.177 C 
HETATM    5  C   UNL     1     -16.833 -13.252  -3.479  1.00  0.00     0.178 C 
HETATM    6  C   UNL     1     -15.479 -12.971  -2.826  1.00  0.00     0.158 C 
ENDROOT
BRANCH   1   7
HETATM    7  C   UNL     1     -15.437 -15.160  -1.468  1.00  0.00     0.177 C 
BRANCH   7   8
HETATM    8  O   UNL     1     -14.372 -15.720  -2.232  1.00  0.00    -0.388 OA
BRANCH   8   9
HETATM    9  C   UNL     1     -14.658 -17.037  -2.724  1.00  0.00     0.202 C 
BRANCH   9  10
HETATM   10  C   UNL     1     -14.479 -17.044  -4.240  1.00  0.00     0.177 C 
HETATM   11  C   UNL     1     -12.993 -17.017  -4.617  1.00  0.00     0.180 C 
HETATM   12  C   UNL     1     -12.858 -16.886  -6.143  1.00  0.00     0.180 C 
HETATM   13  C   UNL     1     -13.692 -15.718  -6.700  1.00  0.00     0.180 C 
HETATM   14  C   UNL     1     -15.148 -15.800  -6.216  1.00  0.00     0.177 C 
HETATM   15  O   UNL     1     -15.142 -15.882  -4.777  1.00  0.00    -0.371 OA
BRANCH  11  16
HETATM   16  O   UNL     1     -12.314 -15.930  -3.964  1.00  0.00    -0.390 OA
HETATM   17  H   UNL     1     -12.163 -16.202  -3.037  1.00  0.00     0.210 HD
ENDBRANCH  11  16
BRANCH  12  18
HETATM   18  O   UNL     1     -11.483 -16.712  -6.493  1.00  0.00    -0.390 OA
HETATM   19  H   UNL     1     -11.459 -16.842  -7.465  1.00  0.00     0.210 HD
ENDBRANCH  12  18
BRANCH  13  20
HETATM   20  O   UNL     1     -13.100 -14.482  -6.233  1.00  0.00    -0.390 OA
HETATM   21  H   UNL     1     -13.799 -13.956  -5.799  1.00  0.00     0.210 HD
ENDBRANCH  13  20
BRANCH  14  22
HETATM   22  C   UNL     1     -15.977 -16.916  -6.878  1.00  0.00     0.201 C 
BRANCH  22  23
HETATM   23  O   UNL     1     -17.344 -16.497  -6.910  1.00  0.00    -0.393 OA
HETATM   24  C   UNL     1     -17.506 -15.195  -7.452  1.00  0.00     0.201 C 
ENDBRANCH  22  23
ENDBRANCH  14  22
ENDBRANCH   9  10
ENDBRANCH   8   9
ENDBRANCH   7   8
ENDBRANCH   1   7
BRANCH   2  25
HETATM   25  C   UNL     1     -16.273 -11.735   0.071  1.00  0.00     0.196 C 
BRANCH  25  26
HETATM   26  O   UNL     1     -15.893 -11.868   1.438  1.00  0.00    -0.398 OA
HETATM   27  H   UNL     1     -14.961 -11.613   1.512  1.00  0.00     0.209 HD
ENDBRANCH  25  26
ENDBRANCH   2  25
BRANCH   6  28
HETATM   28  O   UNL     1     -14.410 -13.357  -3.686  1.00  0.00    -0.392 OA
HETATM   29  H   UNL     1     -13.940 -12.549  -3.986  1.00  0.00     0.210 HD
ENDBRANCH   6  28
BRANCH   5  30
HETATM   30  O   UNL     1     -16.879 -12.751  -4.814  1.00  0.00    -0.390 OA
HETATM   31  H   UNL     1     -17.104 -13.495  -5.402  1.00  0.00     0.210 HD
ENDBRANCH   5  30
BRANCH   4  32
HETATM   32  C   UNL     1     -18.129 -11.162  -2.617  1.00  0.00     0.202 C 
BRANCH  32  33
HETATM   33  O   UNL     1     -19.469 -10.718  -2.789  1.00  0.00    -0.388 OA
BRANCH  33  34
HETATM   34  C   UNL     1     -19.932  -9.915  -1.705  1.00  0.00     0.177 C 
BRANCH  34  35
HETATM   35  C   UNL     1     -21.161  -9.124  -2.161  1.00  0.00     0.072 C 
HETATM   36  C   UNL     1     -21.154  -7.709  -1.565  1.00  0.00     0.157 C 
HETATM   37  O   UNL     1     -21.403  -7.724  -0.149  1.00  0.00    -0.351 OA
HETATM   38  C   UNL     1     -22.528  -8.448   0.314  1.00  0.00     0.288 C 
HETATM   39  C   UNL     1     -22.646  -9.874  -0.260  1.00  0.00     0.202 C 
HETATM   40  C   UNL     1     -22.444  -9.867  -1.780  1.00  0.00     0.160 C 
BRANCH  36  41
HETATM   41  C   UNL     1     -22.107  -6.759  -2.312  1.00  0.00     0.196 C 
BRANCH  41  42
HETATM   42  O   UNL     1     -22.356  -5.589  -1.543  1.00  0.00    -0.398 OA
HETATM   43  H   UNL     1     -23.196  -5.218  -1.878  1.00  0.00     0.209 HD
ENDBRANCH  41  42
ENDBRANCH  36  41
BRANCH  38  44
HETATM   44  O   UNL     1     -23.730  -7.700   0.142  1.00  0.00    -0.369 OA
HETATM   45  H   UNL     1     -23.857  -7.122   0.899  1.00  0.00     0.212 HD
ENDBRANCH  38  44
BRANCH  39  46
HETATM   46  O   UNL     1     -23.906 -10.482   0.050  1.00  0.00    -0.388 OA
HETATM   47  H   UNL     1     -24.404 -10.589  -0.783  1.00  0.00     0.210 HD
ENDBRANCH  39  46
BRANCH  40  48
HETATM   48  O   UNL     1     -22.403 -11.193  -2.317  1.00  0.00    -0.392 OA
HETATM   49  H   UNL     1     -21.687 -11.243  -2.975  1.00  0.00     0.210 HD
ENDBRANCH  40  48
ENDBRANCH  34  35
ENDBRANCH  33  34
ENDBRANCH  32  33
ENDBRANCH   4  32
TORSDOF 22
ENDMDL
MODEL 8
REMARK VINA RESULT:      -5.3      5.302      9.651
REMARK  22 active torsions:
REMARK  status: ('A' for Active; 'I' for Inactive)
REMARK    1  A    between atoms: O_2  and  C_3 
REMARK    2  A    between atoms: C_3  and  C_4 
REMARK    3  A    between atoms: C_5  and  O_39 
REMARK    4  A    between atoms: C_6  and  O_38 
REMARK    5  A    between atoms: C_7  and  O_37 
REMARK    6  A    between atoms: C_8  and  C_10 
REMARK    7  A    between atoms: C_10  and  O_11 
REMARK    8  A    between atoms: O_11  and  C_12 
REMARK    9  A    between atoms: C_12  and  C_13 
REMARK   10  A    between atoms: C_14  and  C_35 
REMARK   11  A    between atoms: C_16  and  C_21 
REMARK   12  A    between atoms: C_17  and  O_20 
REMARK   13  A    between atoms: C_18  and  O_19 
REMARK   14  A    between atoms: C_21  and  O_22 
REMARK   15  A    between atoms: O_22  and  C_23 
REMARK   16  A    between atoms: C_23  and  C_24 
REMARK   17  A    between atoms: C_25  and  C_33 
REMARK   18  A    between atoms: C_27  and  O_32 
REMARK   19  A    between atoms: C_28  and  O_31 
REMARK   20  A    between atoms: C_29  and  O_30 
REMARK   21  A    between atoms: C_33  and  O_34 
REMARK   22  A    between atoms: C_35  and  O_36 
ROOT
HETATM    1  C   UNL     1     -20.836  -8.142  -2.461  1.00  0.00     0.072 C 
HETATM    2  C   UNL     1     -21.199  -7.909  -0.986  1.00  0.00     0.154 C 
HETATM    3  O   UNL     1     -21.220  -9.114  -0.216  1.00  0.00    -0.373 OA
HETATM    4  C   UNL     1     -21.888 -10.268  -0.765  1.00  0.00     0.177 C 
HETATM    5  C   UNL     1     -21.480 -10.560  -2.223  1.00  0.00     0.178 C 
HETATM    6  C   UNL     1     -21.677  -9.286  -3.046  1.00  0.00     0.158 C 
ENDROOT
BRANCH   1   7
HETATM    7  C   UNL     1     -19.315  -8.366  -2.589  1.00  0.00     0.177 C 
BRANCH   7   8
HETATM    8  O   UNL     1     -18.961  -9.226  -3.668  1.00  0.00    -0.388 OA
BRANCH   8   9
HETATM    9  C   UNL     1     -17.904 -10.140  -3.342  1.00  0.00     0.202 C 
BRANCH   9  10
HETATM   10  C   UNL     1     -18.099 -11.423  -4.146  1.00  0.00     0.177 C 
HETATM   11  C   UNL     1     -17.168 -11.454  -5.364  1.00  0.00     0.180 C 
HETATM   12  C   UNL     1     -17.491 -12.691  -6.218  1.00  0.00     0.180 C 
HETATM   13  C   UNL     1     -18.992 -12.794  -6.544  1.00  0.00     0.180 C 
HETATM   14  C   UNL     1     -19.841 -12.690  -5.268  1.00  0.00     0.177 C 
HETATM   15  O   UNL     1     -19.473 -11.479  -4.578  1.00  0.00    -0.371 OA
BRANCH  11  16
HETATM   16  O   UNL     1     -17.306 -10.258  -6.150  1.00  0.00    -0.390 OA
HETATM   17  H   UNL     1     -16.843 -10.415  -6.996  1.00  0.00     0.210 HD
ENDBRANCH  11  16
BRANCH  12  18
HETATM   18  O   UNL     1     -16.732 -12.652  -7.429  1.00  0.00    -0.390 OA
HETATM   19  H   UNL     1     -15.834 -12.947  -7.166  1.00  0.00     0.210 HD
ENDBRANCH  12  18
BRANCH  13  20
HETATM   20  O   UNL     1     -19.332 -11.707  -7.437  1.00  0.00    -0.390 OA
HETATM   21  H   UNL     1     -19.424 -12.073  -8.338  1.00  0.00     0.210 HD
ENDBRANCH  13  20
BRANCH  14  22
HETATM   22  C   UNL     1     -19.789 -13.935  -4.365  1.00  0.00     0.201 C 
BRANCH  22  23
HETATM   23  O   UNL     1     -21.093 -14.141  -3.812  1.00  0.00    -0.393 OA
HETATM   24  C   UNL     1     -21.985 -14.756  -4.729  1.00  0.00     0.201 C 
ENDBRANCH  22  23
ENDBRANCH  14  22
ENDBRANCH   9  10
ENDBRANCH   8   9
ENDBRANCH   7   8
ENDBRANCH   1   7
BRANCH   2  25
HETATM   25  C   UNL     1     -22.470  -7.058  -0.820  1.00  0.00     0.196 C 
BRANCH  25  26
HETATM   26  O   UNL     1     -22.498  -5.988  -1.763  1.00  0.00    -0.398 OA
HETATM   27  H   UNL     1     -22.972  -5.248  -1.356  1.00  0.00     0.209 HD
ENDBRANCH  25  26
ENDBRANCH   2  25
BRANCH   6  28
HETATM   28  O   UNL     1     -21.433  -9.531  -4.428  1.00  0.00    -0.392 OA
HETATM   29  H   UNL     1     -21.618 -10.476  -4.618  1.00  0.00     0.210 HD
ENDBRANCH   6  28
BRANCH   5  30
HETATM   30  O   UNL     1     -22.169 -11.665  -2.804  1.00  0.00    -0.390 OA
HETATM   31  H   UNL     1     -22.647 -11.339  -3.587  1.00  0.00     0.210 HD
ENDBRANCH   5  30
BRANCH   4  32
HETATM   32  C   UNL     1     -23.407 -10.223  -0.503  1.00  0.00     0.202 C 
BRANCH  32  33
HETATM   33  O   UNL     1     -23.947 -11.365   0.151  1.00  0.00    -0.388 OA
BRANCH  33  34
HETATM   34  C   UNL     1     -22.945 -12.218   0.699  1.00  0.00     0.177 C 
BRANCH  34  35
HETATM   35  C   UNL     1     -23.499 -13.643   0.789  1.00  0.00     0.072 C 
HETATM   36  C   UNL     1     -23.136 -14.289   2.133  1.00  0.00     0.157 C 
HETATM   37  O   UNL     1     -21.732 -14.582   2.225  1.00  0.00    -0.351 OA
HETATM   38  C   UNL     1     -21.138 -15.299   1.158  1.00  0.00     0.288 C 
HETATM   39  C   UNL     1     -21.474 -14.749  -0.242  1.00  0.00     0.202 C 
HETATM   40  C   UNL     1     -22.980 -14.489  -0.377  1.00  0.00     0.160 C 
BRANCH  36  41
HETATM   41  C   UNL     1     -24.008 -15.520   2.440  1.00  0.00     0.196 C 
BRANCH  41  42
HETATM   42  O   UNL     1     -23.451 -16.277   3.507  1.00  0.00    -0.398 OA
HETATM   43  H   UNL     1     -23.010 -15.634   4.095  1.00  0.00     0.209 HD
ENDBRANCH  41  42
ENDBRANCH  36  41
BRANCH  38  44
HETATM   44  O   UNL     1     -21.405 -16.696   1.264  1.00  0.00    -0.369 OA
HETATM   45  H   UNL     1     -20.574 -17.176   1.325  1.00  0.00     0.212 HD
ENDBRANCH  38  44
BRANCH  39  46
HETATM   46  O   UNL     1     -21.047 -15.630  -1.288  1.00  0.00    -0.388 OA
HETATM   47  H   UNL     1     -21.299 -16.540  -1.040  1.00  0.00     0.210 HD
ENDBRANCH  39  46
BRANCH  40  48
HETATM   48  O   UNL     1     -23.298 -13.842  -1.613  1.00  0.00    -0.392 OA
HETATM   49  H   UNL     1     -24.170 -14.154  -1.915  1.00  0.00     0.210 HD
ENDBRANCH  40  48
ENDBRANCH  34  35
ENDBRANCH  33  34
ENDBRANCH  32  33
ENDBRANCH   4  32
TORSDOF 22
ENDMDL
MODEL 9
REMARK VINA RESULT:      -5.2      5.306      7.968
REMARK  22 active torsions:
REMARK  status: ('A' for Active; 'I' for Inactive)
REMARK    1  A    between atoms: O_2  and  C_3 
REMARK    2  A    between atoms: C_3  and  C_4 
REMARK    3  A    between atoms: C_5  and  O_39 
REMARK    4  A    between atoms: C_6  and  O_38 
REMARK    5  A    between atoms: C_7  and  O_37 
REMARK    6  A    between atoms: C_8  and  C_10 
REMARK    7  A    between atoms: C_10  and  O_11 
REMARK    8  A    between atoms: O_11  and  C_12 
REMARK    9  A    between atoms: C_12  and  C_13 
REMARK   10  A    between atoms: C_14  and  C_35 
REMARK   11  A    between atoms: C_16  and  C_21 
REMARK   12  A    between atoms: C_17  and  O_20 
REMARK   13  A    between atoms: C_18  and  O_19 
REMARK   14  A    between atoms: C_21  and  O_22 
REMARK   15  A    between atoms: O_22  and  C_23 
REMARK   16  A    between atoms: C_23  and  C_24 
REMARK   17  A    between atoms: C_25  and  C_33 
REMARK   18  A    between atoms: C_27  and  O_32 
REMARK   19  A    between atoms: C_28  and  O_31 
REMARK   20  A    between atoms: C_29  and  O_30 
REMARK   21  A    between atoms: C_33  and  O_34 
REMARK   22  A    between atoms: C_35  and  O_36 
ROOT
HETATM    1  C   UNL     1     -17.176 -12.683  -6.706  1.00  0.00     0.072 C 
HETATM    2  C   UNL     1     -16.510 -12.328  -5.367  1.00  0.00     0.154 C 
HETATM    3  O   UNL     1     -17.451 -12.065  -4.324  1.00  0.00    -0.373 OA
HETATM    4  C   UNL     1     -18.576 -11.211  -4.614  1.00  0.00     0.177 C 
HETATM    5  C   UNL     1     -19.301 -11.597  -5.919  1.00  0.00     0.178 C 
HETATM    6  C   UNL     1     -18.271 -11.661  -7.046  1.00  0.00     0.158 C 
ENDROOT
BRANCH   1   7
HETATM    7  C   UNL     1     -17.682 -14.139  -6.661  1.00  0.00     0.177 C 
BRANCH   7   8
HETATM    8  O   UNL     1     -18.374 -14.459  -5.457  1.00  0.00    -0.388 OA
BRANCH   8   9
HETATM    9  C   UNL     1     -19.128 -15.676  -5.542  1.00  0.00     0.202 C 
BRANCH   9  10
HETATM   10  C   UNL     1     -20.505 -15.444  -4.926  1.00  0.00     0.177 C 
HETATM   11  C   UNL     1     -21.578 -15.316  -6.014  1.00  0.00     0.180 C 
HETATM   12  C   UNL     1     -22.921 -14.948  -5.362  1.00  0.00     0.180 C 
HETATM   13  C   UNL     1     -22.795 -13.733  -4.425  1.00  0.00     0.180 C 
HETATM   14  C   UNL     1     -21.656 -13.932  -3.414  1.00  0.00     0.177 C 
HETATM   15  O   UNL     1     -20.451 -14.234  -4.146  1.00  0.00    -0.371 OA
BRANCH  11  16
HETATM   16  O   UNL     1     -21.210 -14.323  -6.988  1.00  0.00    -0.390 OA
HETATM   17  H   UNL     1     -20.851 -13.558  -6.496  1.00  0.00     0.210 HD
ENDBRANCH  11  16
BRANCH  12  18
HETATM   18  O   UNL     1     -23.893 -14.682  -6.376  1.00  0.00    -0.390 OA
HETATM   19  H   UNL     1     -24.294 -13.827  -6.113  1.00  0.00     0.210 HD
ENDBRANCH  12  18
BRANCH  13  20
HETATM   20  O   UNL     1     -22.520 -12.567  -5.237  1.00  0.00    -0.390 OA
HETATM   21  H   UNL     1     -21.642 -12.223  -4.985  1.00  0.00     0.210 HD
ENDBRANCH  13  20
BRANCH  14  22
HETATM   22  C   UNL     1     -21.959 -14.956  -2.306  1.00  0.00     0.201 C 
BRANCH  22  23
HETATM   23  O   UNL     1     -22.676 -14.288  -1.264  1.00  0.00    -0.393 OA
HETATM   24  C   UNL     1     -23.973 -14.825  -1.061  1.00  0.00     0.201 C 
ENDBRANCH  22  23
ENDBRANCH  14  22
ENDBRANCH   9  10
ENDBRANCH   8   9
ENDBRANCH   7   8
ENDBRANCH   1   7
BRANCH   2  25
HETATM   25  C   UNL     1     -15.439 -11.233  -5.514  1.00  0.00     0.196 C 
BRANCH  25  26
HETATM   26  O   UNL     1     -14.159 -11.708  -5.102  1.00  0.00    -0.398 OA
HETATM   27  H   UNL     1     -13.984 -11.355  -4.217  1.00  0.00     0.209 HD
ENDBRANCH  25  26
ENDBRANCH   2  25
BRANCH   6  28
HETATM   28  O   UNL     1     -18.904 -11.894  -8.301  1.00  0.00    -0.392 OA
HETATM   29  H   UNL     1     -18.316 -11.566  -9.016  1.00  0.00     0.210 HD
ENDBRANCH   6  28
BRANCH   5  30
HETATM   30  O   UNL     1     -20.385 -10.733  -6.254  1.00  0.00    -0.390 OA
HETATM   31  H   UNL     1     -21.153 -10.998  -5.718  1.00  0.00     0.210 HD
ENDBRANCH   5  30
BRANCH   4  32
HETATM   32  C   UNL     1     -18.205  -9.719  -4.485  1.00  0.00     0.202 C 
BRANCH  32  33
HETATM   33  O   UNL     1     -19.275  -8.854  -4.129  1.00  0.00    -0.388 OA
BRANCH  33  34
HETATM   34  C   UNL     1     -19.617  -8.929  -2.747  1.00  0.00     0.177 C 
BRANCH  34  35
HETATM   35  C   UNL     1     -21.014  -8.335  -2.546  1.00  0.00     0.072 C 
HETATM   36  C   UNL     1     -21.148  -7.707  -1.152  1.00  0.00     0.157 C 
HETATM   37  O   UNL     1     -21.171  -8.704  -0.116  1.00  0.00    -0.351 OA
HETATM   38  C   UNL     1     -22.078  -9.782  -0.260  1.00  0.00     0.288 C 
HETATM   39  C   UNL     1     -22.047 -10.457  -1.645  1.00  0.00     0.202 C 
HETATM   40  C   UNL     1     -22.085  -9.408  -2.763  1.00  0.00     0.160 C 
BRANCH  36  41
HETATM   41  C   UNL     1     -22.347  -6.746  -1.060  1.00  0.00     0.196 C 
BRANCH  41  42
HETATM   42  O   UNL     1     -22.369  -5.862  -2.174  1.00  0.00    -0.398 OA
HETATM   43  H   UNL     1     -22.164  -6.408  -2.958  1.00  0.00     0.209 HD
ENDBRANCH  41  42
ENDBRANCH  36  41
BRANCH  38  44
HETATM   44  O   UNL     1     -23.398  -9.400   0.121  1.00  0.00    -0.369 OA
HETATM   45  H   UNL     1     -24.025  -9.723  -0.532  1.00  0.00     0.212 HD
ENDBRANCH  38  44
BRANCH  39  46
HETATM   46  O   UNL     1     -23.128 -11.381  -1.823  1.00  0.00    -0.388 OA
HETATM   47  H   UNL     1     -23.353 -11.404  -2.773  1.00  0.00     0.210 HD
ENDBRANCH  39  46
BRANCH  40  48
HETATM   48  O   UNL     1     -21.909 -10.000  -4.054  1.00  0.00    -0.392 OA
HETATM   49  H   UNL     1     -21.229  -9.499  -4.539  1.00  0.00     0.210 HD
ENDBRANCH  40  48
ENDBRANCH  34  35
ENDBRANCH  33  34
ENDBRANCH  32  33
ENDBRANCH   4  32
TORSDOF 22
ENDMDL
