MODEL 1
REMARK VINA RESULT:      -6.3      0.000      0.000
REMARK  5 active torsions:
REMARK  status: ('A' for Active; 'I' for Inactive)
REMARK    1  A    between atoms: C_6  and  C_12 
REMARK    2  A    between atoms: C_7  and  C_10 
REMARK    3  A    between atoms: C_8  and  O_9 
REMARK    4  A    between atoms: C_10  and  O_11 
REMARK    5  A    between atoms: C_12  and  O_13 
ROOT
HETATM    1  C   UNL     1     -23.188  -2.845 -14.267  1.00  0.00     0.071 C 
HETATM    2  C   UNL     1     -22.795  -3.244 -12.874  1.00  0.00     0.039 A 
HETATM    3  N   UNL     1     -21.512  -3.629 -12.688  1.00  0.00    -0.367 N 
ATOM      4  HN  UNL     1     -20.842  -3.641 -13.457  1.00  0.00     0.165 HD
HETATM    5  C   UNL     1     -21.159  -3.997 -11.439  1.00  0.00     0.098 A 
HETATM    6  C   UNL     1     -22.008  -3.979 -10.328  1.00  0.00    -0.008 A 
HETATM    7  C   UNL     1     -23.345  -3.563 -10.524  1.00  0.00     0.010 A 
HETATM    8  C   UNL     1     -23.725  -3.218 -11.833  1.00  0.00     0.096 A 
ENDROOT
BRANCH   6   9
HETATM    9  C   UNL     1     -21.436  -4.497  -9.028  1.00  0.00     0.205 C 
BRANCH   9  10
HETATM   10  O   UNL     1     -20.055  -4.801  -9.120  1.00  0.00    -0.396 OA
HETATM   11  H   UNL     1     -19.968  -5.570  -9.710  1.00  0.00     0.209 HD
ENDBRANCH   9  10
ENDBRANCH   6   9
BRANCH   7  12
HETATM   12  C   UNL     1     -24.307  -3.501  -9.359  1.00  0.00     0.206 C 
BRANCH  12  13
HETATM   13  O   UNL     1     -25.628  -3.917  -9.727  1.00  0.00    -0.396 OA
HETATM   14  H   UNL     1     -26.129  -3.094  -9.887  1.00  0.00     0.209 HD
ENDBRANCH  12  13
ENDBRANCH   7  12
BRANCH   8  15
HETATM   15  O   UNL     1     -25.013  -2.859 -12.149  1.00  0.00    -0.358 OA
HETATM   16  H   UNL     1     -24.966  -2.349 -12.987  1.00  0.00     0.217 HD
ENDBRANCH   8  15
TORSDOF 5
ENDMDL
MODEL 2
REMARK VINA RESULT:      -6.2      1.772      3.710
REMARK  5 active torsions:
REMARK  status: ('A' for Active; 'I' for Inactive)
REMARK    1  A    between atoms: C_6  and  C_12 
REMARK    2  A    between atoms: C_7  and  C_10 
REMARK    3  A    between atoms: C_8  and  O_9 
REMARK    4  A    between atoms: C_10  and  O_11 
REMARK    5  A    between atoms: C_12  and  O_13 
ROOT
HETATM    1  C   UNL     1     -20.277  -4.850  -7.781  1.00  0.00     0.071 C 
HETATM    2  C   UNL     1     -21.034  -4.418  -9.002  1.00  0.00     0.039 A 
HETATM    3  N   UNL     1     -20.350  -4.390 -10.168  1.00  0.00    -0.367 N 
ATOM      4  HN  UNL     1     -19.367  -4.657 -10.215  1.00  0.00     0.165 HD
HETATM    5  C   UNL     1     -21.027  -3.992 -11.266  1.00  0.00     0.098 A 
HETATM    6  C   UNL     1     -22.380  -3.640 -11.289  1.00  0.00    -0.008 A 
HETATM    7  C   UNL     1     -23.095  -3.683 -10.070  1.00  0.00     0.010 A 
HETATM    8  C   UNL     1     -22.381  -4.058  -8.919  1.00  0.00     0.096 A 
ENDROOT
BRANCH   6   9
HETATM    9  C   UNL     1     -22.932  -3.155 -12.610  1.00  0.00     0.205 C 
BRANCH   9  10
HETATM   10  O   UNL     1     -22.021  -3.328 -13.682  1.00  0.00    -0.396 OA
HETATM   11  H   UNL     1     -22.230  -4.180 -14.103  1.00  0.00     0.209 HD
ENDBRANCH   9  10
ENDBRANCH   6   9
BRANCH   7  12
HETATM   12  C   UNL     1     -24.567  -3.335 -10.033  1.00  0.00     0.206 C 
BRANCH  12  13
HETATM   13  O   UNL     1     -25.366  -4.426  -9.559  1.00  0.00    -0.396 OA
HETATM   14  H   UNL     1     -25.454  -4.289  -8.596  1.00  0.00     0.209 HD
ENDBRANCH  12  13
ENDBRANCH   7  12
BRANCH   8  15
HETATM   15  O   UNL     1     -22.961  -4.076  -7.673  1.00  0.00    -0.358 OA
HETATM   16  H   UNL     1     -22.467  -4.738  -7.142  1.00  0.00     0.217 HD
ENDBRANCH   8  15
TORSDOF 5
ENDMDL
MODEL 3
REMARK VINA RESULT:      -6.2      2.084      3.241
REMARK  5 active torsions:
REMARK  status: ('A' for Active; 'I' for Inactive)
REMARK    1  A    between atoms: C_6  and  C_12 
REMARK    2  A    between atoms: C_7  and  C_10 
REMARK    3  A    between atoms: C_8  and  O_9 
REMARK    4  A    between atoms: C_10  and  O_11 
REMARK    5  A    between atoms: C_12  and  O_13 
ROOT
HETATM    1  C   UNL     1     -24.297  -2.836 -12.975  1.00  0.00     0.071 C 
HETATM    2  C   UNL     1     -23.813  -3.238 -11.613  1.00  0.00     0.039 A 
HETATM    3  N   UNL     1     -24.752  -3.394 -10.652  1.00  0.00    -0.367 N 
ATOM      4  HN  UNL     1     -25.743  -3.251 -10.847  1.00  0.00     0.165 HD
HETATM    5  C   UNL     1     -24.318  -3.747  -9.424  1.00  0.00     0.098 A 
HETATM    6  C   UNL     1     -22.983  -3.991  -9.085  1.00  0.00    -0.008 A 
HETATM    7  C   UNL     1     -22.006  -3.840 -10.096  1.00  0.00     0.010 A 
HETATM    8  C   UNL     1     -22.453  -3.433 -11.365  1.00  0.00     0.096 A 
ENDROOT
BRANCH   6   9
HETATM    9  C   UNL     1     -22.699  -4.308  -7.635  1.00  0.00     0.205 C 
BRANCH   9  10
HETATM   10  O   UNL     1     -23.875  -4.375  -6.847  1.00  0.00    -0.396 OA
HETATM   11  H   UNL     1     -24.587  -3.949  -7.356  1.00  0.00     0.209 HD
ENDBRANCH   9  10
ENDBRANCH   6   9
BRANCH   7  12
HETATM   12  C   UNL     1     -20.549  -4.111  -9.799  1.00  0.00     0.206 C 
BRANCH  12  13
HETATM   13  O   UNL     1     -19.877  -4.721 -10.908  1.00  0.00    -0.396 OA
HETATM   14  H   UNL     1     -19.138  -4.123 -11.130  1.00  0.00     0.209 HD
ENDBRANCH  12  13
ENDBRANCH   7  12
BRANCH   8  15
HETATM   15  O   UNL     1     -21.585  -3.197 -12.404  1.00  0.00    -0.358 OA
HETATM   16  H   UNL     1     -21.551  -2.224 -12.528  1.00  0.00     0.217 HD
ENDBRANCH   8  15
TORSDOF 5
ENDMDL
MODEL 4
REMARK VINA RESULT:      -6.0      2.131      4.704
REMARK  5 active torsions:
REMARK  status: ('A' for Active; 'I' for Inactive)
REMARK    1  A    between atoms: C_6  and  C_12 
REMARK    2  A    between atoms: C_7  and  C_10 
REMARK    3  A    between atoms: C_8  and  O_9 
REMARK    4  A    between atoms: C_10  and  O_11 
REMARK    5  A    between atoms: C_12  and  O_13 
ROOT
HETATM    1  C   UNL     1     -22.497  -4.446  -7.053  1.00  0.00     0.071 C 
HETATM    2  C   UNL     1     -22.909  -4.126  -8.460  1.00  0.00     0.039 A 
HETATM    3  N   UNL     1     -24.180  -3.700  -8.643  1.00  0.00    -0.367 N 
ATOM      4  HN  UNL     1     -24.825  -3.595  -7.860  1.00  0.00     0.165 HD
HETATM    5  C   UNL     1     -24.556  -3.420  -9.908  1.00  0.00     0.098 A 
HETATM    6  C   UNL     1     -23.724  -3.509 -11.029  1.00  0.00    -0.008 A 
HETATM    7  C   UNL     1     -22.393  -3.942 -10.833  1.00  0.00     0.010 A 
HETATM    8  C   UNL     1     -22.012  -4.272  -9.520  1.00  0.00     0.096 A 
ENDROOT
BRANCH   6   9
HETATM    9  C   UNL     1     -24.360  -3.218 -12.370  1.00  0.00     0.205 C 
BRANCH   9  10
HETATM   10  O   UNL     1     -23.866  -2.030 -12.965  1.00  0.00    -0.396 OA
HETATM   11  H   UNL     1     -23.102  -2.279 -13.514  1.00  0.00     0.209 HD
ENDBRANCH   9  10
ENDBRANCH   6   9
BRANCH   7  12
HETATM   12  C   UNL     1     -21.438  -4.038 -12.001  1.00  0.00     0.206 C 
BRANCH  12  13
HETATM   13  O   UNL     1     -20.113  -3.619 -11.650  1.00  0.00    -0.396 OA
HETATM   14  H   UNL     1     -20.143  -2.643 -11.625  1.00  0.00     0.209 HD
ENDBRANCH  12  13
ENDBRANCH   7  12
BRANCH   8  15
HETATM   15  O   UNL     1     -20.763  -4.761  -9.223  1.00  0.00    -0.358 OA
HETATM   16  H   UNL     1     -20.306  -4.906 -10.080  1.00  0.00     0.217 HD
ENDBRANCH   8  15
TORSDOF 5
ENDMDL
MODEL 5
REMARK VINA RESULT:      -5.9      2.115      4.981
REMARK  5 active torsions:
REMARK  status: ('A' for Active; 'I' for Inactive)
REMARK    1  A    between atoms: C_6  and  C_12 
REMARK    2  A    between atoms: C_7  and  C_10 
REMARK    3  A    between atoms: C_8  and  O_9 
REMARK    4  A    between atoms: C_10  and  O_11 
REMARK    5  A    between atoms: C_12  and  O_13 
ROOT
HETATM    1  C   UNL     1     -20.644  -4.668  -6.591  1.00  0.00     0.071 C 
HETATM    2  C   UNL     1     -21.531  -4.384  -7.767  1.00  0.00     0.039 A 
HETATM    3  N   UNL     1     -22.814  -4.050  -7.498  1.00  0.00    -0.367 N 
ATOM      4  HN  UNL     1     -23.159  -3.987  -6.540  1.00  0.00     0.165 HD
HETATM    5  C   UNL     1     -23.616  -3.803  -8.555  1.00  0.00     0.098 A 
HETATM    6  C   UNL     1     -23.213  -3.838  -9.893  1.00  0.00    -0.008 A 
HETATM    7  C   UNL     1     -21.868  -4.175 -10.169  1.00  0.00     0.010 A 
HETATM    8  C   UNL     1     -21.041  -4.472  -9.071  1.00  0.00     0.096 A 
ENDROOT
BRANCH   6   9
HETATM    9  C   UNL     1     -24.284  -3.598 -10.931  1.00  0.00     0.205 C 
BRANCH   9  10
HETATM   10  O   UNL     1     -25.523  -3.210 -10.362  1.00  0.00    -0.396 OA
HETATM   11  H   UNL     1     -25.763  -2.351 -10.754  1.00  0.00     0.209 HD
ENDBRANCH   9  10
ENDBRANCH   6   9
BRANCH   7  12
HETATM   12  C   UNL     1     -21.363  -4.208 -11.595  1.00  0.00     0.206 C 
BRANCH  12  13
HETATM   13  O   UNL     1     -20.077  -3.591 -11.726  1.00  0.00    -0.396 OA
HETATM   14  H   UNL     1     -19.553  -3.911 -10.966  1.00  0.00     0.209 HD
ENDBRANCH  12  13
ENDBRANCH   7  12
BRANCH   8  15
HETATM   15  O   UNL     1     -19.735  -4.870  -9.227  1.00  0.00    -0.358 OA
HETATM   16  H   UNL     1     -19.264  -4.619  -8.402  1.00  0.00     0.217 HD
ENDBRANCH   8  15
TORSDOF 5
ENDMDL
MODEL 6
REMARK VINA RESULT:      -5.5      1.813      4.266
REMARK  5 active torsions:
REMARK  status: ('A' for Active; 'I' for Inactive)
REMARK    1  A    between atoms: C_6  and  C_12 
REMARK    2  A    between atoms: C_7  and  C_10 
REMARK    3  A    between atoms: C_8  and  O_9 
REMARK    4  A    between atoms: C_10  and  O_11 
REMARK    5  A    between atoms: C_12  and  O_13 
ROOT
HETATM    1  C   UNL     1     -19.625  -4.548  -8.682  1.00  0.00     0.071 C 
HETATM    2  C   UNL     1     -20.963  -4.216  -9.276  1.00  0.00     0.039 A 
HETATM    3  N   UNL     1     -22.022  -4.216  -8.434  1.00  0.00    -0.367 N 
ATOM      4  HN  UNL     1     -21.914  -4.425  -7.442  1.00  0.00     0.165 HD
HETATM    5  C   UNL     1     -23.227  -3.927  -8.967  1.00  0.00     0.098 A 
HETATM    6  C   UNL     1     -23.453  -3.601 -10.308  1.00  0.00    -0.008 A 
HETATM    7  C   UNL     1     -22.342  -3.589 -11.182  1.00  0.00     0.010 A 
HETATM    8  C   UNL     1     -21.092  -3.930 -10.636  1.00  0.00     0.096 A 
ENDROOT
BRANCH   6   9
HETATM    9  C   UNL     1     -24.891  -3.378 -10.719  1.00  0.00     0.205 C 
BRANCH   9  10
HETATM   10  O   UNL     1     -25.762  -3.231  -9.610  1.00  0.00    -0.396 OA
HETATM   11  H   UNL     1     -26.490  -3.865  -9.731  1.00  0.00     0.209 HD
ENDBRANCH   9  10
ENDBRANCH   6   9
BRANCH   7  12
HETATM   12  C   UNL     1     -22.517  -3.223 -12.639  1.00  0.00     0.206 C 
BRANCH  12  13
HETATM   13  O   UNL     1     -23.081  -1.916 -12.802  1.00  0.00    -0.396 OA
HETATM   14  H   UNL     1     -22.339  -1.292 -12.682  1.00  0.00     0.209 HD
ENDBRANCH  12  13
ENDBRANCH   7  12
BRANCH   8  15
HETATM   15  O   UNL     1     -19.956  -4.010 -11.406  1.00  0.00    -0.358 OA
HETATM   16  H   UNL     1     -19.230  -3.610 -10.879  1.00  0.00     0.217 HD
ENDBRANCH   8  15
TORSDOF 5
ENDMDL
MODEL 7
REMARK VINA RESULT:      -5.3     10.856     11.948
REMARK  5 active torsions:
REMARK  status: ('A' for Active; 'I' for Inactive)
REMARK    1  A    between atoms: C_6  and  C_12 
REMARK    2  A    between atoms: C_7  and  C_10 
REMARK    3  A    between atoms: C_8  and  O_9 
REMARK    4  A    between atoms: C_10  and  O_11 
REMARK    5  A    between atoms: C_12  and  O_13 
ROOT
HETATM    1  C   UNL     1     -35.503   0.090 -11.994  1.00  0.00     0.071 C 
HETATM    2  C   UNL     1     -34.867  -1.266 -11.911  1.00  0.00     0.039 A 
HETATM    3  N   UNL     1     -34.385  -1.642 -10.704  1.00  0.00    -0.367 N 
ATOM      4  HN  UNL     1     -34.458  -1.034  -9.888  1.00  0.00     0.165 HD
HETATM    5  C   UNL     1     -33.805  -2.858 -10.628  1.00  0.00     0.098 A 
HETATM    6  C   UNL     1     -33.693  -3.760 -11.691  1.00  0.00    -0.008 A 
HETATM    7  C   UNL     1     -34.209  -3.368 -12.948  1.00  0.00     0.010 A 
HETATM    8  C   UNL     1     -34.779  -2.086 -13.038  1.00  0.00     0.096 A 
ENDROOT
BRANCH   6   9
HETATM    9  C   UNL     1     -32.944  -5.043 -11.415  1.00  0.00     0.205 C 
BRANCH   9  10
HETATM   10  O   UNL     1     -33.792  -6.178 -11.385  1.00  0.00    -0.396 OA
HETATM   11  H   UNL     1     -34.694  -5.859 -11.205  1.00  0.00     0.209 HD
ENDBRANCH   9  10
ENDBRANCH   6   9
BRANCH   7  12
HETATM   12  C   UNL     1     -34.140  -4.308 -14.131  1.00  0.00     0.206 C 
BRANCH  12  13
HETATM   13  O   UNL     1     -35.050  -5.407 -14.000  1.00  0.00    -0.396 OA
HETATM   14  H   UNL     1     -35.330  -5.407 -13.065  1.00  0.00     0.209 HD
ENDBRANCH  12  13
ENDBRANCH   7  12
BRANCH   8  15
HETATM   15  O   UNL     1     -35.255  -1.580 -14.222  1.00  0.00    -0.358 OA
HETATM   16  H   UNL     1     -35.150  -2.288 -14.894  1.00  0.00     0.217 HD
ENDBRANCH   8  15
TORSDOF 5
ENDMDL
MODEL 8
REMARK VINA RESULT:      -5.0     12.305     13.935
REMARK  5 active torsions:
REMARK  status: ('A' for Active; 'I' for Inactive)
REMARK    1  A    between atoms: C_6  and  C_12 
REMARK    2  A    between atoms: C_7  and  C_10 
REMARK    3  A    between atoms: C_8  and  O_9 
REMARK    4  A    between atoms: C_10  and  O_11 
REMARK    5  A    between atoms: C_12  and  O_13 
ROOT
HETATM    1  C   UNL     1     -33.371  -2.975 -11.591  1.00  0.00     0.071 C 
HETATM    2  C   UNL     1     -34.585  -2.107 -11.433  1.00  0.00     0.039 A 
HETATM    3  N   UNL     1     -34.976  -1.827 -10.169  1.00  0.00    -0.367 N 
ATOM      4  HN  UNL     1     -34.465  -2.183  -9.361  1.00  0.00     0.165 HD
HETATM    5  C   UNL     1     -36.072  -1.054 -10.024  1.00  0.00     0.098 A 
HETATM    6  C   UNL     1     -36.809  -0.502 -11.078  1.00  0.00    -0.008 A 
HETATM    7  C   UNL     1     -36.389  -0.787 -12.398  1.00  0.00     0.010 A 
HETATM    8  C   UNL     1     -35.271  -1.625 -12.550  1.00  0.00     0.096 A 
ENDROOT
BRANCH   6   9
HETATM    9  C   UNL     1     -38.048   0.278 -10.703  1.00  0.00     0.205 C 
BRANCH   9  10
HETATM   10  O   UNL     1     -37.782   1.319  -9.779  1.00  0.00    -0.396 OA
HETATM   11  H   UNL     1     -38.531   1.351  -9.158  1.00  0.00     0.209 HD
ENDBRANCH   9  10
ENDBRANCH   6   9
BRANCH   7  12
HETATM   12  C   UNL     1     -37.130  -0.202 -13.579  1.00  0.00     0.206 C 
BRANCH  12  13
HETATM   13  O   UNL     1     -36.333   0.747 -14.299  1.00  0.00    -0.396 OA
HETATM   14  H   UNL     1     -36.246   0.386 -15.202  1.00  0.00     0.209 HD
ENDBRANCH  12  13
ENDBRANCH   7  12
BRANCH   8  15
HETATM   15  O   UNL     1     -34.814  -2.016 -13.785  1.00  0.00    -0.358 OA
HETATM   16  H   UNL     1     -34.779  -2.997 -13.776  1.00  0.00     0.217 HD
ENDBRANCH   8  15
TORSDOF 5
ENDMDL
MODEL 9
REMARK VINA RESULT:      -4.9     12.548     14.190
REMARK  5 active torsions:
REMARK  status: ('A' for Active; 'I' for Inactive)
REMARK    1  A    between atoms: C_6  and  C_12 
REMARK    2  A    between atoms: C_7  and  C_10 
REMARK    3  A    between atoms: C_8  and  O_9 
REMARK    4  A    between atoms: C_10  and  O_11 
REMARK    5  A    between atoms: C_12  and  O_13 
ROOT
HETATM    1  C   UNL     1     -33.571  -2.280 -10.900  1.00  0.00     0.071 C 
HETATM    2  C   UNL     1     -34.700  -1.658 -11.667  1.00  0.00     0.039 A 
HETATM    3  N   UNL     1     -34.605  -1.678 -13.017  1.00  0.00    -0.367 N 
ATOM      4  HN  UNL     1     -33.807  -2.103 -13.489  1.00  0.00     0.165 HD
HETATM    5  C   UNL     1     -35.615  -1.111 -13.709  1.00  0.00     0.098 A 
HETATM    6  C   UNL     1     -36.756  -0.537 -13.138  1.00  0.00    -0.008 A 
HETATM    7  C   UNL     1     -36.857  -0.529 -11.728  1.00  0.00     0.010 A 
HETATM    8  C   UNL     1     -35.786  -1.084 -11.004  1.00  0.00     0.096 A 
ENDROOT
BRANCH   6   9
HETATM    9  C   UNL     1     -37.738   0.108 -14.088  1.00  0.00     0.205 C 
BRANCH   9  10
HETATM   10  O   UNL     1     -37.102   0.849 -15.116  1.00  0.00    -0.396 OA
HETATM   11  H   UNL     1     -37.748   1.498 -15.444  1.00  0.00     0.209 HD
ENDBRANCH   9  10
ENDBRANCH   6   9
BRANCH   7  12
HETATM   12  C   UNL     1     -38.075   0.056 -11.050  1.00  0.00     0.206 C 
BRANCH  12  13
HETATM   13  O   UNL     1     -37.725   1.044 -10.073  1.00  0.00    -0.396 OA
HETATM   14  H   UNL     1     -38.512   1.616  -9.983  1.00  0.00     0.209 HD
ENDBRANCH  12  13
ENDBRANCH   7  12
BRANCH   8  15
HETATM   15  O   UNL     1     -35.751  -1.075  -9.631  1.00  0.00    -0.358 OA
HETATM   16  H   UNL     1     -36.681  -0.991  -9.325  1.00  0.00     0.217 HD
ENDBRANCH   8  15
TORSDOF 5
ENDMDL
