MODEL 1
REMARK VINA RESULT:      -5.6      0.000      0.000
REMARK  7 active torsions:
REMARK  status: ('A' for Active; 'I' for Inactive)
REMARK    1  A    between atoms: C_1  and  C_2 
REMARK    2  A    between atoms: C_1  and  C_7 
REMARK    3  A    between atoms: C_1  and  O_10 
REMARK    4  A    between atoms: C_2  and  C_3 
REMARK    5  A    between atoms: C_2  and  O_6 
REMARK    6  A    between atoms: C_3  and  O_5 
REMARK    7  A    between atoms: C_7  and  O_9 
ROOT
HETATM    1  C   UNL     1     -30.012 -14.787 -19.456  1.00  0.00     0.254 C 
ENDROOT
BRANCH   1   2
HETATM    2  C   UNL     1     -29.771 -14.893 -20.969  1.00  0.00     0.254 C 
BRANCH   2   3
HETATM    3  C   UNL     1     -31.085 -14.985 -21.731  1.00  0.00     0.172 C 
HETATM    4  O   UNL     1     -31.717 -16.022 -21.870  1.00  0.00    -0.648 OA
BRANCH   3   5
HETATM    5  O   UNL     1     -31.447 -13.798 -22.273  1.00  0.00    -0.774 OA
HETATM    6  H   UNL     1     -31.907 -13.955 -23.129  1.00  0.00     0.167 HD
ENDBRANCH   3   5
ENDBRANCH   2   3
BRANCH   2   7
HETATM    7  O   UNL     1     -28.994 -13.812 -21.506  1.00  0.00    -0.382 OA
HETATM    8  H   UNL     1     -28.917 -13.127 -20.801  1.00  0.00     0.210 HD
ENDBRANCH   2   7
ENDBRANCH   1   2
BRANCH   1   9
HETATM    9  C   UNL     1     -29.004 -13.852 -18.802  1.00  0.00     0.172 C 
HETATM   10  O   UNL     1     -28.950 -12.649 -19.019  1.00  0.00    -0.648 OA
BRANCH   9  11
HETATM   11  O   UNL     1     -28.148 -14.513 -17.989  1.00  0.00    -0.774 OA
HETATM   12  H   UNL     1     -27.377 -13.935 -17.781  1.00  0.00     0.167 HD
ENDBRANCH   9  11
ENDBRANCH   1   9
BRANCH   1  13
HETATM   13  O   UNL     1     -31.339 -14.360 -19.113  1.00  0.00    -0.382 OA
HETATM   14  H   UNL     1     -31.631 -13.722 -19.807  1.00  0.00     0.210 HD
ENDBRANCH   1  13
TORSDOF 7
ENDMDL
MODEL 2
REMARK VINA RESULT:      -5.6      0.021      4.120
REMARK  7 active torsions:
REMARK  status: ('A' for Active; 'I' for Inactive)
REMARK    1  A    between atoms: C_1  and  C_2 
REMARK    2  A    between atoms: C_1  and  C_7 
REMARK    3  A    between atoms: C_1  and  O_10 
REMARK    4  A    between atoms: C_2  and  C_3 
REMARK    5  A    between atoms: C_2  and  O_6 
REMARK    6  A    between atoms: C_3  and  O_5 
REMARK    7  A    between atoms: C_7  and  O_9 
ROOT
HETATM    1  C   UNL     1     -29.764 -14.890 -20.980  1.00  0.00     0.254 C 
ENDROOT
BRANCH   1   2
HETATM    2  C   UNL     1     -30.001 -14.794 -19.465  1.00  0.00     0.254 C 
BRANCH   2   3
HETATM    3  C   UNL     1     -29.002 -13.850 -18.811  1.00  0.00     0.172 C 
HETATM    4  O   UNL     1     -28.958 -12.648 -19.031  1.00  0.00    -0.648 OA
BRANCH   3   5
HETATM    5  O   UNL     1     -28.139 -14.503 -17.997  1.00  0.00    -0.774 OA
HETATM    6  H   UNL     1     -28.646 -15.028 -17.336  1.00  0.00     0.167 HD
ENDBRANCH   3   5
ENDBRANCH   2   3
BRANCH   2   7
HETATM    7  O   UNL     1     -31.331 -14.382 -19.116  1.00  0.00    -0.382 OA
HETATM    8  H   UNL     1     -31.337 -13.396 -19.096  1.00  0.00     0.210 HD
ENDBRANCH   2   7
ENDBRANCH   1   2
BRANCH   1   9
HETATM    9  C   UNL     1     -31.081 -14.965 -21.740  1.00  0.00     0.172 C 
HETATM   10  O   UNL     1     -31.725 -15.995 -21.885  1.00  0.00    -0.648 OA
BRANCH   9  11
HETATM   11  O   UNL     1     -31.431 -13.772 -22.273  1.00  0.00    -0.774 OA
HETATM   12  H   UNL     1     -30.619 -13.260 -22.497  1.00  0.00     0.167 HD
ENDBRANCH   9  11
ENDBRANCH   1   9
BRANCH   1  13
HETATM   13  O   UNL     1     -28.977 -13.813 -21.509  1.00  0.00    -0.382 OA
HETATM   14  H   UNL     1     -28.344 -14.203 -22.158  1.00  0.00     0.210 HD
ENDBRANCH   1  13
TORSDOF 7
ENDMDL
MODEL 3
REMARK VINA RESULT:      -5.6     13.942     15.035
REMARK  7 active torsions:
REMARK  status: ('A' for Active; 'I' for Inactive)
REMARK    1  A    between atoms: C_1  and  C_2 
REMARK    2  A    between atoms: C_1  and  C_7 
REMARK    3  A    between atoms: C_1  and  O_10 
REMARK    4  A    between atoms: C_2  and  C_3 
REMARK    5  A    between atoms: C_2  and  O_6 
REMARK    6  A    between atoms: C_3  and  O_5 
REMARK    7  A    between atoms: C_7  and  O_9 
ROOT
HETATM    1  C   UNL     1     -22.593  -3.068 -12.209  1.00  0.00     0.254 C 
ENDROOT
BRANCH   1   2
HETATM    2  C   UNL     1     -23.459  -2.322 -13.236  1.00  0.00     0.254 C 
BRANCH   2   3
HETATM    3  C   UNL     1     -23.192  -2.823 -14.648  1.00  0.00     0.172 C 
HETATM    4  O   UNL     1     -22.497  -2.228 -15.458  1.00  0.00    -0.648 OA
BRANCH   3   5
HETATM    5  O   UNL     1     -23.850  -3.976 -14.915  1.00  0.00    -0.774 OA
HETATM    6  H   UNL     1     -23.211  -4.725 -14.917  1.00  0.00     0.167 HD
ENDBRANCH   3   5
ENDBRANCH   2   3
BRANCH   2   7
HETATM    7  O   UNL     1     -24.867  -2.404 -12.969  1.00  0.00    -0.382 OA
HETATM    8  H   UNL     1     -24.995  -3.094 -12.276  1.00  0.00     0.210 HD
ENDBRANCH   2   7
ENDBRANCH   1   2
BRANCH   1   9
HETATM    9  C   UNL     1     -23.419  -4.075 -11.420  1.00  0.00     0.172 C 
HETATM   10  O   UNL     1     -23.817  -3.883 -10.279  1.00  0.00    -0.648 OA
BRANCH   9  11
HETATM   11  O   UNL     1     -23.621  -5.221 -12.109  1.00  0.00    -0.774 OA
HETATM   12  H   UNL     1     -24.053  -5.887 -11.524  1.00  0.00     0.167 HD
ENDBRANCH   9  11
ENDBRANCH   1   9
BRANCH   1  13
HETATM   13  O   UNL     1     -21.464  -3.738 -12.788  1.00  0.00    -0.382 OA
HETATM   14  H   UNL     1     -21.782  -4.606 -13.133  1.00  0.00     0.210 HD
ENDBRANCH   1  13
TORSDOF 7
ENDMDL
MODEL 4
REMARK VINA RESULT:      -5.6     14.574     15.497
REMARK  7 active torsions:
REMARK  status: ('A' for Active; 'I' for Inactive)
REMARK    1  A    between atoms: C_1  and  C_2 
REMARK    2  A    between atoms: C_1  and  C_7 
REMARK    3  A    between atoms: C_1  and  O_10 
REMARK    4  A    between atoms: C_2  and  C_3 
REMARK    5  A    between atoms: C_2  and  O_6 
REMARK    6  A    between atoms: C_3  and  O_5 
REMARK    7  A    between atoms: C_7  and  O_9 
ROOT
HETATM    1  C   UNL     1     -24.079  -2.831 -12.421  1.00  0.00     0.254 C 
ENDROOT
BRANCH   1   2
HETATM    2  C   UNL     1     -23.633  -3.690 -11.228  1.00  0.00     0.254 C 
BRANCH   2   3
HETATM    3  C   UNL     1     -24.477  -3.400  -9.996  1.00  0.00     0.172 C 
HETATM    4  O   UNL     1     -25.682  -3.194 -10.031  1.00  0.00    -0.648 OA
BRANCH   3   5
HETATM    5  O   UNL     1     -23.733  -3.351  -8.865  1.00  0.00    -0.774 OA
HETATM    6  H   UNL     1     -22.841  -2.989  -9.075  1.00  0.00     0.167 HD
ENDBRANCH   3   5
ENDBRANCH   2   3
BRANCH   2   7
HETATM    7  O   UNL     1     -23.659  -5.101 -11.492  1.00  0.00    -0.382 OA
HETATM    8  H   UNL     1     -22.749  -5.367 -11.762  1.00  0.00     0.210 HD
ENDBRANCH   2   7
ENDBRANCH   1   2
BRANCH   1   9
HETATM    9  C   UNL     1     -23.163  -3.036 -13.620  1.00  0.00     0.172 C 
HETATM   10  O   UNL     1     -23.513  -2.866 -14.781  1.00  0.00    -0.648 OA
BRANCH   9  11
HETATM   11  O   UNL     1     -21.935  -3.472 -13.256  1.00  0.00    -0.774 OA
HETATM   12  H   UNL     1     -22.018  -4.096 -12.497  1.00  0.00     0.167 HD
ENDBRANCH   9  11
ENDBRANCH   1   9
BRANCH   1  13
HETATM   13  O   UNL     1     -25.437  -3.064 -12.822  1.00  0.00    -0.382 OA
HETATM   14  H   UNL     1     -25.969  -3.185 -12.001  1.00  0.00     0.210 HD
ENDBRANCH   1  13
TORSDOF 7
ENDMDL
MODEL 5
REMARK VINA RESULT:      -5.5     13.916     15.299
REMARK  7 active torsions:
REMARK  status: ('A' for Active; 'I' for Inactive)
REMARK    1  A    between atoms: C_1  and  C_2 
REMARK    2  A    between atoms: C_1  and  C_7 
REMARK    3  A    between atoms: C_1  and  O_10 
REMARK    4  A    between atoms: C_2  and  C_3 
REMARK    5  A    between atoms: C_2  and  O_6 
REMARK    6  A    between atoms: C_3  and  O_5 
REMARK    7  A    between atoms: C_7  and  O_9 
ROOT
HETATM    1  C   UNL     1     -23.463  -2.270 -13.262  1.00  0.00     0.254 C 
ENDROOT
BRANCH   1   2
HETATM    2  C   UNL     1     -22.599  -2.926 -12.174  1.00  0.00     0.254 C 
BRANCH   2   3
HETATM    3  C   UNL     1     -23.447  -3.774 -11.237  1.00  0.00     0.172 C 
HETATM    4  O   UNL     1     -23.832  -3.396 -10.140  1.00  0.00    -0.648 OA
BRANCH   3   5
HETATM    5  O   UNL     1     -23.684  -5.010 -11.739  1.00  0.00    -0.774 OA
HETATM    6  H   UNL     1     -23.275  -5.687 -11.151  1.00  0.00     0.167 HD
ENDBRANCH   3   5
ENDBRANCH   2   3
BRANCH   2   7
HETATM    7  O   UNL     1     -21.530  -3.730 -12.694  1.00  0.00    -0.382 OA
HETATM    8  H   UNL     1     -20.688  -3.374 -12.325  1.00  0.00     0.210 HD
ENDBRANCH   2   7
ENDBRANCH   1   2
BRANCH   1   9
HETATM    9  C   UNL     1     -23.189  -2.886 -14.628  1.00  0.00     0.172 C 
HETATM   10  O   UNL     1     -22.474  -2.369 -15.476  1.00  0.00    -0.648 OA
BRANCH   9  11
HETATM   11  O   UNL     1     -23.863  -4.044 -14.810  1.00  0.00    -0.774 OA
HETATM   12  H   UNL     1     -23.385  -4.778 -14.356  1.00  0.00     0.167 HD
ENDBRANCH   9  11
ENDBRANCH   1   9
BRANCH   1  13
HETATM   13  O   UNL     1     -24.871  -2.331 -12.994  1.00  0.00    -0.382 OA
HETATM   14  H   UNL     1     -25.104  -1.532 -12.464  1.00  0.00     0.210 HD
ENDBRANCH   1  13
TORSDOF 7
ENDMDL
MODEL 6
REMARK VINA RESULT:      -5.4     14.735     15.388
REMARK  7 active torsions:
REMARK  status: ('A' for Active; 'I' for Inactive)
REMARK    1  A    between atoms: C_1  and  C_2 
REMARK    2  A    between atoms: C_1  and  C_7 
REMARK    3  A    between atoms: C_1  and  O_10 
REMARK    4  A    between atoms: C_2  and  C_3 
REMARK    5  A    between atoms: C_2  and  O_6 
REMARK    6  A    between atoms: C_3  and  O_5 
REMARK    7  A    between atoms: C_7  and  O_9 
ROOT
HETATM    1  C   UNL     1     -23.096  -2.522 -13.005  1.00  0.00     0.254 C 
ENDROOT
BRANCH   1   2
HETATM    2  C   UNL     1     -23.378  -2.461 -14.514  1.00  0.00     0.254 C 
BRANCH   2   3
HETATM    3  C   UNL     1     -23.782  -1.058 -14.941  1.00  0.00     0.172 C 
HETATM    4  O   UNL     1     -23.060  -0.310 -15.586  1.00  0.00    -0.648 OA
BRANCH   3   5
HETATM    5  O   UNL     1     -25.011  -0.718 -14.485  1.00  0.00    -0.774 OA
HETATM    6  H   UNL     1     -24.992   0.209 -14.151  1.00  0.00     0.167 HD
ENDBRANCH   3   5
ENDBRANCH   2   3
BRANCH   2   7
HETATM    7  O   UNL     1     -22.276  -2.898 -15.323  1.00  0.00    -0.382 OA
HETATM    8  H   UNL     1     -21.934  -3.734 -14.928  1.00  0.00     0.210 HD
ENDBRANCH   2   7
ENDBRANCH   1   2
BRANCH   1   9
HETATM    9  C   UNL     1     -24.180  -3.302 -12.273  1.00  0.00     0.172 C 
HETATM   10  O   UNL     1     -23.951  -4.216 -11.492  1.00  0.00    -0.648 OA
BRANCH   9  11
HETATM   11  O   UNL     1     -25.423  -2.898 -12.622  1.00  0.00    -0.774 OA
HETATM   12  H   UNL     1     -25.408  -1.937 -12.843  1.00  0.00     0.167 HD
ENDBRANCH   9  11
ENDBRANCH   1   9
BRANCH   1  13
HETATM   13  O   UNL     1     -21.815  -3.081 -12.680  1.00  0.00    -0.382 OA
HETATM   14  H   UNL     1     -21.426  -3.430 -13.517  1.00  0.00     0.210 HD
ENDBRANCH   1  13
TORSDOF 7
ENDMDL
MODEL 7
REMARK VINA RESULT:      -5.3      7.840      9.195
REMARK  7 active torsions:
REMARK  status: ('A' for Active; 'I' for Inactive)
REMARK    1  A    between atoms: C_1  and  C_2 
REMARK    2  A    between atoms: C_1  and  C_7 
REMARK    3  A    between atoms: C_1  and  O_10 
REMARK    4  A    between atoms: C_2  and  C_3 
REMARK    5  A    between atoms: C_2  and  O_6 
REMARK    6  A    between atoms: C_3  and  O_5 
REMARK    7  A    between atoms: C_7  and  O_9 
ROOT
HETATM    1  C   UNL     1     -26.381  -6.324 -16.581  1.00  0.00     0.254 C 
ENDROOT
BRANCH   1   2
HETATM    2  C   UNL     1     -27.713  -6.641 -15.885  1.00  0.00     0.254 C 
BRANCH   2   3
HETATM    3  C   UNL     1     -28.814  -6.907 -16.902  1.00  0.00     0.172 C 
HETATM    4  O   UNL     1     -29.424  -6.024 -17.488  1.00  0.00    -0.648 OA
BRANCH   3   5
HETATM    5  O   UNL     1     -29.070  -8.229 -17.046  1.00  0.00    -0.774 OA
HETATM    6  H   UNL     1     -28.225  -8.711 -17.200  1.00  0.00     0.167 HD
ENDBRANCH   3   5
ENDBRANCH   2   3
BRANCH   2   7
HETATM    7  O   UNL     1     -27.638  -7.750 -14.977  1.00  0.00    -0.382 OA
HETATM    8  H   UNL     1     -27.577  -7.380 -14.066  1.00  0.00     0.210 HD
ENDBRANCH   2   7
ENDBRANCH   1   2
BRANCH   1   9
HETATM    9  C   UNL     1     -25.213  -6.986 -15.864  1.00  0.00     0.172 C 
HETATM   10  O   UNL     1     -24.691  -8.031 -16.232  1.00  0.00    -0.648 OA
BRANCH   9  11
HETATM   11  O   UNL     1     -24.850  -6.312 -14.749  1.00  0.00    -0.774 OA
HETATM   12  H   UNL     1     -25.543  -6.422 -14.056  1.00  0.00     0.167 HD
ENDBRANCH   9  11
ENDBRANCH   1   9
BRANCH   1  13
HETATM   13  O   UNL     1     -26.352  -6.695 -17.967  1.00  0.00    -0.382 OA
HETATM   14  H   UNL     1     -27.266  -6.580 -18.321  1.00  0.00     0.210 HD
ENDBRANCH   1  13
TORSDOF 7
ENDMDL
MODEL 8
REMARK VINA RESULT:      -5.3      7.839      9.523
REMARK  7 active torsions:
REMARK  status: ('A' for Active; 'I' for Inactive)
REMARK    1  A    between atoms: C_1  and  C_2 
REMARK    2  A    between atoms: C_1  and  C_7 
REMARK    3  A    between atoms: C_1  and  O_10 
REMARK    4  A    between atoms: C_2  and  C_3 
REMARK    5  A    between atoms: C_2  and  O_6 
REMARK    6  A    between atoms: C_3  and  O_5 
REMARK    7  A    between atoms: C_7  and  O_9 
ROOT
HETATM    1  C   UNL     1     -27.717  -6.649 -15.874  1.00  0.00     0.254 C 
ENDROOT
BRANCH   1   2
HETATM    2  C   UNL     1     -26.386  -6.322 -16.569  1.00  0.00     0.254 C 
BRANCH   2   3
HETATM    3  C   UNL     1     -25.217  -6.988 -15.858  1.00  0.00     0.172 C 
HETATM    4  O   UNL     1     -24.698  -8.029 -16.233  1.00  0.00    -0.648 OA
BRANCH   3   5
HETATM    5  O   UNL     1     -24.851  -6.319 -14.739  1.00  0.00    -0.774 OA
HETATM    6  H   UNL     1     -24.613  -6.964 -14.034  1.00  0.00     0.167 HD
ENDBRANCH   3   5
ENDBRANCH   2   3
BRANCH   2   7
HETATM    7  O   UNL     1     -26.358  -6.686 -17.958  1.00  0.00    -0.382 OA
HETATM    8  H   UNL     1     -26.356  -5.850 -18.480  1.00  0.00     0.210 HD
ENDBRANCH   2   7
ENDBRANCH   1   2
BRANCH   1   9
HETATM    9  C   UNL     1     -28.819  -6.912 -16.891  1.00  0.00     0.172 C 
HETATM   10  O   UNL     1     -29.434  -6.029 -17.473  1.00  0.00    -0.648 OA
BRANCH   9  11
HETATM   11  O   UNL     1     -29.070  -8.233 -17.041  1.00  0.00    -0.774 OA
HETATM   12  H   UNL     1     -30.008  -8.420 -16.804  1.00  0.00     0.167 HD
ENDBRANCH   9  11
ENDBRANCH   1   9
BRANCH   1  13
HETATM   13  O   UNL     1     -27.637  -7.760 -14.970  1.00  0.00    -0.382 OA
HETATM   14  H   UNL     1     -28.496  -8.241 -15.018  1.00  0.00     0.210 HD
ENDBRANCH   1  13
TORSDOF 7
ENDMDL
MODEL 9
REMARK VINA RESULT:      -5.0     14.633     15.756
REMARK  7 active torsions:
REMARK  status: ('A' for Active; 'I' for Inactive)
REMARK    1  A    between atoms: C_1  and  C_2 
REMARK    2  A    between atoms: C_1  and  C_7 
REMARK    3  A    between atoms: C_1  and  O_10 
REMARK    4  A    between atoms: C_2  and  C_3 
REMARK    5  A    between atoms: C_2  and  O_6 
REMARK    6  A    between atoms: C_3  and  O_5 
REMARK    7  A    between atoms: C_7  and  O_9 
ROOT
HETATM    1  C   UNL     1     -24.282  -4.070 -10.433  1.00  0.00     0.254 C 
ENDROOT
BRANCH   1   2
HETATM    2  C   UNL     1     -23.454  -3.660 -11.660  1.00  0.00     0.254 C 
BRANCH   2   3
HETATM    3  C   UNL     1     -24.298  -2.878 -12.656  1.00  0.00     0.172 C 
HETATM    4  O   UNL     1     -25.460  -3.149 -12.922  1.00  0.00    -0.648 OA
BRANCH   3   5
HETATM    5  O   UNL     1     -23.600  -1.879 -13.246  1.00  0.00    -0.774 OA
HETATM    6  H   UNL     1     -22.838  -2.259 -13.741  1.00  0.00     0.167 HD
ENDBRANCH   3   5
ENDBRANCH   2   3
BRANCH   2   7
HETATM    7  O   UNL     1     -22.285  -2.893 -11.335  1.00  0.00    -0.382 OA
HETATM    8  H   UNL     1     -21.695  -3.471 -10.795  1.00  0.00     0.210 HD
ENDBRANCH   2   7
ENDBRANCH   1   2
BRANCH   1   9
HETATM    9  C   UNL     1     -23.393  -4.290  -9.217  1.00  0.00     0.172 C 
HETATM   10  O   UNL     1     -22.272  -4.779  -9.272  1.00  0.00    -0.648 OA
BRANCH   9  11
HETATM   11  O   UNL     1     -24.002  -3.923  -8.066  1.00  0.00    -0.774 OA
HETATM   12  H   UNL     1     -23.358  -3.454  -7.486  1.00  0.00     0.167 HD
ENDBRANCH   9  11
ENDBRANCH   1   9
BRANCH   1  13
HETATM   13  O   UNL     1     -25.316  -3.134 -10.096  1.00  0.00    -0.382 OA
HETATM   14  H   UNL     1     -26.071  -3.650  -9.727  1.00  0.00     0.210 HD
ENDBRANCH   1  13
TORSDOF 7
ENDMDL
