MODEL 1
REMARK VINA RESULT:      -5.1      0.000      0.000
REMARK  2 active torsions:
REMARK  status: ('A' for Active; 'I' for Inactive)
REMARK    1  A    between atoms: CA_3  and  C_6 
REMARK    2  A    between atoms: C_6  and  OXT_8 
ROOT
ATOM      1  CG  PRO A   1     -21.678  -3.095 -11.317  1.00  0.00     0.030 C 
ATOM      2  CB  PRO A   1     -21.932  -4.290 -10.412  1.00  0.00     0.045 C 
ATOM      3  CA  PRO A   1     -23.381  -4.647 -10.685  1.00  0.00     0.282 C 
ATOM      4  N   PRO A   1     -23.510  -4.375 -12.182  1.00  0.00    -0.061 N 
ATOM      5  CD  PRO A   1     -22.458  -3.390 -12.587  1.00  0.00     0.233 C 
ATOM      6  H1  PRO A   1     -24.450  -3.966 -12.340  1.00  0.00     0.278 HD
ATOM      7  H2  PRO A   1     -23.456  -5.239 -12.737  1.00  0.00     0.278 HD
ENDROOT
BRANCH   3   8
ATOM      8  C   PRO A   1     -24.389  -3.776  -9.929  1.00  0.00     0.171 C 
ATOM      9  O   PRO A   1     -25.300  -3.227 -10.539  1.00  0.00    -0.648 OA
BRANCH   8  10
ATOM     10  OXT PRO A   1     -24.230  -3.679  -8.600  1.00  0.00    -0.775 OA
ATOM     11  HXT PRO A   1     -23.403  -3.309  -8.233  1.00  0.00     0.167 HD
ENDBRANCH   8  10
ENDBRANCH   3   8
TORSDOF 2
ENDMDL
MODEL 2
REMARK VINA RESULT:      -4.9      1.283      1.802
REMARK  2 active torsions:
REMARK  status: ('A' for Active; 'I' for Inactive)
REMARK    1  A    between atoms: CA_3  and  C_6 
REMARK    2  A    between atoms: C_6  and  OXT_8 
ROOT
ATOM      1  CG  PRO A   1     -21.629  -3.917  -9.931  1.00  0.00     0.030 C 
ATOM      2  CB  PRO A   1     -22.847  -4.825  -9.873  1.00  0.00     0.045 C 
ATOM      3  CA  PRO A   1     -23.533  -4.596 -11.206  1.00  0.00     0.282 C 
ATOM      4  N   PRO A   1     -22.351  -4.427 -12.159  1.00  0.00    -0.061 N 
ATOM      5  CD  PRO A   1     -21.155  -3.985 -11.373  1.00  0.00     0.233 C 
ATOM      6  H1  PRO A   1     -22.611  -3.692 -12.843  1.00  0.00     0.278 HD
ATOM      7  H2  PRO A   1     -22.160  -5.286 -12.690  1.00  0.00     0.278 HD
ENDROOT
BRANCH   3   8
ATOM      8  C   PRO A   1     -24.396  -3.331 -11.251  1.00  0.00     0.171 C 
ATOM      9  O   PRO A   1     -25.238  -3.135 -10.382  1.00  0.00    -0.648 OA
BRANCH   8  10
ATOM     10  OXT PRO A   1     -24.161  -2.473 -12.255  1.00  0.00    -0.775 OA
ATOM     11  HXT PRO A   1     -24.814  -1.776 -12.466  1.00  0.00     0.167 HD
ENDBRANCH   8  10
ENDBRANCH   3   8
TORSDOF 2
ENDMDL
MODEL 3
REMARK VINA RESULT:      -4.8      2.371      3.139
REMARK  2 active torsions:
REMARK  status: ('A' for Active; 'I' for Inactive)
REMARK    1  A    between atoms: CA_3  and  C_6 
REMARK    2  A    between atoms: C_6  and  OXT_8 
ROOT
ATOM      1  CG  PRO A   1     -22.630  -4.616 -10.512  1.00  0.00     0.030 C 
ATOM      2  CB  PRO A   1     -22.269  -3.212 -10.970  1.00  0.00     0.045 C 
ATOM      3  CA  PRO A   1     -23.458  -2.790 -11.811  1.00  0.00     0.282 C 
ATOM      4  N   PRO A   1     -24.631  -3.416 -11.060  1.00  0.00    -0.061 N 
ATOM      5  CD  PRO A   1     -24.127  -4.574 -10.255  1.00  0.00     0.233 C 
ATOM      6  H1  PRO A   1     -25.306  -3.753 -11.771  1.00  0.00     0.278 HD
ATOM      7  H2  PRO A   1     -25.122  -2.730 -10.473  1.00  0.00     0.278 HD
ENDROOT
BRANCH   3   8
ATOM      8  C   PRO A   1     -23.432  -3.334 -13.243  1.00  0.00     0.171 C 
ATOM      9  O   PRO A   1     -24.448  -3.817 -13.731  1.00  0.00    -0.648 OA
BRANCH   8  10
ATOM     10  OXT PRO A   1     -22.273  -3.228 -13.910  1.00  0.00    -0.775 OA
ATOM     11  HXT PRO A   1     -21.771  -4.032 -14.148  1.00  0.00     0.167 HD
ENDBRANCH   8  10
ENDBRANCH   3   8
TORSDOF 2
ENDMDL
MODEL 4
REMARK VINA RESULT:      -4.8      3.042      3.937
REMARK  2 active torsions:
REMARK  status: ('A' for Active; 'I' for Inactive)
REMARK    1  A    between atoms: CA_3  and  C_6 
REMARK    2  A    between atoms: C_6  and  OXT_8 
ROOT
ATOM      1  CG  PRO A   1     -23.295  -2.626 -11.477  1.00  0.00     0.030 C 
ATOM      2  CB  PRO A   1     -24.225  -3.352 -12.436  1.00  0.00     0.045 C 
ATOM      3  CA  PRO A   1     -23.440  -3.402 -13.732  1.00  0.00     0.282 C 
ATOM      4  N   PRO A   1     -22.009  -3.613 -13.242  1.00  0.00    -0.061 N 
ATOM      5  CD  PRO A   1     -21.902  -3.115 -11.834  1.00  0.00     0.233 C 
ATOM      6  H1  PRO A   1     -21.388  -3.056 -13.858  1.00  0.00     0.278 HD
ATOM      7  H2  PRO A   1     -21.716  -4.595 -13.321  1.00  0.00     0.278 HD
ENDROOT
BRANCH   3   8
ATOM      8  C   PRO A   1     -23.503  -2.106 -14.548  1.00  0.00     0.171 C 
ATOM      9  O   PRO A   1     -22.717  -1.927 -15.471  1.00  0.00    -0.648 OA
BRANCH   8  10
ATOM     10  OXT PRO A   1     -24.458  -1.225 -14.212  1.00  0.00    -0.775 OA
ATOM     11  HXT PRO A   1     -25.167  -1.485 -13.592  1.00  0.00     0.167 HD
ENDBRANCH   8  10
ENDBRANCH   3   8
TORSDOF 2
ENDMDL
MODEL 5
REMARK VINA RESULT:      -4.4      2.290      2.928
REMARK  2 active torsions:
REMARK  status: ('A' for Active; 'I' for Inactive)
REMARK    1  A    between atoms: CA_3  and  C_6 
REMARK    2  A    between atoms: C_6  and  OXT_8 
ROOT
ATOM      1  CG  PRO A   1     -21.371  -5.071  -8.569  1.00  0.00     0.030 C 
ATOM      2  CB  PRO A   1     -21.434  -4.178  -9.798  1.00  0.00     0.045 C 
ATOM      3  CA  PRO A   1     -22.845  -3.621  -9.767  1.00  0.00     0.282 C 
ATOM      4  N   PRO A   1     -23.089  -3.427  -8.272  1.00  0.00    -0.061 N 
ATOM      5  CD  PRO A   1     -22.183  -4.343  -7.511  1.00  0.00     0.233 C 
ATOM      6  H1  PRO A   1     -24.078  -3.680  -8.087  1.00  0.00     0.278 HD
ATOM      7  H2  PRO A   1     -22.966  -2.447  -7.987  1.00  0.00     0.278 HD
ENDROOT
BRANCH   3   8
ATOM      8  C   PRO A   1     -23.903  -4.577 -10.327  1.00  0.00     0.171 C 
ATOM      9  O   PRO A   1     -23.666  -5.223 -11.342  1.00  0.00    -0.648 OA
BRANCH   8  10
ATOM     10  OXT PRO A   1     -25.053  -4.674  -9.644  1.00  0.00    -0.775 OA
ATOM     11  HXT PRO A   1     -25.751  -4.000  -9.762  1.00  0.00     0.167 HD
ENDBRANCH   8  10
ENDBRANCH   3   8
TORSDOF 2
ENDMDL
MODEL 6
REMARK VINA RESULT:      -4.1     17.467     18.297
REMARK  2 active torsions:
REMARK  status: ('A' for Active; 'I' for Inactive)
REMARK    1  A    between atoms: CA_3  and  C_6 
REMARK    2  A    between atoms: C_6  and  OXT_8 
ROOT
ATOM      1  CG  PRO A   1     -11.156   3.279 -20.540  1.00  0.00     0.030 C 
ATOM      2  CB  PRO A   1     -11.759   4.238 -19.526  1.00  0.00     0.045 C 
ATOM      3  CA  PRO A   1     -11.155   5.580 -19.895  1.00  0.00     0.282 C 
ATOM      4  N   PRO A   1     -11.099   5.508 -21.419  1.00  0.00    -0.061 N 
ATOM      5  CD  PRO A   1     -11.082   4.069 -21.835  1.00  0.00     0.233 C 
ATOM      6  H1  PRO A   1     -10.219   5.968 -21.717  1.00  0.00     0.278 HD
ATOM      7  H2  PRO A   1     -11.876   6.021 -21.857  1.00  0.00     0.278 HD
ENDROOT
BRANCH   3   8
ATOM      8  C   PRO A   1      -9.738   5.794 -19.352  1.00  0.00     0.171 C 
ATOM      9  O   PRO A   1      -8.824   6.067 -20.123  1.00  0.00    -0.648 OA
BRANCH   8  10
ATOM     10  OXT PRO A   1      -9.576   5.692 -18.024  1.00  0.00    -0.775 OA
ATOM     11  HXT PRO A   1      -8.701   5.459 -17.655  1.00  0.00     0.167 HD
ENDBRANCH   8  10
ENDBRANCH   3   8
TORSDOF 2
ENDMDL
MODEL 7
REMARK VINA RESULT:      -4.1      2.709      3.360
REMARK  2 active torsions:
REMARK  status: ('A' for Active; 'I' for Inactive)
REMARK    1  A    between atoms: CA_3  and  C_6 
REMARK    2  A    between atoms: C_6  and  OXT_8 
ROOT
ATOM      1  CG  PRO A   1     -23.574  -5.082 -10.927  1.00  0.00     0.030 C 
ATOM      2  CB  PRO A   1     -22.991  -4.368  -9.717  1.00  0.00     0.045 C 
ATOM      3  CA  PRO A   1     -21.984  -3.406 -10.317  1.00  0.00     0.282 C 
ATOM      4  N   PRO A   1     -22.677  -2.966 -11.605  1.00  0.00    -0.061 N 
ATOM      5  CD  PRO A   1     -23.664  -4.017 -12.007  1.00  0.00     0.233 C 
ATOM      6  H1  PRO A   1     -21.944  -2.879 -12.334  1.00  0.00     0.278 HD
ATOM      7  H2  PRO A   1     -23.121  -2.044 -11.507  1.00  0.00     0.278 HD
ENDROOT
BRANCH   3   8
ATOM      8  C   PRO A   1     -20.640  -4.050 -10.667  1.00  0.00     0.171 C 
ATOM      9  O   PRO A   1     -20.121  -4.843  -9.888  1.00  0.00    -0.648 OA
BRANCH   8  10
ATOM     10  OXT PRO A   1     -20.099  -3.721 -11.850  1.00  0.00    -0.775 OA
ATOM     11  HXT PRO A   1     -20.566  -3.943 -12.679  1.00  0.00     0.167 HD
ENDBRANCH   8  10
ENDBRANCH   3   8
TORSDOF 2
ENDMDL
MODEL 8
REMARK VINA RESULT:      -4.0      3.412      4.161
REMARK  2 active torsions:
REMARK  status: ('A' for Active; 'I' for Inactive)
REMARK    1  A    between atoms: CA_3  and  C_6 
REMARK    2  A    between atoms: C_6  and  OXT_8 
ROOT
ATOM      1  CG  PRO A   1     -20.087  -5.491  -7.971  1.00  0.00     0.030 C 
ATOM      2  CB  PRO A   1     -20.176  -3.979  -7.840  1.00  0.00     0.045 C 
ATOM      3  CA  PRO A   1     -21.599  -3.740  -7.372  1.00  0.00     0.282 C 
ATOM      4  N   PRO A   1     -21.841  -4.926  -6.440  1.00  0.00    -0.061 N 
ATOM      5  CD  PRO A   1     -20.910  -6.036  -6.817  1.00  0.00     0.233 C 
ATOM      6  H1  PRO A   1     -22.823  -5.230  -6.579  1.00  0.00     0.278 HD
ATOM      7  H2  PRO A   1     -21.740  -4.663  -5.451  1.00  0.00     0.278 HD
ENDROOT
BRANCH   3   8
ATOM      8  C   PRO A   1     -22.637  -3.769  -8.498  1.00  0.00     0.171 C 
ATOM      9  O   PRO A   1     -22.287  -3.576  -9.657  1.00  0.00    -0.648 OA
BRANCH   8  10
ATOM     10  OXT PRO A   1     -23.904  -4.036  -8.148  1.00  0.00    -0.775 OA
ATOM     11  HXT PRO A   1     -24.195  -3.902  -7.224  1.00  0.00     0.167 HD
ENDBRANCH   8  10
ENDBRANCH   3   8
TORSDOF 2
ENDMDL
MODEL 9
REMARK VINA RESULT:      -4.0      2.504      3.107
REMARK  2 active torsions:
REMARK  status: ('A' for Active; 'I' for Inactive)
REMARK    1  A    between atoms: CA_3  and  C_6 
REMARK    2  A    between atoms: C_6  and  OXT_8 
ROOT
ATOM      1  CG  PRO A   1     -24.166  -3.284 -11.099  1.00  0.00     0.030 C 
ATOM      2  CB  PRO A   1     -23.460  -4.630 -11.097  1.00  0.00     0.045 C 
ATOM      3  CA  PRO A   1     -23.032  -4.812  -9.653  1.00  0.00     0.282 C 
ATOM      4  N   PRO A   1     -24.201  -4.199  -8.884  1.00  0.00    -0.061 N 
ATOM      5  CD  PRO A   1     -24.910  -3.227  -9.775  1.00  0.00     0.233 C 
ATOM      6  H1  PRO A   1     -23.804  -3.699  -8.067  1.00  0.00     0.278 HD
ATOM      7  H2  PRO A   1     -24.841  -4.918  -8.521  1.00  0.00     0.278 HD
ENDROOT
BRANCH   3   8
ATOM      8  C   PRO A   1     -21.747  -4.064  -9.287  1.00  0.00     0.171 C 
ATOM      9  O   PRO A   1     -21.592  -3.636  -8.148  1.00  0.00    -0.648 OA
BRANCH   8  10
ATOM     10  OXT PRO A   1     -20.824  -3.935 -10.253  1.00  0.00    -0.775 OA
ATOM     11  HXT PRO A   1     -20.168  -4.644 -10.400  1.00  0.00     0.167 HD
ENDBRANCH   8  10
ENDBRANCH   3   8
TORSDOF 2
ENDMDL
