MODEL 1
REMARK VINA RESULT:      -4.2      0.000      0.000
REMARK  3 active torsions:
REMARK  status: ('A' for Active; 'I' for Inactive)
REMARK    1  A    between atoms: CA_2  and  C_3 
REMARK    2  A    between atoms: CA_2  and  N_6 
REMARK    3  A    between atoms: C_3  and  OXT_5 
ROOT
ATOM      1  CB  ALA A   1     -21.861  -2.943 -11.467  1.00  0.00     0.054 C 
ATOM      2  CA  ALA A   1     -22.860  -3.521 -12.461  1.00  0.00     0.310 C 
ENDROOT
BRANCH   2   3
ATOM      3  C   ALA A   1     -24.280  -2.985 -12.202  1.00  0.00     0.173 C 
ATOM      4  O   ALA A   1     -24.915  -3.192 -11.176  1.00  0.00    -0.648 OA
BRANCH   3   5
ATOM      5  OXT ALA A   1     -24.769  -2.217 -13.201  1.00  0.00    -0.775 OA
ATOM      6  HXT ALA A   1     -24.203  -2.179 -13.996  1.00  0.00     0.167 HD
ENDBRANCH   3   5
ENDBRANCH   2   3
BRANCH   2   7
ATOM      7  N   ALA A   1     -22.424  -3.175 -13.830  1.00  0.00     0.092 N 
ATOM      8  H1  ALA A   1     -23.255  -3.118 -14.424  1.00  0.00     0.313 HD
ATOM      9  H2  ALA A   1     -21.920  -3.980 -14.213  1.00  0.00     0.313 HD
ENDBRANCH   2   7
TORSDOF 3
ENDMDL
MODEL 2
REMARK VINA RESULT:      -4.1      1.930      2.554
REMARK  3 active torsions:
REMARK  status: ('A' for Active; 'I' for Inactive)
REMARK    1  A    between atoms: CA_2  and  C_3 
REMARK    2  A    between atoms: CA_2  and  N_6 
REMARK    3  A    between atoms: C_3  and  OXT_5 
ROOT
ATOM      1  CB  ALA A   1     -24.114  -2.953 -12.053  1.00  0.00     0.054 C 
ATOM      2  CA  ALA A   1     -23.276  -3.393 -13.246  1.00  0.00     0.310 C 
ENDROOT
BRANCH   2   3
ATOM      3  C   ALA A   1     -23.364  -2.373 -14.397  1.00  0.00     0.173 C 
ATOM      4  O   ALA A   1     -22.668  -2.412 -15.403  1.00  0.00    -0.648 OA
BRANCH   3   5
ATOM      5  OXT ALA A   1     -24.319  -1.432 -14.225  1.00  0.00    -0.775 OA
ATOM      6  HXT ALA A   1     -24.926  -1.602 -13.480  1.00  0.00     0.167 HD
ENDBRANCH   3   5
ENDBRANCH   2   3
BRANCH   2   7
ATOM      7  N   ALA A   1     -21.873  -3.553 -12.810  1.00  0.00     0.092 N 
ATOM      8  H1  ALA A   1     -21.299  -2.885 -13.333  1.00  0.00     0.313 HD
ATOM      9  H2  ALA A   1     -21.539  -4.460 -13.149  1.00  0.00     0.313 HD
ENDBRANCH   2   7
TORSDOF 3
ENDMDL
MODEL 3
REMARK VINA RESULT:      -4.1      3.036      3.402
REMARK  3 active torsions:
REMARK  status: ('A' for Active; 'I' for Inactive)
REMARK    1  A    between atoms: CA_2  and  C_3 
REMARK    2  A    between atoms: CA_2  and  N_6 
REMARK    3  A    between atoms: C_3  and  OXT_5 
ROOT
ATOM      1  CB  ALA A   1     -22.570  -4.434 -10.094  1.00  0.00     0.054 C 
ATOM      2  CA  ALA A   1     -23.559  -3.484  -9.430  1.00  0.00     0.310 C 
ENDROOT
BRANCH   2   3
ATOM      3  C   ALA A   1     -24.807  -3.274 -10.307  1.00  0.00     0.173 C 
ATOM      4  O   ALA A   1     -24.781  -3.192 -11.529  1.00  0.00    -0.648 OA
BRANCH   3   5
ATOM      5  OXT ALA A   1     -25.966  -3.226  -9.612  1.00  0.00    -0.775 OA
ATOM      6  HXT ALA A   1     -26.514  -4.031  -9.682  1.00  0.00     0.167 HD
ENDBRANCH   3   5
ENDBRANCH   2   3
BRANCH   2   7
ATOM      7  N   ALA A   1     -23.944  -4.040  -8.115  1.00  0.00     0.092 N 
ATOM      8  H1  ALA A   1     -24.400  -3.297  -7.578  1.00  0.00     0.313 HD
ATOM      9  H2  ALA A   1     -23.086  -4.215  -7.585  1.00  0.00     0.313 HD
ENDBRANCH   2   7
TORSDOF 3
ENDMDL
MODEL 4
REMARK VINA RESULT:      -3.9      2.202      2.750
REMARK  3 active torsions:
REMARK  status: ('A' for Active; 'I' for Inactive)
REMARK    1  A    between atoms: CA_2  and  C_3 
REMARK    2  A    between atoms: CA_2  and  N_6 
REMARK    3  A    between atoms: C_3  and  OXT_5 
ROOT
ATOM      1  CB  ALA A   1     -22.140  -3.728 -10.248  1.00  0.00     0.054 C 
ATOM      2  CA  ALA A   1     -23.562  -3.800 -10.790  1.00  0.00     0.310 C 
ENDROOT
BRANCH   2   3
ATOM      3  C   ALA A   1     -24.595  -3.499  -9.689  1.00  0.00     0.173 C 
ATOM      4  O   ALA A   1     -25.738  -3.118  -9.906  1.00  0.00    -0.648 OA
BRANCH   3   5
ATOM      5  OXT ALA A   1     -24.146  -3.731  -8.435  1.00  0.00    -0.775 OA
ATOM      6  HXT ALA A   1     -23.327  -3.252  -8.203  1.00  0.00     0.167 HD
ENDBRANCH   3   5
ENDBRANCH   2   3
BRANCH   2   7
ATOM      7  N   ALA A   1     -23.698  -2.832 -11.899  1.00  0.00     0.092 N 
ATOM      8  H1  ALA A   1     -22.928  -2.161 -11.832  1.00  0.00     0.313 HD
ATOM      9  H2  ALA A   1     -24.524  -2.256 -11.713  1.00  0.00     0.313 HD
ENDBRANCH   2   7
TORSDOF 3
ENDMDL
MODEL 5
REMARK VINA RESULT:      -3.9      1.275      1.949
REMARK  3 active torsions:
REMARK  status: ('A' for Active; 'I' for Inactive)
REMARK    1  A    between atoms: CA_2  and  C_3 
REMARK    2  A    between atoms: CA_2  and  N_6 
REMARK    3  A    between atoms: C_3  and  OXT_5 
ROOT
ATOM      1  CB  ALA A   1     -22.996  -2.671 -14.528  1.00  0.00     0.054 C 
ATOM      2  CA  ALA A   1     -22.884  -2.737 -13.010  1.00  0.00     0.310 C 
ENDROOT
BRANCH   2   3
ATOM      3  C   ALA A   1     -24.261  -2.962 -12.358  1.00  0.00     0.173 C 
ATOM      4  O   ALA A   1     -25.293  -3.160 -12.985  1.00  0.00    -0.648 OA
BRANCH   3   5
ATOM      5  OXT ALA A   1     -24.235  -2.963 -11.006  1.00  0.00    -0.775 OA
ATOM      6  HXT ALA A   1     -24.983  -3.430 -10.587  1.00  0.00     0.167 HD
ENDBRANCH   3   5
ENDBRANCH   2   3
BRANCH   2   7
ATOM      7  N   ALA A   1     -21.960  -3.833 -12.648  1.00  0.00     0.092 N 
ATOM      8  H1  ALA A   1     -21.254  -3.456 -12.009  1.00  0.00     0.313 HD
ATOM      9  H2  ALA A   1     -21.414  -4.071 -13.481  1.00  0.00     0.313 HD
ENDBRANCH   2   7
TORSDOF 3
ENDMDL
MODEL 6
REMARK VINA RESULT:      -3.9      2.053      2.377
REMARK  3 active torsions:
REMARK  status: ('A' for Active; 'I' for Inactive)
REMARK    1  A    between atoms: CA_2  and  C_3 
REMARK    2  A    between atoms: CA_2  and  N_6 
REMARK    3  A    between atoms: C_3  and  OXT_5 
ROOT
ATOM      1  CB  ALA A   1     -22.314  -3.898 -11.738  1.00  0.00     0.054 C 
ATOM      2  CA  ALA A   1     -23.339  -2.831 -12.100  1.00  0.00     0.310 C 
ENDROOT
BRANCH   2   3
ATOM      3  C   ALA A   1     -23.390  -2.597 -13.621  1.00  0.00     0.173 C 
ATOM      4  O   ALA A   1     -24.262  -1.951 -14.188  1.00  0.00    -0.648 OA
BRANCH   3   5
ATOM      5  OXT ALA A   1     -22.351  -3.140 -14.296  1.00  0.00    -0.775 OA
ATOM      6  HXT ALA A   1     -21.593  -3.393 -13.736  1.00  0.00     0.167 HD
ENDBRANCH   3   5
ENDBRANCH   2   3
BRANCH   2   7
ATOM      7  N   ALA A   1     -24.665  -3.256 -11.603  1.00  0.00     0.092 N 
ATOM      8  H1  ALA A   1     -25.003  -2.544 -10.949  1.00  0.00     0.313 HD
ATOM      9  H2  ALA A   1     -24.527  -4.074 -11.001  1.00  0.00     0.313 HD
ENDBRANCH   2   7
TORSDOF 3
ENDMDL
MODEL 7
REMARK VINA RESULT:      -3.8     12.783     13.370
REMARK  3 active torsions:
REMARK  status: ('A' for Active; 'I' for Inactive)
REMARK    1  A    between atoms: CA_2  and  C_3 
REMARK    2  A    between atoms: CA_2  and  N_6 
REMARK    3  A    between atoms: C_3  and  OXT_5 
ROOT
ATOM      1  CB  ALA A   1     -34.993   0.727 -14.315  1.00  0.00     0.054 C 
ATOM      2  CA  ALA A   1     -36.076   0.545 -15.371  1.00  0.00     0.310 C 
ENDROOT
BRANCH   2   3
ATOM      3  C   ALA A   1     -35.852  -0.743 -16.186  1.00  0.00     0.173 C 
ATOM      4  O   ALA A   1     -35.238  -1.718 -15.772  1.00  0.00    -0.648 OA
BRANCH   3   5
ATOM      5  OXT ALA A   1     -36.432  -0.729 -17.407  1.00  0.00    -0.775 OA
ATOM      6  HXT ALA A   1     -37.012  -1.493 -17.588  1.00  0.00     0.167 HD
ENDBRANCH   3   5
ENDBRANCH   2   3
BRANCH   2   7
ATOM      7  N   ALA A   1     -37.393   0.504 -14.700  1.00  0.00     0.092 N 
ATOM      8  H1  ALA A   1     -38.055   1.041 -15.266  1.00  0.00     0.313 HD
ATOM      9  H2  ALA A   1     -37.324   1.054 -13.839  1.00  0.00     0.313 HD
ENDBRANCH   2   7
TORSDOF 3
ENDMDL
MODEL 8
REMARK VINA RESULT:      -3.8     10.519     10.944
REMARK  3 active torsions:
REMARK  status: ('A' for Active; 'I' for Inactive)
REMARK    1  A    between atoms: CA_2  and  C_3 
REMARK    2  A    between atoms: CA_2  and  N_6 
REMARK    3  A    between atoms: C_3  and  OXT_5 
ROOT
ATOM      1  CB  ALA A   1     -33.869  -4.142 -10.554  1.00  0.00     0.054 C 
ATOM      2  CA  ALA A   1     -33.577  -2.941 -11.443  1.00  0.00     0.310 C 
ENDROOT
BRANCH   2   3
ATOM      3  C   ALA A   1     -34.701  -2.722 -12.474  1.00  0.00     0.173 C 
ATOM      4  O   ALA A   1     -35.777  -2.198 -12.216  1.00  0.00    -0.648 OA
BRANCH   3   5
ATOM      5  OXT ALA A   1     -34.385  -3.127 -13.725  1.00  0.00    -0.775 OA
ATOM      6  HXT ALA A   1     -35.154  -3.354 -14.283  1.00  0.00     0.167 HD
ENDBRANCH   3   5
ENDBRANCH   2   3
BRANCH   2   7
ATOM      7  N   ALA A   1     -33.425  -1.743 -10.591  1.00  0.00     0.092 N 
ATOM      8  H1  ALA A   1     -33.176  -2.054  -9.647  1.00  0.00     0.313 HD
ATOM      9  H2  ALA A   1     -34.353  -1.330 -10.459  1.00  0.00     0.313 HD
ENDBRANCH   2   7
TORSDOF 3
ENDMDL
MODEL 9
REMARK VINA RESULT:      -3.6     10.324     10.933
REMARK  3 active torsions:
REMARK  status: ('A' for Active; 'I' for Inactive)
REMARK    1  A    between atoms: CA_2  and  C_3 
REMARK    2  A    between atoms: CA_2  and  N_6 
REMARK    3  A    between atoms: C_3  and  OXT_5 
ROOT
ATOM      1  CB  ALA A   1     -32.415  -4.322 -12.037  1.00  0.00     0.054 C 
ATOM      2  CA  ALA A   1     -33.521  -4.974 -11.218  1.00  0.00     0.310 C 
ENDROOT
BRANCH   2   3
ATOM      3  C   ALA A   1     -34.905  -4.721 -11.846  1.00  0.00     0.173 C 
ATOM      4  O   ALA A   1     -35.739  -3.954 -11.381  1.00  0.00    -0.648 OA
BRANCH   3   5
ATOM      5  OXT ALA A   1     -35.118  -5.396 -12.998  1.00  0.00    -0.775 OA
ATOM      6  HXT ALA A   1     -35.625  -6.224 -12.894  1.00  0.00     0.167 HD
ENDBRANCH   3   5
ENDBRANCH   2   3
BRANCH   2   7
ATOM      7  N   ALA A   1     -33.256  -6.426 -11.131  1.00  0.00     0.092 N 
ATOM      8  H1  ALA A   1     -32.925  -6.744 -12.046  1.00  0.00     0.313 HD
ATOM      9  H2  ALA A   1     -34.156  -6.904 -11.031  1.00  0.00     0.313 HD
ENDBRANCH   2   7
TORSDOF 3
ENDMDL
