MODEL 1
REMARK VINA RESULT:      -7.5      0.000      0.000
REMARK  22 active torsions:
REMARK  status: ('A' for Active; 'I' for Inactive)
REMARK    1  A    between atoms: C_2  and  C_3 
REMARK    2  A    between atoms: C_3  and  C_4 
REMARK    3  A    between atoms: C_4  and  C_5 
REMARK    4  A    between atoms: C_5  and  C_6 
REMARK    5  A    between atoms: C_6  and  C_7 
REMARK    6  A    between atoms: C_7  and  C_8 
REMARK    7  A    between atoms: C_8  and  C_9 
REMARK    8  A    between atoms: C_9  and  C_10 
REMARK    9  A    between atoms: C_10  and  C_11 
REMARK   10  A    between atoms: C_11  and  C_12 
REMARK   11  A    between atoms: C_12  and  O_14 
REMARK   12  A    between atoms: O_14  and  C_15 
REMARK   13  A    between atoms: C_15  and  C_16 
REMARK   14  A    between atoms: C_16  and  C_17 
REMARK   15  A    between atoms: C_16  and  O_25 
REMARK   16  A    between atoms: C_17  and  C_18 
REMARK   17  A    between atoms: C_17  and  O_24 
REMARK   18  A    between atoms: C_18  and  C_19 
REMARK   19  A    between atoms: C_18  and  O_23 
REMARK   20  A    between atoms: C_19  and  C_20 
REMARK   21  A    between atoms: C_19  and  O_22 
REMARK   22  A    between atoms: C_20  and  O_21 
ROOT
HETATM    1  C   UNL     1     -23.013  -4.821  -9.728  1.00  0.00     0.213 C 
ENDROOT
BRANCH   1   2
HETATM    2  O   UNL     1     -22.431  -3.699  -9.057  1.00  0.00    -0.319 OA
BRANCH   2   3
HETATM    3  C   UNL     1     -21.180  -3.902  -8.614  1.00  0.00     0.258 C 
HETATM    4  O   UNL     1     -20.204  -4.167  -9.329  1.00  0.00    -0.265 OA
BRANCH   3   5
HETATM    5  C   UNL     1     -21.113  -3.676  -7.125  1.00  0.00     0.111 C 
BRANCH   5   6
HETATM    6  C   UNL     1     -20.464  -4.880  -6.451  1.00  0.00     0.010 C 
BRANCH   6   7
HETATM    7  C   UNL     1     -21.294  -6.144  -6.600  1.00  0.00     0.000 C 
BRANCH   7   8
HETATM    8  C   UNL     1     -22.048  -6.426  -5.305  1.00  0.00     0.000 C 
BRANCH   8   9
HETATM    9  C   UNL     1     -21.690  -7.806  -4.778  1.00  0.00     0.000 C 
BRANCH   9  10
HETATM   10  C   UNL     1     -21.245  -7.718  -3.327  1.00  0.00     0.000 C 
BRANCH  10  11
HETATM   11  C   UNL     1     -21.415  -6.299  -2.814  1.00  0.00     0.000 C 
BRANCH  11  12
HETATM   12  C   UNL     1     -22.245  -6.302  -1.541  1.00  0.00     0.000 C 
BRANCH  12  13
HETATM   13  C   UNL     1     -21.866  -7.491  -0.674  1.00  0.00    -0.000 C 
BRANCH  13  14
HETATM   14  C   UNL     1     -23.066  -7.971   0.128  1.00  0.00    -0.005 C 
HETATM   15  C   UNL     1     -23.192  -9.479   0.036  1.00  0.00     0.005 C 
ENDBRANCH  13  14
ENDBRANCH  12  13
ENDBRANCH  11  12
ENDBRANCH  10  11
ENDBRANCH   9  10
ENDBRANCH   8   9
ENDBRANCH   7   8
ENDBRANCH   6   7
ENDBRANCH   5   6
ENDBRANCH   3   5
ENDBRANCH   2   3
ENDBRANCH   1   2
BRANCH   1  16
HETATM   16  C   UNL     1     -23.292  -4.579 -11.204  1.00  0.00     0.173 C 
BRANCH  16  17
HETATM   17  C   UNL     1     -24.047  -3.246 -11.433  1.00  0.00     0.180 C 
BRANCH  17  18
HETATM   18  C   UNL     1     -24.544  -3.093 -12.888  1.00  0.00     0.180 C 
BRANCH  18  19
HETATM   19  C   UNL     1     -23.816  -1.943 -13.635  1.00  0.00     0.173 C 
BRANCH  19  20
HETATM   20  C   UNL     1     -22.864  -2.502 -14.694  1.00  0.00     0.198 C 
BRANCH  20  21
HETATM   21  O   UNL     1     -22.709  -1.617 -15.803  1.00  0.00    -0.398 OA
HETATM   22  H   UNL     1     -23.023  -2.092 -16.594  1.00  0.00     0.209 HD
ENDBRANCH  20  21
ENDBRANCH  19  20
BRANCH  19  23
HETATM   23  O   UNL     1     -24.715  -1.047 -14.296  1.00  0.00    -0.391 OA
HETATM   24  H   UNL     1     -24.835  -0.266 -13.730  1.00  0.00     0.210 HD
ENDBRANCH  19  23
ENDBRANCH  18  19
BRANCH  18  25
HETATM   25  O   UNL     1     -24.365  -4.316 -13.604  1.00  0.00    -0.390 OA
HETATM   26  H   UNL     1     -25.174  -4.843 -13.490  1.00  0.00     0.210 HD
ENDBRANCH  18  25
ENDBRANCH  17  18
BRANCH  17  27
HETATM   27  O   UNL     1     -25.147  -3.136 -10.533  1.00  0.00    -0.390 OA
HETATM   28  H   UNL     1     -24.877  -3.490  -9.670  1.00  0.00     0.210 HD
ENDBRANCH  17  27
ENDBRANCH  16  17
BRANCH  16  29
HETATM   29  O   UNL     1     -22.037  -4.651 -11.895  1.00  0.00    -0.391 OA
HETATM   30  H   UNL     1     -21.655  -5.540 -11.787  1.00  0.00     0.210 HD
ENDBRANCH  16  29
ENDBRANCH   1  16
TORSDOF 22
ENDMDL
MODEL 2
REMARK VINA RESULT:      -7.3      1.286      1.840
REMARK  22 active torsions:
REMARK  status: ('A' for Active; 'I' for Inactive)
REMARK    1  A    between atoms: C_2  and  C_3 
REMARK    2  A    between atoms: C_3  and  C_4 
REMARK    3  A    between atoms: C_4  and  C_5 
REMARK    4  A    between atoms: C_5  and  C_6 
REMARK    5  A    between atoms: C_6  and  C_7 
REMARK    6  A    between atoms: C_7  and  C_8 
REMARK    7  A    between atoms: C_8  and  C_9 
REMARK    8  A    between atoms: C_9  and  C_10 
REMARK    9  A    between atoms: C_10  and  C_11 
REMARK   10  A    between atoms: C_11  and  C_12 
REMARK   11  A    between atoms: C_12  and  O_14 
REMARK   12  A    between atoms: O_14  and  C_15 
REMARK   13  A    between atoms: C_15  and  C_16 
REMARK   14  A    between atoms: C_16  and  C_17 
REMARK   15  A    between atoms: C_16  and  O_25 
REMARK   16  A    between atoms: C_17  and  C_18 
REMARK   17  A    between atoms: C_17  and  O_24 
REMARK   18  A    between atoms: C_18  and  C_19 
REMARK   19  A    between atoms: C_18  and  O_23 
REMARK   20  A    between atoms: C_19  and  C_20 
REMARK   21  A    between atoms: C_19  and  O_22 
REMARK   22  A    between atoms: C_20  and  O_21 
ROOT
HETATM    1  C   UNL     1     -21.878  -4.429  -9.937  1.00  0.00     0.213 C 
ENDROOT
BRANCH   1   2
HETATM    2  O   UNL     1     -21.899  -3.770  -8.667  1.00  0.00    -0.319 OA
BRANCH   2   3
HETATM    3  C   UNL     1     -22.100  -4.584  -7.619  1.00  0.00     0.258 C 
HETATM    4  O   UNL     1     -23.076  -4.540  -6.858  1.00  0.00    -0.265 OA
BRANCH   3   5
HETATM    5  C   UNL     1     -21.007  -5.620  -7.549  1.00  0.00     0.111 C 
BRANCH   5   6
HETATM    6  C   UNL     1     -20.335  -5.567  -6.181  1.00  0.00     0.010 C 
BRANCH   6   7
HETATM    7  C   UNL     1     -20.246  -6.934  -5.527  1.00  0.00     0.000 C 
BRANCH   7   8
HETATM    8  C   UNL     1     -21.635  -7.401  -5.107  1.00  0.00     0.000 C 
BRANCH   8   9
HETATM    9  C   UNL     1     -21.535  -8.367  -3.937  1.00  0.00     0.000 C 
BRANCH   9  10
HETATM   10  C   UNL     1     -20.974  -7.660  -2.715  1.00  0.00     0.000 C 
BRANCH  10  11
HETATM   11  C   UNL     1     -21.861  -6.486  -2.338  1.00  0.00     0.000 C 
BRANCH  11  12
HETATM   12  C   UNL     1     -22.339  -6.636  -0.903  1.00  0.00     0.000 C 
BRANCH  12  13
HETATM   13  C   UNL     1     -21.969  -8.010  -0.369  1.00  0.00    -0.000 C 
BRANCH  13  14
HETATM   14  C   UNL     1     -23.192  -8.704   0.212  1.00  0.00    -0.005 C 
HETATM   15  C   UNL     1     -23.273 -10.133  -0.288  1.00  0.00     0.005 C 
ENDBRANCH  13  14
ENDBRANCH  12  13
ENDBRANCH  11  12
ENDBRANCH  10  11
ENDBRANCH   9  10
ENDBRANCH   8   9
ENDBRANCH   7   8
ENDBRANCH   6   7
ENDBRANCH   5   6
ENDBRANCH   3   5
ENDBRANCH   2   3
ENDBRANCH   1   2
BRANCH   1  16
HETATM   16  C   UNL     1     -23.028  -4.037 -10.853  1.00  0.00     0.173 C 
BRANCH  16  17
HETATM   17  C   UNL     1     -22.518  -3.501 -12.215  1.00  0.00     0.180 C 
BRANCH  17  18
HETATM   18  C   UNL     1     -23.489  -2.480 -12.847  1.00  0.00     0.180 C 
BRANCH  18  19
HETATM   19  C   UNL     1     -23.507  -2.571 -14.396  1.00  0.00     0.173 C 
BRANCH  19  20
HETATM   20  C   UNL     1     -23.705  -1.188 -15.018  1.00  0.00     0.198 C 
BRANCH  20  21
HETATM   21  O   UNL     1     -24.928  -0.579 -14.603  1.00  0.00    -0.398 OA
HETATM   22  H   UNL     1     -25.628  -1.253 -14.692  1.00  0.00     0.209 HD
ENDBRANCH  20  21
ENDBRANCH  19  20
BRANCH  19  23
HETATM   23  O   UNL     1     -22.301  -3.117 -14.940  1.00  0.00    -0.391 OA
HETATM   24  H   UNL     1     -21.745  -3.418 -14.200  1.00  0.00     0.210 HD
ENDBRANCH  19  23
ENDBRANCH  18  19
BRANCH  18  25
HETATM   25  O   UNL     1     -24.811  -2.674 -12.341  1.00  0.00    -0.390 OA
HETATM   26  H   UNL     1     -25.128  -3.533 -12.669  1.00  0.00     0.210 HD
ENDBRANCH  18  25
ENDBRANCH  17  18
BRANCH  17  27
HETATM   27  O   UNL     1     -21.228  -2.915 -12.068  1.00  0.00    -0.390 OA
HETATM   28  H   UNL     1     -20.587  -3.450 -12.566  1.00  0.00     0.210 HD
ENDBRANCH  17  27
ENDBRANCH  16  17
BRANCH  16  29
HETATM   29  O   UNL     1     -23.890  -5.176 -10.973  1.00  0.00    -0.391 OA
HETATM   30  H   UNL     1     -23.420  -5.895 -11.433  1.00  0.00     0.210 HD
ENDBRANCH  16  29
ENDBRANCH   1  16
TORSDOF 22
ENDMDL
MODEL 3
REMARK VINA RESULT:      -7.0      1.494      3.240
REMARK  22 active torsions:
REMARK  status: ('A' for Active; 'I' for Inactive)
REMARK    1  A    between atoms: C_2  and  C_3 
REMARK    2  A    between atoms: C_3  and  C_4 
REMARK    3  A    between atoms: C_4  and  C_5 
REMARK    4  A    between atoms: C_5  and  C_6 
REMARK    5  A    between atoms: C_6  and  C_7 
REMARK    6  A    between atoms: C_7  and  C_8 
REMARK    7  A    between atoms: C_8  and  C_9 
REMARK    8  A    between atoms: C_9  and  C_10 
REMARK    9  A    between atoms: C_10  and  C_11 
REMARK   10  A    between atoms: C_11  and  C_12 
REMARK   11  A    between atoms: C_12  and  O_14 
REMARK   12  A    between atoms: O_14  and  C_15 
REMARK   13  A    between atoms: C_15  and  C_16 
REMARK   14  A    between atoms: C_16  and  C_17 
REMARK   15  A    between atoms: C_16  and  O_25 
REMARK   16  A    between atoms: C_17  and  C_18 
REMARK   17  A    between atoms: C_17  and  O_24 
REMARK   18  A    between atoms: C_18  and  C_19 
REMARK   19  A    between atoms: C_18  and  O_23 
REMARK   20  A    between atoms: C_19  and  C_20 
REMARK   21  A    between atoms: C_19  and  O_22 
REMARK   22  A    between atoms: C_20  and  O_21 
ROOT
HETATM    1  C   UNL     1     -21.584  -4.594  -8.193  1.00  0.00     0.213 C 
ENDROOT
BRANCH   1   2
HETATM    2  O   UNL     1     -21.679  -4.775  -6.778  1.00  0.00    -0.319 OA
BRANCH   2   3
HETATM    3  C   UNL     1     -21.315  -5.992  -6.345  1.00  0.00     0.258 C 
HETATM    4  O   UNL     1     -20.443  -6.702  -6.863  1.00  0.00    -0.265 OA
BRANCH   3   5
HETATM    5  C   UNL     1     -22.063  -6.339  -5.082  1.00  0.00     0.111 C 
BRANCH   5   6
HETATM    6  C   UNL     1     -21.514  -7.637  -4.500  1.00  0.00     0.010 C 
BRANCH   6   7
HETATM    7  C   UNL     1     -21.195  -7.518  -3.020  1.00  0.00     0.000 C 
BRANCH   7   8
HETATM    8  C   UNL     1     -22.218  -6.615  -2.339  1.00  0.00     0.000 C 
BRANCH   8   9
HETATM    9  C   UNL     1     -22.299  -6.935  -0.855  1.00  0.00     0.000 C 
BRANCH   9  10
HETATM   10  C   UNL     1     -21.200  -7.911  -0.466  1.00  0.00     0.000 C 
BRANCH  10  11
HETATM   11  C   UNL     1     -21.770  -9.015   0.409  1.00  0.00     0.000 C 
BRANCH  11  12
HETATM   12  C   UNL     1     -23.195  -9.330  -0.013  1.00  0.00     0.000 C 
BRANCH  12  13
HETATM   13  C   UNL     1     -23.405 -10.834  -0.064  1.00  0.00    -0.000 C 
BRANCH  13  14
HETATM   14  C   UNL     1     -23.942 -11.253  -1.425  1.00  0.00    -0.005 C 
HETATM   15  C   UNL     1     -22.867 -11.104  -2.483  1.00  0.00     0.005 C 
ENDBRANCH  13  14
ENDBRANCH  12  13
ENDBRANCH  11  12
ENDBRANCH  10  11
ENDBRANCH   9  10
ENDBRANCH   8   9
ENDBRANCH   7   8
ENDBRANCH   6   7
ENDBRANCH   5   6
ENDBRANCH   3   5
ENDBRANCH   2   3
ENDBRANCH   1   2
BRANCH   1  16
HETATM   16  C   UNL     1     -22.763  -3.847  -8.800  1.00  0.00     0.173 C 
BRANCH  16  17
HETATM   17  C   UNL     1     -23.007  -4.262 -10.272  1.00  0.00     0.180 C 
BRANCH  17  18
HETATM   18  C   UNL     1     -23.936  -3.276 -11.015  1.00  0.00     0.180 C 
BRANCH  18  19
HETATM   19  C   UNL     1     -24.160  -3.687 -12.495  1.00  0.00     0.173 C 
BRANCH  19  20
HETATM   20  C   UNL     1     -23.362  -2.782 -13.435  1.00  0.00     0.198 C 
BRANCH  20  21
HETATM   21  O   UNL     1     -23.362  -3.264 -14.779  1.00  0.00    -0.398 OA
HETATM   22  H   UNL     1     -23.297  -4.236 -14.734  1.00  0.00     0.209 HD
ENDBRANCH  20  21
ENDBRANCH  19  20
BRANCH  19  23
HETATM   23  O   UNL     1     -23.771  -5.037 -12.767  1.00  0.00    -0.391 OA
HETATM   24  H   UNL     1     -23.910  -5.560 -11.959  1.00  0.00     0.210 HD
ENDBRANCH  19  23
ENDBRANCH  18  19
BRANCH  18  25
HETATM   25  O   UNL     1     -25.196  -3.185 -10.349  1.00  0.00    -0.390 OA
HETATM   26  H   UNL     1     -25.091  -2.566  -9.606  1.00  0.00     0.210 HD
ENDBRANCH  18  25
ENDBRANCH  17  18
BRANCH  17  27
HETATM   27  O   UNL     1     -21.770  -4.379 -10.969  1.00  0.00    -0.390 OA
HETATM   28  H   UNL     1     -21.941  -4.783 -11.837  1.00  0.00     0.210 HD
ENDBRANCH  17  27
ENDBRANCH  16  17
BRANCH  16  29
HETATM   29  O   UNL     1     -23.895  -4.068  -7.948  1.00  0.00    -0.391 OA
HETATM   30  H   UNL     1     -24.479  -3.289  -7.971  1.00  0.00     0.210 HD
ENDBRANCH  16  29
ENDBRANCH   1  16
TORSDOF 22
ENDMDL
MODEL 4
REMARK VINA RESULT:      -6.8      1.616      3.219
REMARK  22 active torsions:
REMARK  status: ('A' for Active; 'I' for Inactive)
REMARK    1  A    between atoms: C_2  and  C_3 
REMARK    2  A    between atoms: C_3  and  C_4 
REMARK    3  A    between atoms: C_4  and  C_5 
REMARK    4  A    between atoms: C_5  and  C_6 
REMARK    5  A    between atoms: C_6  and  C_7 
REMARK    6  A    between atoms: C_7  and  C_8 
REMARK    7  A    between atoms: C_8  and  C_9 
REMARK    8  A    between atoms: C_9  and  C_10 
REMARK    9  A    between atoms: C_10  and  C_11 
REMARK   10  A    between atoms: C_11  and  C_12 
REMARK   11  A    between atoms: C_12  and  O_14 
REMARK   12  A    between atoms: O_14  and  C_15 
REMARK   13  A    between atoms: C_15  and  C_16 
REMARK   14  A    between atoms: C_16  and  C_17 
REMARK   15  A    between atoms: C_16  and  O_25 
REMARK   16  A    between atoms: C_17  and  C_18 
REMARK   17  A    between atoms: C_17  and  O_24 
REMARK   18  A    between atoms: C_18  and  C_19 
REMARK   19  A    between atoms: C_18  and  O_23 
REMARK   20  A    between atoms: C_19  and  C_20 
REMARK   21  A    between atoms: C_19  and  O_22 
REMARK   22  A    between atoms: C_20  and  O_21 
ROOT
HETATM    1  C   UNL     1     -21.495  -4.027  -7.904  1.00  0.00     0.213 C 
ENDROOT
BRANCH   1   2
HETATM    2  O   UNL     1     -22.227  -4.821  -6.966  1.00  0.00    -0.319 OA
BRANCH   2   3
HETATM    3  C   UNL     1     -21.492  -5.311  -5.956  1.00  0.00     0.258 C 
HETATM    4  O   UNL     1     -20.368  -4.906  -5.629  1.00  0.00    -0.265 OA
BRANCH   3   5
HETATM    5  C   UNL     1     -22.267  -6.372  -5.217  1.00  0.00     0.111 C 
BRANCH   5   6
HETATM    6  C   UNL     1     -21.451  -6.871  -4.029  1.00  0.00     0.010 C 
BRANCH   6   7
HETATM    7  C   UNL     1     -21.985  -6.355  -2.703  1.00  0.00     0.000 C 
BRANCH   7   8
HETATM    8  C   UNL     1     -21.462  -7.219  -1.561  1.00  0.00     0.000 C 
BRANCH   8   9
HETATM    9  C   UNL     1     -22.538  -7.398  -0.502  1.00  0.00     0.000 C 
BRANCH   9  10
HETATM   10  C   UNL     1     -22.030  -8.287   0.622  1.00  0.00     0.000 C 
BRANCH  10  11
HETATM   11  C   UNL     1     -22.023  -9.739   0.175  1.00  0.00     0.000 C 
BRANCH  11  12
HETATM   12  C   UNL     1     -23.435 -10.183  -0.172  1.00  0.00     0.000 C 
BRANCH  12  13
HETATM   13  C   UNL     1     -23.435 -10.942  -1.489  1.00  0.00    -0.000 C 
BRANCH  13  14
HETATM   14  C   UNL     1     -22.093 -10.792  -2.190  1.00  0.00    -0.005 C 
HETATM   15  C   UNL     1     -22.295 -10.617  -3.682  1.00  0.00     0.005 C 
ENDBRANCH  13  14
ENDBRANCH  12  13
ENDBRANCH  11  12
ENDBRANCH  10  11
ENDBRANCH   9  10
ENDBRANCH   8   9
ENDBRANCH   7   8
ENDBRANCH   6   7
ENDBRANCH   5   6
ENDBRANCH   3   5
ENDBRANCH   2   3
ENDBRANCH   1   2
BRANCH   1  16
HETATM   16  C   UNL     1     -21.832  -4.324  -9.358  1.00  0.00     0.173 C 
BRANCH  16  17
HETATM   17  C   UNL     1     -23.099  -3.563  -9.819  1.00  0.00     0.180 C 
BRANCH  17  18
HETATM   18  C   UNL     1     -23.627  -4.067 -11.181  1.00  0.00     0.180 C 
BRANCH  18  19
HETATM   19  C   UNL     1     -23.986  -2.899 -12.138  1.00  0.00     0.173 C 
BRANCH  19  20
HETATM   20  C   UNL     1     -23.123  -2.948 -13.400  1.00  0.00     0.198 C 
BRANCH  20  21
HETATM   21  O   UNL     1     -23.713  -3.743 -14.428  1.00  0.00    -0.398 OA
HETATM   22  H   UNL     1     -23.495  -3.319 -15.279  1.00  0.00     0.209 HD
ENDBRANCH  20  21
ENDBRANCH  19  20
BRANCH  19  23
HETATM   23  O   UNL     1     -25.355  -2.916 -12.553  1.00  0.00    -0.391 OA
HETATM   24  H   UNL     1     -25.841  -3.525 -11.971  1.00  0.00     0.210 HD
ENDBRANCH  19  23
ENDBRANCH  18  19
BRANCH  18  25
HETATM   25  O   UNL     1     -22.659  -4.915 -11.803  1.00  0.00    -0.390 OA
HETATM   26  H   UNL     1     -23.141  -5.633 -12.248  1.00  0.00     0.210 HD
ENDBRANCH  18  25
ENDBRANCH  17  18
BRANCH  17  27
HETATM   27  O   UNL     1     -24.126  -3.663  -8.836  1.00  0.00    -0.390 OA
HETATM   28  H   UNL     1     -24.516  -4.552  -8.887  1.00  0.00     0.210 HD
ENDBRANCH  17  27
ENDBRANCH  16  17
BRANCH  16  29
HETATM   29  O   UNL     1     -20.667  -4.023 -10.138  1.00  0.00    -0.391 OA
HETATM   30  H   UNL     1     -20.481  -4.760 -10.747  1.00  0.00     0.210 HD
ENDBRANCH  16  29
ENDBRANCH   1  16
TORSDOF 22
ENDMDL
MODEL 5
REMARK VINA RESULT:      -6.4      1.944      3.602
REMARK  22 active torsions:
REMARK  status: ('A' for Active; 'I' for Inactive)
REMARK    1  A    between atoms: C_2  and  C_3 
REMARK    2  A    between atoms: C_3  and  C_4 
REMARK    3  A    between atoms: C_4  and  C_5 
REMARK    4  A    between atoms: C_5  and  C_6 
REMARK    5  A    between atoms: C_6  and  C_7 
REMARK    6  A    between atoms: C_7  and  C_8 
REMARK    7  A    between atoms: C_8  and  C_9 
REMARK    8  A    between atoms: C_9  and  C_10 
REMARK    9  A    between atoms: C_10  and  C_11 
REMARK   10  A    between atoms: C_11  and  C_12 
REMARK   11  A    between atoms: C_12  and  O_14 
REMARK   12  A    between atoms: O_14  and  C_15 
REMARK   13  A    between atoms: C_15  and  C_16 
REMARK   14  A    between atoms: C_16  and  C_17 
REMARK   15  A    between atoms: C_16  and  O_25 
REMARK   16  A    between atoms: C_17  and  C_18 
REMARK   17  A    between atoms: C_17  and  O_24 
REMARK   18  A    between atoms: C_18  and  C_19 
REMARK   19  A    between atoms: C_18  and  O_23 
REMARK   20  A    between atoms: C_19  and  C_20 
REMARK   21  A    between atoms: C_19  and  O_22 
REMARK   22  A    between atoms: C_20  and  O_21 
ROOT
HETATM    1  C   UNL     1     -21.852  -4.797  -8.520  1.00  0.00     0.213 C 
ENDROOT
BRANCH   1   2
HETATM    2  O   UNL     1     -21.484  -4.453  -7.181  1.00  0.00    -0.319 OA
BRANCH   2   3
HETATM    3  C   UNL     1     -22.065  -5.204  -6.232  1.00  0.00     0.258 C 
HETATM    4  O   UNL     1     -23.285  -5.382  -6.110  1.00  0.00    -0.265 OA
BRANCH   3   5
HETATM    5  C   UNL     1     -21.014  -5.873  -5.383  1.00  0.00     0.111 C 
BRANCH   5   6
HETATM    6  C   UNL     1     -21.681  -6.632  -4.242  1.00  0.00     0.010 C 
BRANCH   6   7
HETATM    7  C   UNL     1     -21.177  -6.188  -2.879  1.00  0.00     0.000 C 
BRANCH   7   8
HETATM    8  C   UNL     1     -22.327  -6.181  -1.878  1.00  0.00     0.000 C 
BRANCH   8   9
HETATM    9  C   UNL     1     -22.176  -7.330  -0.894  1.00  0.00     0.000 C 
BRANCH   9  10
HETATM   10  C   UNL     1     -20.812  -7.982  -1.050  1.00  0.00     0.000 C 
BRANCH  10  11
HETATM   11  C   UNL     1     -20.974  -9.460  -1.360  1.00  0.00     0.000 C 
BRANCH  11  12
HETATM   12  C   UNL     1     -20.214  -9.811  -2.629  1.00  0.00     0.000 C 
BRANCH  12  13
HETATM   13  C   UNL     1     -18.863  -9.116  -2.638  1.00  0.00    -0.000 C 
BRANCH  13  14
HETATM   14  C   UNL     1     -17.807 -10.011  -3.270  1.00  0.00    -0.005 C 
HETATM   15  C   UNL     1     -16.419  -9.475  -2.977  1.00  0.00     0.005 C 
ENDBRANCH  13  14
ENDBRANCH  12  13
ENDBRANCH  11  12
ENDBRANCH  10  11
ENDBRANCH   9  10
ENDBRANCH   8   9
ENDBRANCH   7   8
ENDBRANCH   6   7
ENDBRANCH   5   6
ENDBRANCH   3   5
ENDBRANCH   2   3
ENDBRANCH   1   2
BRANCH   1  16
HETATM   16  C   UNL     1     -22.843  -3.832  -9.154  1.00  0.00     0.173 C 
BRANCH  16  17
HETATM   17  C   UNL     1     -23.137  -4.201 -10.630  1.00  0.00     0.180 C 
BRANCH  17  18
HETATM   18  C   UNL     1     -24.076  -3.184 -11.315  1.00  0.00     0.180 C 
BRANCH  18  19
HETATM   19  C   UNL     1     -24.349  -3.549 -12.799  1.00  0.00     0.173 C 
BRANCH  19  20
HETATM   20  C   UNL     1     -23.634  -2.574 -13.736  1.00  0.00     0.198 C 
BRANCH  20  21
HETATM   21  O   UNL     1     -24.377  -1.372 -13.935  1.00  0.00    -0.398 OA
HETATM   22  H   UNL     1     -24.330  -1.160 -14.886  1.00  0.00     0.209 HD
ENDBRANCH  20  21
ENDBRANCH  19  20
BRANCH  19  23
HETATM   23  O   UNL     1     -23.916  -4.869 -13.141  1.00  0.00    -0.391 OA
HETATM   24  H   UNL     1     -24.418  -5.159 -13.922  1.00  0.00     0.210 HD
ENDBRANCH  19  23
ENDBRANCH  18  19
BRANCH  18  25
HETATM   25  O   UNL     1     -25.314  -3.099 -10.608  1.00  0.00    -0.390 OA
HETATM   26  H   UNL     1     -25.303  -2.273 -10.095  1.00  0.00     0.210 HD
ENDBRANCH  18  25
ENDBRANCH  17  18
BRANCH  17  27
HETATM   27  O   UNL     1     -21.922  -4.311 -11.367  1.00  0.00    -0.390 OA
HETATM   28  H   UNL     1     -22.141  -4.498 -12.296  1.00  0.00     0.210 HD
ENDBRANCH  17  27
ENDBRANCH  16  17
BRANCH  16  29
HETATM   29  O   UNL     1     -24.013  -3.812  -8.325  1.00  0.00    -0.391 OA
HETATM   30  H   UNL     1     -24.173  -4.702  -7.963  1.00  0.00     0.210 HD
ENDBRANCH  16  29
ENDBRANCH   1  16
TORSDOF 22
ENDMDL
MODEL 6
REMARK VINA RESULT:      -6.2      1.357      2.169
REMARK  22 active torsions:
REMARK  status: ('A' for Active; 'I' for Inactive)
REMARK    1  A    between atoms: C_2  and  C_3 
REMARK    2  A    between atoms: C_3  and  C_4 
REMARK    3  A    between atoms: C_4  and  C_5 
REMARK    4  A    between atoms: C_5  and  C_6 
REMARK    5  A    between atoms: C_6  and  C_7 
REMARK    6  A    between atoms: C_7  and  C_8 
REMARK    7  A    between atoms: C_8  and  C_9 
REMARK    8  A    between atoms: C_9  and  C_10 
REMARK    9  A    between atoms: C_10  and  C_11 
REMARK   10  A    between atoms: C_11  and  C_12 
REMARK   11  A    between atoms: C_12  and  O_14 
REMARK   12  A    between atoms: O_14  and  C_15 
REMARK   13  A    between atoms: C_15  and  C_16 
REMARK   14  A    between atoms: C_16  and  C_17 
REMARK   15  A    between atoms: C_16  and  O_25 
REMARK   16  A    between atoms: C_17  and  C_18 
REMARK   17  A    between atoms: C_17  and  O_24 
REMARK   18  A    between atoms: C_18  and  C_19 
REMARK   19  A    between atoms: C_18  and  O_23 
REMARK   20  A    between atoms: C_19  and  C_20 
REMARK   21  A    between atoms: C_19  and  O_22 
REMARK   22  A    between atoms: C_20  and  O_21 
ROOT
HETATM    1  C   UNL     1     -23.570  -3.669  -8.936  1.00  0.00     0.213 C 
ENDROOT
BRANCH   1   2
HETATM    2  O   UNL     1     -22.170  -3.375  -8.979  1.00  0.00    -0.319 OA
BRANCH   2   3
HETATM    3  C   UNL     1     -21.388  -4.300  -8.401  1.00  0.00     0.258 C 
HETATM    4  O   UNL     1     -20.840  -5.240  -8.991  1.00  0.00    -0.265 OA
BRANCH   3   5
HETATM    5  C   UNL     1     -21.201  -3.981  -6.939  1.00  0.00     0.111 C 
BRANCH   5   6
HETATM    6  C   UNL     1     -20.595  -5.184  -6.225  1.00  0.00     0.010 C 
BRANCH   6   7
HETATM    7  C   UNL     1     -21.576  -5.847  -5.273  1.00  0.00     0.000 C 
BRANCH   7   8
HETATM    8  C   UNL     1     -20.988  -5.891  -3.867  1.00  0.00     0.000 C 
BRANCH   8   9
HETATM    9  C   UNL     1     -21.973  -6.534  -2.904  1.00  0.00     0.000 C 
BRANCH   9  10
HETATM   10  C   UNL     1     -21.300  -7.656  -2.131  1.00  0.00     0.000 C 
BRANCH  10  11
HETATM   11  C   UNL     1     -20.906  -8.778  -3.077  1.00  0.00     0.000 C 
BRANCH  11  12
HETATM   12  C   UNL     1     -21.997  -9.836  -3.110  1.00  0.00     0.000 C 
BRANCH  12  13
HETATM   13  C   UNL     1     -22.004 -10.621  -1.808  1.00  0.00    -0.000 C 
BRANCH  13  14
HETATM   14  C   UNL     1     -23.386 -11.197  -1.540  1.00  0.00    -0.005 C 
HETATM   15  C   UNL     1     -23.907 -10.713  -0.201  1.00  0.00     0.005 C 
ENDBRANCH  13  14
ENDBRANCH  12  13
ENDBRANCH  11  12
ENDBRANCH  10  11
ENDBRANCH   9  10
ENDBRANCH   8   9
ENDBRANCH   7   8
ENDBRANCH   6   7
ENDBRANCH   5   6
ENDBRANCH   3   5
ENDBRANCH   2   3
ENDBRANCH   1   2
BRANCH   1  16
HETATM   16  C   UNL     1     -24.314  -3.305 -10.212  1.00  0.00     0.173 C 
BRANCH  16  17
HETATM   17  C   UNL     1     -23.988  -4.287 -11.365  1.00  0.00     0.180 C 
BRANCH  17  18
HETATM   18  C   UNL     1     -23.121  -3.636 -12.466  1.00  0.00     0.180 C 
BRANCH  18  19
HETATM   19  C   UNL     1     -23.759  -2.333 -13.018  1.00  0.00     0.173 C 
BRANCH  19  20
HETATM   20  C   UNL     1     -23.216  -2.013 -14.411  1.00  0.00     0.198 C 
BRANCH  20  21
HETATM   21  O   UNL     1     -22.514  -3.115 -14.984  1.00  0.00    -0.398 OA
HETATM   22  H   UNL     1     -21.724  -3.270 -14.432  1.00  0.00     0.209 HD
ENDBRANCH  20  21
ENDBRANCH  19  20
BRANCH  19  23
HETATM   23  O   UNL     1     -25.185  -2.405 -13.118  1.00  0.00    -0.391 OA
HETATM   24  H   UNL     1     -25.528  -2.777 -12.287  1.00  0.00     0.210 HD
ENDBRANCH  19  23
ENDBRANCH  18  19
BRANCH  18  25
HETATM   25  O   UNL     1     -21.814  -3.354 -11.964  1.00  0.00    -0.390 OA
HETATM   26  H   UNL     1     -21.491  -4.154 -11.517  1.00  0.00     0.210 HD
ENDBRANCH  18  25
ENDBRANCH  17  18
BRANCH  17  27
HETATM   27  O   UNL     1     -23.335  -5.449 -10.860  1.00  0.00    -0.390 OA
HETATM   28  H   UNL     1     -22.967  -5.240  -9.985  1.00  0.00     0.210 HD
ENDBRANCH  17  27
ENDBRANCH  16  17
BRANCH  16  29
HETATM   29  O   UNL     1     -25.711  -3.244  -9.892  1.00  0.00    -0.391 OA
HETATM   30  H   UNL     1     -26.200  -3.886 -10.435  1.00  0.00     0.210 HD
ENDBRANCH  16  29
ENDBRANCH   1  16
TORSDOF 22
ENDMDL
MODEL 7
REMARK VINA RESULT:      -6.2      2.096      4.596
REMARK  22 active torsions:
REMARK  status: ('A' for Active; 'I' for Inactive)
REMARK    1  A    between atoms: C_2  and  C_3 
REMARK    2  A    between atoms: C_3  and  C_4 
REMARK    3  A    between atoms: C_4  and  C_5 
REMARK    4  A    between atoms: C_5  and  C_6 
REMARK    5  A    between atoms: C_6  and  C_7 
REMARK    6  A    between atoms: C_7  and  C_8 
REMARK    7  A    between atoms: C_8  and  C_9 
REMARK    8  A    between atoms: C_9  and  C_10 
REMARK    9  A    between atoms: C_10  and  C_11 
REMARK   10  A    between atoms: C_11  and  C_12 
REMARK   11  A    between atoms: C_12  and  O_14 
REMARK   12  A    between atoms: O_14  and  C_15 
REMARK   13  A    between atoms: C_15  and  C_16 
REMARK   14  A    between atoms: C_16  and  C_17 
REMARK   15  A    between atoms: C_16  and  O_25 
REMARK   16  A    between atoms: C_17  and  C_18 
REMARK   17  A    between atoms: C_17  and  O_24 
REMARK   18  A    between atoms: C_18  and  C_19 
REMARK   19  A    between atoms: C_18  and  O_23 
REMARK   20  A    between atoms: C_19  and  C_20 
REMARK   21  A    between atoms: C_19  and  O_22 
REMARK   22  A    between atoms: C_20  and  O_21 
ROOT
HETATM    1  C   UNL     1     -20.177  -5.403  -6.358  1.00  0.00     0.213 C 
ENDROOT
BRANCH   1   2
HETATM    2  O   UNL     1     -20.003  -6.820  -6.268  1.00  0.00    -0.319 OA
BRANCH   2   3
HETATM    3  C   UNL     1     -20.935  -7.451  -5.536  1.00  0.00     0.258 C 
HETATM    4  O   UNL     1     -21.179  -8.664  -5.583  1.00  0.00    -0.265 OA
BRANCH   3   5
HETATM    5  C   UNL     1     -21.588  -6.484  -4.581  1.00  0.00     0.111 C 
BRANCH   5   6
HETATM    6  C   UNL     1     -21.906  -7.192  -3.269  1.00  0.00     0.010 C 
BRANCH   6   7
HETATM    7  C   UNL     1     -20.714  -7.226  -2.327  1.00  0.00     0.000 C 
BRANCH   7   8
HETATM    8  C   UNL     1     -21.114  -7.877  -1.007  1.00  0.00     0.000 C 
BRANCH   8   9
HETATM    9  C   UNL     1     -22.447  -7.324  -0.530  1.00  0.00     0.000 C 
BRANCH   9  10
HETATM   10  C   UNL     1     -23.133  -8.320   0.391  1.00  0.00     0.000 C 
BRANCH  10  11
HETATM   11  C   UNL     1     -22.784  -9.739  -0.024  1.00  0.00     0.000 C 
BRANCH  11  12
HETATM   12  C   UNL     1     -24.026 -10.613   0.019  1.00  0.00     0.000 C 
BRANCH  12  13
HETATM   13  C   UNL     1     -24.067 -11.521  -1.200  1.00  0.00    -0.000 C 
BRANCH  13  14
HETATM   14  C   UNL     1     -23.107 -11.022  -2.269  1.00  0.00    -0.005 C 
HETATM   15  C   UNL     1     -22.243 -12.161  -2.774  1.00  0.00     0.005 C 
ENDBRANCH  13  14
ENDBRANCH  12  13
ENDBRANCH  11  12
ENDBRANCH  10  11
ENDBRANCH   9  10
ENDBRANCH   8   9
ENDBRANCH   7   8
ENDBRANCH   6   7
ENDBRANCH   5   6
ENDBRANCH   3   5
ENDBRANCH   2   3
ENDBRANCH   1   2
BRANCH   1  16
HETATM   16  C   UNL     1     -20.323  -4.890  -7.783  1.00  0.00     0.173 C 
BRANCH  16  17
HETATM   17  C   UNL     1     -21.680  -4.173  -7.997  1.00  0.00     0.180 C 
BRANCH  17  18
HETATM   18  C   UNL     1     -22.250  -4.402  -9.414  1.00  0.00     0.180 C 
BRANCH  18  19
HETATM   19  C   UNL     1     -23.411  -3.425  -9.741  1.00  0.00     0.173 C 
BRANCH  19  20
HETATM   20  C   UNL     1     -23.967  -3.694 -11.141  1.00  0.00     0.198 C 
BRANCH  20  21
HETATM   21  O   UNL     1     -25.245  -3.092 -11.340  1.00  0.00    -0.398 OA
HETATM   22  H   UNL     1     -25.839  -3.445 -10.651  1.00  0.00     0.209 HD
ENDBRANCH  20  21
ENDBRANCH  19  20
BRANCH  19  23
HETATM   23  O   UNL     1     -24.502  -3.523  -8.820  1.00  0.00    -0.391 OA
HETATM   24  H   UNL     1     -25.013  -2.696  -8.868  1.00  0.00     0.210 HD
ENDBRANCH  19  23
ENDBRANCH  18  19
BRANCH  18  25
HETATM   25  O   UNL     1     -21.218  -4.261 -10.392  1.00  0.00    -0.390 OA
HETATM   26  H   UNL     1     -20.737  -5.106 -10.435  1.00  0.00     0.210 HD
ENDBRANCH  18  25
ENDBRANCH  17  18
BRANCH  17  27
HETATM   27  O   UNL     1     -22.627  -4.599  -7.021  1.00  0.00    -0.390 OA
HETATM   28  H   UNL     1     -22.918  -5.499  -7.245  1.00  0.00     0.210 HD
ENDBRANCH  17  27
ENDBRANCH  16  17
BRANCH  16  29
HETATM   29  O   UNL     1     -19.188  -4.059  -8.059  1.00  0.00    -0.391 OA
HETATM   30  H   UNL     1     -19.360  -3.154  -7.744  1.00  0.00     0.210 HD
ENDBRANCH  16  29
ENDBRANCH   1  16
TORSDOF 22
ENDMDL
MODEL 8
REMARK VINA RESULT:      -6.0      1.533      2.723
REMARK  22 active torsions:
REMARK  status: ('A' for Active; 'I' for Inactive)
REMARK    1  A    between atoms: C_2  and  C_3 
REMARK    2  A    between atoms: C_3  and  C_4 
REMARK    3  A    between atoms: C_4  and  C_5 
REMARK    4  A    between atoms: C_5  and  C_6 
REMARK    5  A    between atoms: C_6  and  C_7 
REMARK    6  A    between atoms: C_7  and  C_8 
REMARK    7  A    between atoms: C_8  and  C_9 
REMARK    8  A    between atoms: C_9  and  C_10 
REMARK    9  A    between atoms: C_10  and  C_11 
REMARK   10  A    between atoms: C_11  and  C_12 
REMARK   11  A    between atoms: C_12  and  O_14 
REMARK   12  A    between atoms: O_14  and  C_15 
REMARK   13  A    between atoms: C_15  and  C_16 
REMARK   14  A    between atoms: C_16  and  C_17 
REMARK   15  A    between atoms: C_16  and  O_25 
REMARK   16  A    between atoms: C_17  and  C_18 
REMARK   17  A    between atoms: C_17  and  O_24 
REMARK   18  A    between atoms: C_18  and  C_19 
REMARK   19  A    between atoms: C_18  and  O_23 
REMARK   20  A    between atoms: C_19  and  C_20 
REMARK   21  A    between atoms: C_19  and  O_22 
REMARK   22  A    between atoms: C_20  and  O_21 
ROOT
HETATM    1  C   UNL     1     -23.638  -4.430  -9.332  1.00  0.00     0.213 C 
ENDROOT
BRANCH   1   2
HETATM    2  O   UNL     1     -22.852  -3.703  -8.383  1.00  0.00    -0.319 OA
BRANCH   2   3
HETATM    3  C   UNL     1     -21.559  -4.058  -8.340  1.00  0.00     0.258 C 
HETATM    4  O   UNL     1     -20.881  -4.404  -9.318  1.00  0.00    -0.265 OA
BRANCH   3   5
HETATM    5  C   UNL     1     -21.021  -3.896  -6.941  1.00  0.00     0.111 C 
BRANCH   5   6
HETATM    6  C   UNL     1     -19.800  -4.789  -6.753  1.00  0.00     0.010 C 
BRANCH   6   7
HETATM    7  C   UNL     1     -20.175  -6.200  -6.332  1.00  0.00     0.000 C 
BRANCH   7   8
HETATM    8  C   UNL     1     -21.507  -6.185  -5.590  1.00  0.00     0.000 C 
BRANCH   8   9
HETATM    9  C   UNL     1     -21.275  -6.030  -4.095  1.00  0.00     0.000 C 
BRANCH   9  10
HETATM   10  C   UNL     1     -20.993  -7.382  -3.462  1.00  0.00     0.000 C 
BRANCH  10  11
HETATM   11  C   UNL     1     -21.732  -8.476  -4.214  1.00  0.00     0.000 C 
BRANCH  11  12
HETATM   12  C   UNL     1     -21.507  -9.817  -3.536  1.00  0.00     0.000 C 
BRANCH  12  13
HETATM   13  C   UNL     1     -21.840 -10.949  -4.494  1.00  0.00    -0.000 C 
BRANCH  13  14
HETATM   14  C   UNL     1     -21.048 -10.805  -5.785  1.00  0.00    -0.005 C 
HETATM   15  C   UNL     1     -19.573 -11.040  -5.526  1.00  0.00     0.005 C 
ENDBRANCH  13  14
ENDBRANCH  12  13
ENDBRANCH  11  12
ENDBRANCH  10  11
ENDBRANCH   9  10
ENDBRANCH   8   9
ENDBRANCH   7   8
ENDBRANCH   6   7
ENDBRANCH   5   6
ENDBRANCH   3   5
ENDBRANCH   2   3
ENDBRANCH   1   2
BRANCH   1  16
HETATM   16  C   UNL     1     -24.007  -3.627 -10.571  1.00  0.00     0.173 C 
BRANCH  16  17
HETATM   17  C   UNL     1     -23.738  -4.424 -11.871  1.00  0.00     0.180 C 
BRANCH  17  18
HETATM   18  C   UNL     1     -24.356  -3.748 -13.115  1.00  0.00     0.180 C 
BRANCH  18  19
HETATM   19  C   UNL     1     -23.634  -2.423 -13.479  1.00  0.00     0.173 C 
BRANCH  19  20
HETATM   20  C   UNL     1     -22.627  -2.646 -14.608  1.00  0.00     0.198 C 
BRANCH  20  21
HETATM   21  O   UNL     1     -22.964  -1.913 -15.785  1.00  0.00    -0.398 OA
HETATM   22  H   UNL     1     -22.144  -1.493 -16.105  1.00  0.00     0.209 HD
ENDBRANCH  20  21
ENDBRANCH  19  20
BRANCH  19  23
HETATM   23  O   UNL     1     -24.533  -1.393 -13.903  1.00  0.00    -0.391 OA
HETATM   24  H   UNL     1     -24.745  -0.840 -13.131  1.00  0.00     0.210 HD
ENDBRANCH  19  23
ENDBRANCH  18  19
BRANCH  18  25
HETATM   25  O   UNL     1     -24.315  -4.637 -14.233  1.00  0.00    -0.390 OA
HETATM   26  H   UNL     1     -25.156  -4.546 -14.712  1.00  0.00     0.210 HD
ENDBRANCH  18  25
ENDBRANCH  17  18
BRANCH  17  27
HETATM   27  O   UNL     1     -22.337  -4.605 -12.065  1.00  0.00    -0.390 OA
HETATM   28  H   UNL     1     -21.983  -5.105 -11.310  1.00  0.00     0.210 HD
ENDBRANCH  17  27
ENDBRANCH  16  17
BRANCH  16  29
HETATM   29  O   UNL     1     -25.372  -3.215 -10.425  1.00  0.00    -0.391 OA
HETATM   30  H   UNL     1     -25.952  -3.819 -10.922  1.00  0.00     0.210 HD
ENDBRANCH  16  29
ENDBRANCH   1  16
TORSDOF 22
ENDMDL
MODEL 9
REMARK VINA RESULT:      -6.0      3.490      6.966
REMARK  22 active torsions:
REMARK  status: ('A' for Active; 'I' for Inactive)
REMARK    1  A    between atoms: C_2  and  C_3 
REMARK    2  A    between atoms: C_3  and  C_4 
REMARK    3  A    between atoms: C_4  and  C_5 
REMARK    4  A    between atoms: C_5  and  C_6 
REMARK    5  A    between atoms: C_6  and  C_7 
REMARK    6  A    between atoms: C_7  and  C_8 
REMARK    7  A    between atoms: C_8  and  C_9 
REMARK    8  A    between atoms: C_9  and  C_10 
REMARK    9  A    between atoms: C_10  and  C_11 
REMARK   10  A    between atoms: C_11  and  C_12 
REMARK   11  A    between atoms: C_12  and  O_14 
REMARK   12  A    between atoms: O_14  and  C_15 
REMARK   13  A    between atoms: C_15  and  C_16 
REMARK   14  A    between atoms: C_16  and  C_17 
REMARK   15  A    between atoms: C_16  and  O_25 
REMARK   16  A    between atoms: C_17  and  C_18 
REMARK   17  A    between atoms: C_17  and  O_24 
REMARK   18  A    between atoms: C_18  and  C_19 
REMARK   19  A    between atoms: C_18  and  O_23 
REMARK   20  A    between atoms: C_19  and  C_20 
REMARK   21  A    between atoms: C_19  and  O_22 
REMARK   22  A    between atoms: C_20  and  O_21 
ROOT
HETATM    1  C   UNL     1     -21.258  -8.045  -3.914  1.00  0.00     0.213 C 
ENDROOT
BRANCH   1   2
HETATM    2  O   UNL     1     -20.886  -6.989  -3.024  1.00  0.00    -0.319 OA
BRANCH   2   3
HETATM    3  C   UNL     1     -21.740  -6.787  -2.009  1.00  0.00     0.258 C 
HETATM    4  O   UNL     1     -22.673  -5.972  -2.013  1.00  0.00    -0.265 OA
BRANCH   3   5
HETATM    5  C   UNL     1     -21.456  -7.756  -0.890  1.00  0.00     0.111 C 
BRANCH   5   6
HETATM    6  C   UNL     1     -22.711  -7.951  -0.047  1.00  0.00     0.010 C 
BRANCH   6   7
HETATM    7  C   UNL     1     -23.104  -9.413   0.076  1.00  0.00     0.000 C 
BRANCH   7   8
HETATM    8  C   UNL     1     -22.314 -10.250  -0.924  1.00  0.00     0.000 C 
BRANCH   8   9
HETATM    9  C   UNL     1     -23.255 -11.118  -1.743  1.00  0.00     0.000 C 
BRANCH   9  10
HETATM   10  C   UNL     1     -24.229 -11.847  -0.832  1.00  0.00     0.000 C 
BRANCH  10  11
HETATM   11  C   UNL     1     -24.072 -13.349  -0.994  1.00  0.00     0.000 C 
BRANCH  11  12
HETATM   12  C   UNL     1     -23.079 -13.881   0.025  1.00  0.00     0.000 C 
BRANCH  12  13
HETATM   13  C   UNL     1     -23.292 -13.200   1.367  1.00  0.00    -0.000 C 
BRANCH  13  14
HETATM   14  C   UNL     1     -23.155 -14.204   2.503  1.00  0.00    -0.005 C 
HETATM   15  C   UNL     1     -24.058 -15.397   2.262  1.00  0.00     0.005 C 
ENDBRANCH  13  14
ENDBRANCH  12  13
ENDBRANCH  11  12
ENDBRANCH  10  11
ENDBRANCH   9  10
ENDBRANCH   8   9
ENDBRANCH   7   8
ENDBRANCH   6   7
ENDBRANCH   5   6
ENDBRANCH   3   5
ENDBRANCH   2   3
ENDBRANCH   1   2
BRANCH   1  16
HETATM   16  C   UNL     1     -21.091  -7.698  -5.386  1.00  0.00     0.173 C 
BRANCH  16  17
HETATM   17  C   UNL     1     -21.519  -6.240  -5.682  1.00  0.00     0.180 C 
BRANCH  17  18
HETATM   18  C   UNL     1     -21.502  -5.916  -7.193  1.00  0.00     0.180 C 
BRANCH  18  19
HETATM   19  C   UNL     1     -22.033  -4.488  -7.491  1.00  0.00     0.173 C 
BRANCH  19  20
HETATM   20  C   UNL     1     -21.817  -4.126  -8.961  1.00  0.00     0.198 C 
BRANCH  20  21
HETATM   21  O   UNL     1     -20.451  -3.831  -9.250  1.00  0.00    -0.398 OA
HETATM   22  H   UNL     1     -20.438  -3.310 -10.074  1.00  0.00     0.209 HD
ENDBRANCH  20  21
ENDBRANCH  19  20
BRANCH  19  23
HETATM   23  O   UNL     1     -23.429  -4.341  -7.213  1.00  0.00    -0.391 OA
HETATM   24  H   UNL     1     -23.858  -5.202  -7.353  1.00  0.00     0.210 HD
ENDBRANCH  19  23
ENDBRANCH  18  19
BRANCH  18  25
HETATM   25  O   UNL     1     -20.178  -6.051  -7.713  1.00  0.00    -0.390 OA
HETATM   26  H   UNL     1     -19.608  -6.359  -6.988  1.00  0.00     0.210 HD
ENDBRANCH  18  25
ENDBRANCH  17  18
BRANCH  17  27
HETATM   27  O   UNL     1     -22.816  -5.983  -5.149  1.00  0.00    -0.390 OA
HETATM   28  H   UNL     1     -22.812  -6.214  -4.204  1.00  0.00     0.210 HD
ENDBRANCH  17  27
ENDBRANCH  16  17
BRANCH  16  29
HETATM   29  O   UNL     1     -19.730  -7.978  -5.741  1.00  0.00    -0.391 OA
HETATM   30  H   UNL     1     -19.501  -7.503  -6.560  1.00  0.00     0.210 HD
ENDBRANCH  16  29
ENDBRANCH   1  16
TORSDOF 22
ENDMDL
