MODEL 1
REMARK VINA RESULT:      -1.3      0.000      0.000
REMARK  15 active torsions:
REMARK  status: ('A' for Active; 'I' for Inactive)
REMARK    1  A    between atoms: C_11  and  O_12 
REMARK    2  A    between atoms: O_12  and  C_13 
REMARK    3  A    between atoms: C_14  and  O_24 
REMARK    4  A    between atoms: C_15  and  O_23 
REMARK    5  A    between atoms: C_16  and  O_22 
REMARK    6  A    between atoms: C_17  and  C_19 
REMARK    7  A    between atoms: C_19  and  O_21 
REMARK    8  A    between atoms: O_24  and  C_25 
REMARK    9  A    between atoms: C_26  and  O_36 
REMARK   10  A    between atoms: C_27  and  O_35 
REMARK   11  A    between atoms: C_28  and  O_34 
REMARK   12  A    between atoms: C_29  and  C_31 
REMARK   13  A    between atoms: C_31  and  O_33 
REMARK   14  A    between atoms: C_48  and  C_52 
REMARK   15  A    between atoms: C_52  and  O_54 
ROOT
HETATM    1  H   UNL     1     -23.678   0.187 -14.577  1.00  0.00     0.309 HD
HETATM    2  H   UNL     1     -24.096  -1.102 -15.477  1.00  0.00     0.309 HD
HETATM    3  H   UNL     1     -24.725   0.365 -15.819  1.00  0.00     0.309 HD
HETATM    4  N   UNL     2     -24.467  -0.252 -15.052  1.00  0.00     0.072 N 
ENDROOT
TORSDOF 15
ENDMDL
MODEL 2
REMARK VINA RESULT:      -1.2     13.500     13.500
REMARK  15 active torsions:
REMARK  status: ('A' for Active; 'I' for Inactive)
REMARK    1  A    between atoms: C_11  and  O_12 
REMARK    2  A    between atoms: O_12  and  C_13 
REMARK    3  A    between atoms: C_14  and  O_24 
REMARK    4  A    between atoms: C_15  and  O_23 
REMARK    5  A    between atoms: C_16  and  O_22 
REMARK    6  A    between atoms: C_17  and  C_19 
REMARK    7  A    between atoms: C_19  and  O_21 
REMARK    8  A    between atoms: O_24  and  C_25 
REMARK    9  A    between atoms: C_26  and  O_36 
REMARK   10  A    between atoms: C_27  and  O_35 
REMARK   11  A    between atoms: C_28  and  O_34 
REMARK   12  A    between atoms: C_29  and  C_31 
REMARK   13  A    between atoms: C_31  and  O_33 
REMARK   14  A    between atoms: C_48  and  C_52 
REMARK   15  A    between atoms: C_52  and  O_54 
ROOT
HETATM    1  H   UNL     1     -33.860  -8.843 -11.126  1.00  0.00     0.309 HD
HETATM    2  H   UNL     1     -33.582 -10.085 -10.112  1.00  0.00     0.309 HD
HETATM    3  H   UNL     1     -34.070  -8.646  -9.518  1.00  0.00     0.309 HD
HETATM    4  N   UNL     2     -33.466  -9.077 -10.214  1.00  0.00     0.072 N 
ENDROOT
TORSDOF 15
ENDMDL
MODEL 3
REMARK VINA RESULT:      -1.1      7.780      7.780
REMARK  15 active torsions:
REMARK  status: ('A' for Active; 'I' for Inactive)
REMARK    1  A    between atoms: C_11  and  O_12 
REMARK    2  A    between atoms: O_12  and  C_13 
REMARK    3  A    between atoms: C_14  and  O_24 
REMARK    4  A    between atoms: C_15  and  O_23 
REMARK    5  A    between atoms: C_16  and  O_22 
REMARK    6  A    between atoms: C_17  and  C_19 
REMARK    7  A    between atoms: C_19  and  O_21 
REMARK    8  A    between atoms: O_24  and  C_25 
REMARK    9  A    between atoms: C_26  and  O_36 
REMARK   10  A    between atoms: C_27  and  O_35 
REMARK   11  A    between atoms: C_28  and  O_34 
REMARK   12  A    between atoms: C_29  and  C_31 
REMARK   13  A    between atoms: C_31  and  O_33 
REMARK   14  A    between atoms: C_48  and  C_52 
REMARK   15  A    between atoms: C_52  and  O_54 
ROOT
HETATM    1  H   UNL     1     -24.922  -7.954 -17.730  1.00  0.00     0.309 HD
HETATM    2  H   UNL     1     -23.539  -7.123 -17.522  1.00  0.00     0.309 HD
HETATM    3  H   UNL     1     -23.673  -8.636 -16.928  1.00  0.00     0.309 HD
HETATM    4  N   UNL     2     -24.180  -7.764 -17.056  1.00  0.00     0.072 N 
ENDROOT
TORSDOF 15
ENDMDL
MODEL 4
REMARK VINA RESULT:      -1.1     12.708     12.708
REMARK  15 active torsions:
REMARK  status: ('A' for Active; 'I' for Inactive)
REMARK    1  A    between atoms: C_11  and  O_12 
REMARK    2  A    between atoms: O_12  and  C_13 
REMARK    3  A    between atoms: C_14  and  O_24 
REMARK    4  A    between atoms: C_15  and  O_23 
REMARK    5  A    between atoms: C_16  and  O_22 
REMARK    6  A    between atoms: C_17  and  C_19 
REMARK    7  A    between atoms: C_19  and  O_21 
REMARK    8  A    between atoms: O_24  and  C_25 
REMARK    9  A    between atoms: C_26  and  O_36 
REMARK   10  A    between atoms: C_27  and  O_35 
REMARK   11  A    between atoms: C_28  and  O_34 
REMARK   12  A    between atoms: C_29  and  C_31 
REMARK   13  A    between atoms: C_31  and  O_33 
REMARK   14  A    between atoms: C_48  and  C_52 
REMARK   15  A    between atoms: C_52  and  O_54 
ROOT
HETATM    1  H   UNL     1     -35.807   2.735 -16.181  1.00  0.00     0.309 HD
HETATM    2  H   UNL     1     -36.276   3.341 -17.616  1.00  0.00     0.309 HD
HETATM    3  H   UNL     1     -36.818   4.018 -16.234  1.00  0.00     0.309 HD
HETATM    4  N   UNL     2     -36.609   3.125 -16.677  1.00  0.00     0.072 N 
ENDROOT
TORSDOF 15
ENDMDL
MODEL 5
REMARK VINA RESULT:      -1.1      6.391      6.391
REMARK  15 active torsions:
REMARK  status: ('A' for Active; 'I' for Inactive)
REMARK    1  A    between atoms: C_11  and  O_12 
REMARK    2  A    between atoms: O_12  and  C_13 
REMARK    3  A    between atoms: C_14  and  O_24 
REMARK    4  A    between atoms: C_15  and  O_23 
REMARK    5  A    between atoms: C_16  and  O_22 
REMARK    6  A    between atoms: C_17  and  C_19 
REMARK    7  A    between atoms: C_19  and  O_21 
REMARK    8  A    between atoms: O_24  and  C_25 
REMARK    9  A    between atoms: C_26  and  O_36 
REMARK   10  A    between atoms: C_27  and  O_35 
REMARK   11  A    between atoms: C_28  and  O_34 
REMARK   12  A    between atoms: C_29  and  C_31 
REMARK   13  A    between atoms: C_31  and  O_33 
REMARK   14  A    between atoms: C_48  and  C_52 
REMARK   15  A    between atoms: C_52  and  O_54 
ROOT
HETATM    1  H   UNL     1     -24.476  -3.525  -9.811  1.00  0.00     0.309 HD
HETATM    2  H   UNL     1     -25.888  -3.271 -10.578  1.00  0.00     0.309 HD
HETATM    3  H   UNL     1     -25.738  -2.875  -9.002  1.00  0.00     0.309 HD
HETATM    4  N   UNL     2     -25.488  -3.580  -9.692  1.00  0.00     0.072 N 
ENDROOT
TORSDOF 15
ENDMDL
MODEL 6
REMARK VINA RESULT:      -1.0     14.327     14.327
REMARK  15 active torsions:
REMARK  status: ('A' for Active; 'I' for Inactive)
REMARK    1  A    between atoms: C_11  and  O_12 
REMARK    2  A    between atoms: O_12  and  C_13 
REMARK    3  A    between atoms: C_14  and  O_24 
REMARK    4  A    between atoms: C_15  and  O_23 
REMARK    5  A    between atoms: C_16  and  O_22 
REMARK    6  A    between atoms: C_17  and  C_19 
REMARK    7  A    between atoms: C_19  and  O_21 
REMARK    8  A    between atoms: O_24  and  C_25 
REMARK    9  A    between atoms: C_26  and  O_36 
REMARK   10  A    between atoms: C_27  and  O_35 
REMARK   11  A    between atoms: C_28  and  O_34 
REMARK   12  A    between atoms: C_29  and  C_31 
REMARK   13  A    between atoms: C_31  and  O_33 
REMARK   14  A    between atoms: C_48  and  C_52 
REMARK   15  A    between atoms: C_52  and  O_54 
ROOT
HETATM    1  H   UNL     1     -12.276   5.878 -12.479  1.00  0.00     0.309 HD
HETATM    2  H   UNL     1     -11.855   6.130 -14.030  1.00  0.00     0.309 HD
HETATM    3  H   UNL     1     -11.606   4.668 -13.350  1.00  0.00     0.309 HD
HETATM    4  N   UNL     2     -11.556   5.669 -13.171  1.00  0.00     0.072 N 
ENDROOT
TORSDOF 15
ENDMDL
MODEL 7
REMARK VINA RESULT:      -1.0     12.033     12.033
REMARK  15 active torsions:
REMARK  status: ('A' for Active; 'I' for Inactive)
REMARK    1  A    between atoms: C_11  and  O_12 
REMARK    2  A    between atoms: O_12  and  C_13 
REMARK    3  A    between atoms: C_14  and  O_24 
REMARK    4  A    between atoms: C_15  and  O_23 
REMARK    5  A    between atoms: C_16  and  O_22 
REMARK    6  A    between atoms: C_17  and  C_19 
REMARK    7  A    between atoms: C_19  and  O_21 
REMARK    8  A    between atoms: O_24  and  C_25 
REMARK    9  A    between atoms: C_26  and  O_36 
REMARK   10  A    between atoms: C_27  and  O_35 
REMARK   11  A    between atoms: C_28  and  O_34 
REMARK   12  A    between atoms: C_29  and  C_31 
REMARK   13  A    between atoms: C_31  and  O_33 
REMARK   14  A    between atoms: C_48  and  C_52 
REMARK   15  A    between atoms: C_52  and  O_54 
ROOT
HETATM    1  H   UNL     1     -36.903  -0.009 -16.634  1.00  0.00     0.309 HD
HETATM    2  H   UNL     1     -36.317  -1.522 -16.517  1.00  0.00     0.309 HD
HETATM    3  H   UNL     1     -35.365  -0.326 -17.087  1.00  0.00     0.309 HD
HETATM    4  N   UNL     2     -36.314  -0.693 -17.110  1.00  0.00     0.072 N 
ENDROOT
TORSDOF 15
ENDMDL
MODEL 8
REMARK VINA RESULT:      -1.0     17.888     17.888
REMARK  15 active torsions:
REMARK  status: ('A' for Active; 'I' for Inactive)
REMARK    1  A    between atoms: C_11  and  O_12 
REMARK    2  A    between atoms: O_12  and  C_13 
REMARK    3  A    between atoms: C_14  and  O_24 
REMARK    4  A    between atoms: C_15  and  O_23 
REMARK    5  A    between atoms: C_16  and  O_22 
REMARK    6  A    between atoms: C_17  and  C_19 
REMARK    7  A    between atoms: C_19  and  O_21 
REMARK    8  A    between atoms: O_24  and  C_25 
REMARK    9  A    between atoms: C_26  and  O_36 
REMARK   10  A    between atoms: C_27  and  O_35 
REMARK   11  A    between atoms: C_28  and  O_34 
REMARK   12  A    between atoms: C_29  and  C_31 
REMARK   13  A    between atoms: C_31  and  O_33 
REMARK   14  A    between atoms: C_48  and  C_52 
REMARK   15  A    between atoms: C_52  and  O_54 
ROOT
HETATM    1  H   UNL     1     -34.278  -6.518  -1.149  1.00  0.00     0.309 HD
HETATM    2  H   UNL     1     -33.870  -5.154  -0.361  1.00  0.00     0.309 HD
HETATM    3  H   UNL     1     -35.394  -5.349  -0.911  1.00  0.00     0.309 HD
HETATM    4  N   UNL     2     -34.417  -5.507  -1.146  1.00  0.00     0.072 N 
ENDROOT
TORSDOF 15
ENDMDL
MODEL 9
REMARK VINA RESULT:      -1.0     10.415     10.415
REMARK  15 active torsions:
REMARK  status: ('A' for Active; 'I' for Inactive)
REMARK    1  A    between atoms: C_11  and  O_12 
REMARK    2  A    between atoms: O_12  and  C_13 
REMARK    3  A    between atoms: C_14  and  O_24 
REMARK    4  A    between atoms: C_15  and  O_23 
REMARK    5  A    between atoms: C_16  and  O_22 
REMARK    6  A    between atoms: C_17  and  C_19 
REMARK    7  A    between atoms: C_19  and  O_21 
REMARK    8  A    between atoms: O_24  and  C_25 
REMARK    9  A    between atoms: C_26  and  O_36 
REMARK   10  A    between atoms: C_27  and  O_35 
REMARK   11  A    between atoms: C_28  and  O_34 
REMARK   12  A    between atoms: C_29  and  C_31 
REMARK   13  A    between atoms: C_31  and  O_33 
REMARK   14  A    between atoms: C_48  and  C_52 
REMARK   15  A    between atoms: C_52  and  O_54 
ROOT
HETATM    1  H   UNL     1     -29.060  -7.858 -18.236  1.00  0.00     0.309 HD
HETATM    2  H   UNL     1     -30.562  -8.406 -18.538  1.00  0.00     0.309 HD
HETATM    3  H   UNL     1     -29.300  -9.437 -18.580  1.00  0.00     0.309 HD
HETATM    4  N   UNL     2     -29.590  -8.495 -18.832  1.00  0.00     0.072 N 
ENDROOT
TORSDOF 15
ENDMDL
