MODEL 1
REMARK VINA RESULT:      -7.3      0.000      0.000
REMARK WARNING: 32 MAX_TORS EXCEEDED!!!
REMARK  61 active torsions:
REMARK  status: ('A' for Active; 'I' for Inactive)
REMARK    1  A    between atoms: C_2  and  C_3 
REMARK    2  A    between atoms: C_3  and  C_4 
REMARK    3  A    between atoms: C_4  and  C_5 
REMARK    4  A    between atoms: C_5  and  C_6 
REMARK    5  A    between atoms: C_6  and  C_7 
REMARK    6  A    between atoms: C_7  and  C_8 
REMARK    7  A    between atoms: C_8  and  C_9 
REMARK    8  A    between atoms: C_9  and  C_10 
REMARK    9  A    between atoms: C_10  and  C_11 
REMARK   10  A    between atoms: C_11  and  C_12 
REMARK   11  A    between atoms: C_12  and  C_13 
REMARK   12  A    between atoms: C_14  and  C_15 
REMARK   13  A    between atoms: C_15  and  C_16 
REMARK   14  A    between atoms: C_16  and  C_17 
REMARK   15  A    between atoms: C_18  and  O_19 
REMARK   16  A    between atoms: C_24  and  C_25 
REMARK   17  A    between atoms: C_25  and  C_26 
REMARK   18  A    between atoms: C_26  and  C_27 
REMARK   19  A    between atoms: C_27  and  C_28 
REMARK   20  A    between atoms: C_28  and  C_29 
REMARK   21  A    between atoms: C_29  and  C_30 
REMARK   22  A    between atoms: C_30  and  C_31 
REMARK   23  A    between atoms: C_31  and  C_32 
REMARK   24  A    between atoms: C_32  and  C_33 
REMARK   25  A    between atoms: C_33  and  C_34 
REMARK   26  A    between atoms: C_34  and  C_35 
REMARK   27  A    between atoms: C_35  and  C_36 
REMARK   28  A    between atoms: C_36  and  C_37 
REMARK   29  A    between atoms: C_37  and  C_38 
REMARK   30  A    between atoms: C_38  and  C_39 
REMARK   31  A    between atoms: C_39  and  C_40 
REMARK   32  A    between atoms: C_40  and  O_42 
REMARK   33  A    between atoms: C_45  and  C_46 
REMARK   34  A    between atoms: C_46  and  C_47 
REMARK   35  A    between atoms: C_47  and  C_48 
REMARK   36  A    between atoms: C_48  and  C_49 
REMARK   37  A    between atoms: C_49  and  C_50 
REMARK   38  A    between atoms: C_50  and  C_51 
REMARK   39  A    between atoms: C_51  and  C_52 
REMARK   40  A    between atoms: C_52  and  C_53 
REMARK   41  A    between atoms: C_53  and  C_54 
REMARK   42  A    between atoms: C_54  and  C_55 
REMARK   43  A    between atoms: C_55  and  C_56 
REMARK   44  A    between atoms: C_56  and  C_57 
REMARK   45  A    between atoms: C_57  and  C_58 
REMARK   46  A    between atoms: C_58  and  C_59 
REMARK   47  A    between atoms: C_59  and  C_60 
REMARK   48  A    between atoms: C_60  and  C_61 
REMARK   49  A    between atoms: C_61  and  O_63 
REMARK   50  A    between atoms: O_66  and  C_67 
REMARK   51  A    between atoms: C_68  and  O_77 
REMARK   52  A    between atoms: C_69  and  O_76 
REMARK   53  A    between atoms: C_70  and  O_75 
REMARK   54  A    between atoms: C_71  and  C_73 
REMARK   55  A    between atoms: C_73  and  O_74 
REMARK   56  A    between atoms: O_83  and  C_84 
REMARK   57  A    between atoms: C_85  and  O_94 
REMARK   58  A    between atoms: C_86  and  O_93 
REMARK   59  A    between atoms: C_87  and  O_92 
REMARK   60  A    between atoms: C_88  and  C_90 
REMARK   61  A    between atoms: C_90  and  O_91 
ROOT
HETATM    1  C   UNL     2     -20.521  -5.019  -8.580  1.00  0.00     0.000 C 
ENDROOT
BRANCH   1   2
HETATM    2  C   UNL     2     -20.511  -4.149  -7.406  1.00  0.00     0.000 C 
BRANCH   2   3
HETATM    3  C   UNL     2     -19.632  -4.851  -6.439  1.00  0.00     0.000 C 
BRANCH   3   4
HETATM    4  C   UNL     2     -20.569  -5.106  -5.337  1.00  0.00     0.000 C 
BRANCH   4   5
HETATM    5  C   UNL     2     -20.789  -6.573  -5.195  1.00  0.00     0.000 C 
BRANCH   5   6
HETATM    6  C   UNL     2     -21.833  -6.622  -4.097  1.00  0.00     0.000 C 
BRANCH   6   7
HETATM    7  C   UNL     2     -21.241  -6.082  -2.885  1.00  0.00     0.000 C 
BRANCH   7   8
HETATM    8  C   UNL     2     -22.292  -6.299  -1.764  1.00  0.00     0.000 C 
BRANCH   8   9
HETATM    9  C   UNL     2     -22.548  -7.622  -0.315  1.00  0.00    -0.000 C 
BRANCH   9  10
HETATM   10  C   UNL     2     -23.242  -9.435   0.071  1.00  0.00    -0.005 C 
HETATM   11  C   UNL     2     -23.939 -11.138  -0.166  1.00  0.00     0.005 C 
ENDBRANCH   9  10
ENDBRANCH   8   9
ENDBRANCH   7   8
ENDBRANCH   6   7
ENDBRANCH   5   6
ENDBRANCH   4   5
ENDBRANCH   3   4
ENDBRANCH   2   3
ENDBRANCH   1   2
BRANCH   1  12
HETATM   12  C   UNL     2     -20.638  -4.096  -9.723  1.00  0.00     0.000 C 
BRANCH  12  13
HETATM   13  C   UNL     2     -22.027  -3.678  -9.571  1.00  0.00     0.000 C 
BRANCH  13  14
HETATM   14  C   UNL     2     -22.781  -4.616 -10.418  1.00  0.00     0.000 C 
BRANCH  14  15
HETATM   15  C   UNL     2     -22.228  -4.350 -11.756  1.00  0.00     0.001 C 
BRANCH  15  16
HETATM   16  C   UNL     2     -23.214  -3.421 -12.292  1.00  0.00     0.010 C 
BRANCH  16  17
HETATM   17  C   UNL     2     -22.653  -2.952 -13.620  1.00  0.00     0.110 C 
BRANCH  17  18
HETATM   18  C   UNL     2     -23.422  -2.571 -14.115  1.00  0.00     0.139 C 
HETATM   19  O   UNL     2     -24.642  -2.309 -13.593  1.00  0.00    -0.650 OA
BRANCH  18  20
HETATM   20  O   UNL     2     -22.822  -2.484 -15.191  1.00  0.00    -0.776 OA
HETATM   21  H   UNL     2     -22.590  -1.552 -16.008  1.00  0.00     0.167 HD
ENDBRANCH  18  20
ENDBRANCH  17  18
ENDBRANCH  16  17
ENDBRANCH  15  16
ENDBRANCH  14  15
ENDBRANCH  13  14
ENDBRANCH  12  13
ENDBRANCH   1  12
TORSDOF 61
ENDMDL
MODEL 2
REMARK VINA RESULT:      -7.3      1.212      1.913
REMARK WARNING: 32 MAX_TORS EXCEEDED!!!
REMARK  61 active torsions:
REMARK  status: ('A' for Active; 'I' for Inactive)
REMARK    1  A    between atoms: C_2  and  C_3 
REMARK    2  A    between atoms: C_3  and  C_4 
REMARK    3  A    between atoms: C_4  and  C_5 
REMARK    4  A    between atoms: C_5  and  C_6 
REMARK    5  A    between atoms: C_6  and  C_7 
REMARK    6  A    between atoms: C_7  and  C_8 
REMARK    7  A    between atoms: C_8  and  C_9 
REMARK    8  A    between atoms: C_9  and  C_10 
REMARK    9  A    between atoms: C_10  and  C_11 
REMARK   10  A    between atoms: C_11  and  C_12 
REMARK   11  A    between atoms: C_12  and  C_13 
REMARK   12  A    between atoms: C_14  and  C_15 
REMARK   13  A    between atoms: C_15  and  C_16 
REMARK   14  A    between atoms: C_16  and  C_17 
REMARK   15  A    between atoms: C_18  and  O_19 
REMARK   16  A    between atoms: C_24  and  C_25 
REMARK   17  A    between atoms: C_25  and  C_26 
REMARK   18  A    between atoms: C_26  and  C_27 
REMARK   19  A    between atoms: C_27  and  C_28 
REMARK   20  A    between atoms: C_28  and  C_29 
REMARK   21  A    between atoms: C_29  and  C_30 
REMARK   22  A    between atoms: C_30  and  C_31 
REMARK   23  A    between atoms: C_31  and  C_32 
REMARK   24  A    between atoms: C_32  and  C_33 
REMARK   25  A    between atoms: C_33  and  C_34 
REMARK   26  A    between atoms: C_34  and  C_35 
REMARK   27  A    between atoms: C_35  and  C_36 
REMARK   28  A    between atoms: C_36  and  C_37 
REMARK   29  A    between atoms: C_37  and  C_38 
REMARK   30  A    between atoms: C_38  and  C_39 
REMARK   31  A    between atoms: C_39  and  C_40 
REMARK   32  A    between atoms: C_40  and  O_42 
REMARK   33  A    between atoms: C_45  and  C_46 
REMARK   34  A    between atoms: C_46  and  C_47 
REMARK   35  A    between atoms: C_47  and  C_48 
REMARK   36  A    between atoms: C_48  and  C_49 
REMARK   37  A    between atoms: C_49  and  C_50 
REMARK   38  A    between atoms: C_50  and  C_51 
REMARK   39  A    between atoms: C_51  and  C_52 
REMARK   40  A    between atoms: C_52  and  C_53 
REMARK   41  A    between atoms: C_53  and  C_54 
REMARK   42  A    between atoms: C_54  and  C_55 
REMARK   43  A    between atoms: C_55  and  C_56 
REMARK   44  A    between atoms: C_56  and  C_57 
REMARK   45  A    between atoms: C_57  and  C_58 
REMARK   46  A    between atoms: C_58  and  C_59 
REMARK   47  A    between atoms: C_59  and  C_60 
REMARK   48  A    between atoms: C_60  and  C_61 
REMARK   49  A    between atoms: C_61  and  O_63 
REMARK   50  A    between atoms: O_66  and  C_67 
REMARK   51  A    between atoms: C_68  and  O_77 
REMARK   52  A    between atoms: C_69  and  O_76 
REMARK   53  A    between atoms: C_70  and  O_75 
REMARK   54  A    between atoms: C_71  and  C_73 
REMARK   55  A    between atoms: C_73  and  O_74 
REMARK   56  A    between atoms: O_83  and  C_84 
REMARK   57  A    between atoms: C_85  and  O_94 
REMARK   58  A    between atoms: C_86  and  O_93 
REMARK   59  A    between atoms: C_87  and  O_92 
REMARK   60  A    between atoms: C_88  and  C_90 
REMARK   61  A    between atoms: C_90  and  O_91 
ROOT
HETATM    1  C   UNL     2     -20.035  -5.404  -7.473  1.00  0.00     0.000 C 
ENDROOT
BRANCH   1   2
HETATM    2  C   UNL     2     -21.251  -5.344  -6.665  1.00  0.00     0.000 C 
BRANCH   2   3
HETATM    3  C   UNL     2     -20.807  -5.737  -5.306  1.00  0.00     0.000 C 
BRANCH   3   4
HETATM    4  C   UNL     2     -22.007  -6.418  -4.800  1.00  0.00     0.000 C 
BRANCH   4   5
HETATM    5  C   UNL     2     -21.607  -7.537  -3.901  1.00  0.00     0.000 C 
BRANCH   5   6
HETATM    6  C   UNL     2     -21.112  -6.788  -2.680  1.00  0.00     0.000 C 
BRANCH   6   7
HETATM    7  C   UNL     2     -22.268  -6.373  -1.904  1.00  0.00     0.000 C 
BRANCH   7   8
HETATM    8  C   UNL     2     -22.175  -7.139  -0.558  1.00  0.00     0.000 C 
BRANCH   8   9
HETATM    9  C   UNL     2     -23.095  -8.700   0.237  1.00  0.00    -0.000 C 
BRANCH   9  10
HETATM   10  C   UNL     2     -23.818 -10.494  -0.179  1.00  0.00    -0.005 C 
HETATM   11  C   UNL     2     -23.941 -12.243  -0.787  1.00  0.00     0.005 C 
ENDBRANCH   9  10
ENDBRANCH   8   9
ENDBRANCH   7   8
ENDBRANCH   6   7
ENDBRANCH   5   6
ENDBRANCH   4   5
ENDBRANCH   3   4
ENDBRANCH   2   3
ENDBRANCH   1   2
BRANCH   1  12
HETATM   12  C   UNL     2     -19.992  -4.109  -8.173  1.00  0.00     0.000 C 
BRANCH  12  13
HETATM   13  C   UNL     2     -20.159  -4.559  -9.551  1.00  0.00     0.000 C 
BRANCH  13  14
HETATM   14  C   UNL     2     -21.477  -4.038  -9.945  1.00  0.00     0.000 C 
BRANCH  14  15
HETATM   15  C   UNL     2     -21.267  -3.675 -11.355  1.00  0.00     0.001 C 
BRANCH  15  16
HETATM   16  C   UNL     2     -22.429  -2.834 -11.609  1.00  0.00     0.010 C 
BRANCH  16  17
HETATM   17  C   UNL     2     -23.613  -3.778 -11.663  1.00  0.00     0.110 C 
BRANCH  17  18
HETATM   18  C   UNL     2     -24.358  -3.250 -12.048  1.00  0.00     0.139 C 
HETATM   19  O   UNL     2     -24.472  -2.881 -13.344  1.00  0.00    -0.650 OA
BRANCH  18  20
HETATM   20  O   UNL     2     -24.972  -3.141 -10.983  1.00  0.00    -0.776 OA
HETATM   21  H   UNL     2     -26.184  -3.219 -10.641  1.00  0.00     0.167 HD
ENDBRANCH  18  20
ENDBRANCH  17  18
ENDBRANCH  16  17
ENDBRANCH  15  16
ENDBRANCH  14  15
ENDBRANCH  13  14
ENDBRANCH  12  13
ENDBRANCH   1  12
TORSDOF 61
ENDMDL
MODEL 3
REMARK VINA RESULT:      -7.0      1.489      2.827
REMARK WARNING: 32 MAX_TORS EXCEEDED!!!
REMARK  61 active torsions:
REMARK  status: ('A' for Active; 'I' for Inactive)
REMARK    1  A    between atoms: C_2  and  C_3 
REMARK    2  A    between atoms: C_3  and  C_4 
REMARK    3  A    between atoms: C_4  and  C_5 
REMARK    4  A    between atoms: C_5  and  C_6 
REMARK    5  A    between atoms: C_6  and  C_7 
REMARK    6  A    between atoms: C_7  and  C_8 
REMARK    7  A    between atoms: C_8  and  C_9 
REMARK    8  A    between atoms: C_9  and  C_10 
REMARK    9  A    between atoms: C_10  and  C_11 
REMARK   10  A    between atoms: C_11  and  C_12 
REMARK   11  A    between atoms: C_12  and  C_13 
REMARK   12  A    between atoms: C_14  and  C_15 
REMARK   13  A    between atoms: C_15  and  C_16 
REMARK   14  A    between atoms: C_16  and  C_17 
REMARK   15  A    between atoms: C_18  and  O_19 
REMARK   16  A    between atoms: C_24  and  C_25 
REMARK   17  A    between atoms: C_25  and  C_26 
REMARK   18  A    between atoms: C_26  and  C_27 
REMARK   19  A    between atoms: C_27  and  C_28 
REMARK   20  A    between atoms: C_28  and  C_29 
REMARK   21  A    between atoms: C_29  and  C_30 
REMARK   22  A    between atoms: C_30  and  C_31 
REMARK   23  A    between atoms: C_31  and  C_32 
REMARK   24  A    between atoms: C_32  and  C_33 
REMARK   25  A    between atoms: C_33  and  C_34 
REMARK   26  A    between atoms: C_34  and  C_35 
REMARK   27  A    between atoms: C_35  and  C_36 
REMARK   28  A    between atoms: C_36  and  C_37 
REMARK   29  A    between atoms: C_37  and  C_38 
REMARK   30  A    between atoms: C_38  and  C_39 
REMARK   31  A    between atoms: C_39  and  C_40 
REMARK   32  A    between atoms: C_40  and  O_42 
REMARK   33  A    between atoms: C_45  and  C_46 
REMARK   34  A    between atoms: C_46  and  C_47 
REMARK   35  A    between atoms: C_47  and  C_48 
REMARK   36  A    between atoms: C_48  and  C_49 
REMARK   37  A    between atoms: C_49  and  C_50 
REMARK   38  A    between atoms: C_50  and  C_51 
REMARK   39  A    between atoms: C_51  and  C_52 
REMARK   40  A    between atoms: C_52  and  C_53 
REMARK   41  A    between atoms: C_53  and  C_54 
REMARK   42  A    between atoms: C_54  and  C_55 
REMARK   43  A    between atoms: C_55  and  C_56 
REMARK   44  A    between atoms: C_56  and  C_57 
REMARK   45  A    between atoms: C_57  and  C_58 
REMARK   46  A    between atoms: C_58  and  C_59 
REMARK   47  A    between atoms: C_59  and  C_60 
REMARK   48  A    between atoms: C_60  and  C_61 
REMARK   49  A    between atoms: C_61  and  O_63 
REMARK   50  A    between atoms: O_66  and  C_67 
REMARK   51  A    between atoms: C_68  and  O_77 
REMARK   52  A    between atoms: C_69  and  O_76 
REMARK   53  A    between atoms: C_70  and  O_75 
REMARK   54  A    between atoms: C_71  and  C_73 
REMARK   55  A    between atoms: C_73  and  O_74 
REMARK   56  A    between atoms: O_83  and  C_84 
REMARK   57  A    between atoms: C_85  and  O_94 
REMARK   58  A    between atoms: C_86  and  O_93 
REMARK   59  A    between atoms: C_87  and  O_92 
REMARK   60  A    between atoms: C_88  and  C_90 
REMARK   61  A    between atoms: C_90  and  O_91 
ROOT
HETATM    1  C   UNL     2     -20.074  -5.226  -6.044  1.00  0.00     0.000 C 
ENDROOT
BRANCH   1   2
HETATM    2  C   UNL     2     -20.993  -5.457  -4.931  1.00  0.00     0.000 C 
BRANCH   2   3
HETATM    3  C   UNL     2     -21.464  -6.849  -5.128  1.00  0.00     0.000 C 
BRANCH   3   4
HETATM    4  C   UNL     2     -21.168  -7.438  -3.816  1.00  0.00     0.000 C 
BRANCH   4   5
HETATM    5  C   UNL     2     -21.745  -6.583  -2.740  1.00  0.00     0.000 C 
BRANCH   5   6
HETATM    6  C   UNL     2     -21.527  -7.446  -1.513  1.00  0.00     0.000 C 
BRANCH   6   7
HETATM    7  C   UNL     2     -22.534  -7.095  -0.527  1.00  0.00     0.000 C 
BRANCH   7   8
HETATM    8  C   UNL     2     -22.830  -8.396   0.265  1.00  0.00     0.000 C 
BRANCH   8   9
HETATM    9  C   UNL     2     -23.490 -10.203  -0.198  1.00  0.00    -0.000 C 
BRANCH   9  10
HETATM   10  C   UNL     2     -23.523 -12.084   0.417  1.00  0.00    -0.005 C 
HETATM   11  C   UNL     2     -23.211 -13.609   1.426  1.00  0.00     0.005 C 
ENDBRANCH   9  10
ENDBRANCH   8   9
ENDBRANCH   7   8
ENDBRANCH   6   7
ENDBRANCH   5   6
ENDBRANCH   4   5
ENDBRANCH   3   4
ENDBRANCH   2   3
ENDBRANCH   1   2
BRANCH   1  12
HETATM   12  C   UNL     2     -20.677  -5.948  -7.177  1.00  0.00     0.000 C 
BRANCH  12  13
HETATM   13  C   UNL     2     -20.170  -5.148  -8.286  1.00  0.00     0.000 C 
BRANCH  13  14
HETATM   14  C   UNL     2     -21.164  -4.074  -8.442  1.00  0.00     0.000 C 
BRANCH  14  15
HETATM   15  C   UNL     2     -21.495  -4.152  -9.873  1.00  0.00     0.001 C 
BRANCH  15  16
HETATM   16  C   UNL     2     -22.950  -4.198  -9.828  1.00  0.00     0.010 C 
BRANCH  16  17
HETATM   17  C   UNL     2     -23.409  -3.997 -11.258  1.00  0.00     0.110 C 
BRANCH  17  18
HETATM   18  C   UNL     2     -24.060  -3.250 -11.227  1.00  0.00     0.139 C 
HETATM   19  O   UNL     2     -25.193  -3.224 -10.488  1.00  0.00    -0.650 OA
BRANCH  18  20
HETATM   20  O   UNL     2     -23.440  -2.536 -12.021  1.00  0.00    -0.776 OA
HETATM   21  H   UNL     2     -22.583  -1.617 -11.910  1.00  0.00     0.167 HD
ENDBRANCH  18  20
ENDBRANCH  17  18
ENDBRANCH  16  17
ENDBRANCH  15  16
ENDBRANCH  14  15
ENDBRANCH  13  14
ENDBRANCH  12  13
ENDBRANCH   1  12
TORSDOF 61
ENDMDL
MODEL 4
REMARK VINA RESULT:      -6.7      2.648      5.316
REMARK WARNING: 32 MAX_TORS EXCEEDED!!!
REMARK  61 active torsions:
REMARK  status: ('A' for Active; 'I' for Inactive)
REMARK    1  A    between atoms: C_2  and  C_3 
REMARK    2  A    between atoms: C_3  and  C_4 
REMARK    3  A    between atoms: C_4  and  C_5 
REMARK    4  A    between atoms: C_5  and  C_6 
REMARK    5  A    between atoms: C_6  and  C_7 
REMARK    6  A    between atoms: C_7  and  C_8 
REMARK    7  A    between atoms: C_8  and  C_9 
REMARK    8  A    between atoms: C_9  and  C_10 
REMARK    9  A    between atoms: C_10  and  C_11 
REMARK   10  A    between atoms: C_11  and  C_12 
REMARK   11  A    between atoms: C_12  and  C_13 
REMARK   12  A    between atoms: C_14  and  C_15 
REMARK   13  A    between atoms: C_15  and  C_16 
REMARK   14  A    between atoms: C_16  and  C_17 
REMARK   15  A    between atoms: C_18  and  O_19 
REMARK   16  A    between atoms: C_24  and  C_25 
REMARK   17  A    between atoms: C_25  and  C_26 
REMARK   18  A    between atoms: C_26  and  C_27 
REMARK   19  A    between atoms: C_27  and  C_28 
REMARK   20  A    between atoms: C_28  and  C_29 
REMARK   21  A    between atoms: C_29  and  C_30 
REMARK   22  A    between atoms: C_30  and  C_31 
REMARK   23  A    between atoms: C_31  and  C_32 
REMARK   24  A    between atoms: C_32  and  C_33 
REMARK   25  A    between atoms: C_33  and  C_34 
REMARK   26  A    between atoms: C_34  and  C_35 
REMARK   27  A    between atoms: C_35  and  C_36 
REMARK   28  A    between atoms: C_36  and  C_37 
REMARK   29  A    between atoms: C_37  and  C_38 
REMARK   30  A    between atoms: C_38  and  C_39 
REMARK   31  A    between atoms: C_39  and  C_40 
REMARK   32  A    between atoms: C_40  and  O_42 
REMARK   33  A    between atoms: C_45  and  C_46 
REMARK   34  A    between atoms: C_46  and  C_47 
REMARK   35  A    between atoms: C_47  and  C_48 
REMARK   36  A    between atoms: C_48  and  C_49 
REMARK   37  A    between atoms: C_49  and  C_50 
REMARK   38  A    between atoms: C_50  and  C_51 
REMARK   39  A    between atoms: C_51  and  C_52 
REMARK   40  A    between atoms: C_52  and  C_53 
REMARK   41  A    between atoms: C_53  and  C_54 
REMARK   42  A    between atoms: C_54  and  C_55 
REMARK   43  A    between atoms: C_55  and  C_56 
REMARK   44  A    between atoms: C_56  and  C_57 
REMARK   45  A    between atoms: C_57  and  C_58 
REMARK   46  A    between atoms: C_58  and  C_59 
REMARK   47  A    between atoms: C_59  and  C_60 
REMARK   48  A    between atoms: C_60  and  C_61 
REMARK   49  A    between atoms: C_61  and  O_63 
REMARK   50  A    between atoms: O_66  and  C_67 
REMARK   51  A    between atoms: C_68  and  O_77 
REMARK   52  A    between atoms: C_69  and  O_76 
REMARK   53  A    between atoms: C_70  and  O_75 
REMARK   54  A    between atoms: C_71  and  C_73 
REMARK   55  A    between atoms: C_73  and  O_74 
REMARK   56  A    between atoms: O_83  and  C_84 
REMARK   57  A    between atoms: C_85  and  O_94 
REMARK   58  A    between atoms: C_86  and  O_93 
REMARK   59  A    between atoms: C_87  and  O_92 
REMARK   60  A    between atoms: C_88  and  C_90 
REMARK   61  A    between atoms: C_90  and  O_91 
ROOT
HETATM    1  C   UNL     2     -21.579  -6.346  -3.815  1.00  0.00     0.000 C 
ENDROOT
BRANCH   1   2
HETATM    2  C   UNL     2     -21.178  -6.792  -2.482  1.00  0.00     0.000 C 
BRANCH   2   3
HETATM    3  C   UNL     2     -22.169  -6.167  -1.574  1.00  0.00     0.000 C 
BRANCH   3   4
HETATM    4  C   UNL     2     -22.516  -7.302  -0.708  1.00  0.00     0.000 C 
BRANCH   4   5
HETATM    5  C   UNL     2     -21.291  -8.096  -0.406  1.00  0.00     0.000 C 
BRANCH   5   6
HETATM    6  C   UNL     2     -21.867  -9.269   0.362  1.00  0.00     0.000 C 
BRANCH   6   7
HETATM    7  C   UNL     2     -23.315  -9.218   0.249  1.00  0.00     0.000 C 
BRANCH   7   8
HETATM    8  C   UNL     2     -23.756 -10.628  -0.222  1.00  0.00     0.000 C 
BRANCH   8   9
HETATM    9  C   UNL     2     -23.393 -12.483   0.363  1.00  0.00    -0.000 C 
BRANCH   9  10
HETATM   10  C   UNL     2     -23.519 -13.710   1.910  1.00  0.00    -0.005 C 
HETATM   11  C   UNL     2     -24.224 -14.766   3.264  1.00  0.00     0.005 C 
ENDBRANCH   9  10
ENDBRANCH   8   9
ENDBRANCH   7   8
ENDBRANCH   6   7
ENDBRANCH   5   6
ENDBRANCH   4   5
ENDBRANCH   3   4
ENDBRANCH   2   3
ENDBRANCH   1   2
BRANCH   1  12
HETATM   12  C   UNL     2     -21.164  -7.440  -4.711  1.00  0.00     0.000 C 
BRANCH  12  13
HETATM   13  C   UNL     2     -21.220  -6.750  -5.995  1.00  0.00     0.000 C 
BRANCH  13  14
HETATM   14  C   UNL     2     -20.271  -5.636  -5.849  1.00  0.00     0.000 C 
BRANCH  14  15
HETATM   15  C   UNL     2     -20.219  -5.082  -7.212  1.00  0.00     0.001 C 
BRANCH  15  16
HETATM   16  C   UNL     2     -21.624  -5.130  -7.593  1.00  0.00     0.010 C 
BRANCH  16  17
HETATM   17  C   UNL     2     -21.990  -3.710  -7.978  1.00  0.00     0.110 C 
BRANCH  17  18
HETATM   18  C   UNL     2     -22.467  -3.783  -8.844  1.00  0.00     0.139 C 
HETATM   19  O   UNL     2     -21.917  -3.588 -10.064  1.00  0.00    -0.650 OA
BRANCH  18  20
HETATM   20  O   UNL     2     -23.556  -4.076  -8.340  1.00  0.00    -0.776 OA
HETATM   21  H   UNL     2     -24.055  -3.990  -7.185  1.00  0.00     0.167 HD
ENDBRANCH  18  20
ENDBRANCH  17  18
ENDBRANCH  16  17
ENDBRANCH  15  16
ENDBRANCH  14  15
ENDBRANCH  13  14
ENDBRANCH  12  13
ENDBRANCH   1  12
TORSDOF 61
ENDMDL
MODEL 5
REMARK VINA RESULT:      -6.6      5.421     11.118
REMARK WARNING: 32 MAX_TORS EXCEEDED!!!
REMARK  61 active torsions:
REMARK  status: ('A' for Active; 'I' for Inactive)
REMARK    1  A    between atoms: C_2  and  C_3 
REMARK    2  A    between atoms: C_3  and  C_4 
REMARK    3  A    between atoms: C_4  and  C_5 
REMARK    4  A    between atoms: C_5  and  C_6 
REMARK    5  A    between atoms: C_6  and  C_7 
REMARK    6  A    between atoms: C_7  and  C_8 
REMARK    7  A    between atoms: C_8  and  C_9 
REMARK    8  A    between atoms: C_9  and  C_10 
REMARK    9  A    between atoms: C_10  and  C_11 
REMARK   10  A    between atoms: C_11  and  C_12 
REMARK   11  A    between atoms: C_12  and  C_13 
REMARK   12  A    between atoms: C_14  and  C_15 
REMARK   13  A    between atoms: C_15  and  C_16 
REMARK   14  A    between atoms: C_16  and  C_17 
REMARK   15  A    between atoms: C_18  and  O_19 
REMARK   16  A    between atoms: C_24  and  C_25 
REMARK   17  A    between atoms: C_25  and  C_26 
REMARK   18  A    between atoms: C_26  and  C_27 
REMARK   19  A    between atoms: C_27  and  C_28 
REMARK   20  A    between atoms: C_28  and  C_29 
REMARK   21  A    between atoms: C_29  and  C_30 
REMARK   22  A    between atoms: C_30  and  C_31 
REMARK   23  A    between atoms: C_31  and  C_32 
REMARK   24  A    between atoms: C_32  and  C_33 
REMARK   25  A    between atoms: C_33  and  C_34 
REMARK   26  A    between atoms: C_34  and  C_35 
REMARK   27  A    between atoms: C_35  and  C_36 
REMARK   28  A    between atoms: C_36  and  C_37 
REMARK   29  A    between atoms: C_37  and  C_38 
REMARK   30  A    between atoms: C_38  and  C_39 
REMARK   31  A    between atoms: C_39  and  C_40 
REMARK   32  A    between atoms: C_40  and  O_42 
REMARK   33  A    between atoms: C_45  and  C_46 
REMARK   34  A    between atoms: C_46  and  C_47 
REMARK   35  A    between atoms: C_47  and  C_48 
REMARK   36  A    between atoms: C_48  and  C_49 
REMARK   37  A    between atoms: C_49  and  C_50 
REMARK   38  A    between atoms: C_50  and  C_51 
REMARK   39  A    between atoms: C_51  and  C_52 
REMARK   40  A    between atoms: C_52  and  C_53 
REMARK   41  A    between atoms: C_53  and  C_54 
REMARK   42  A    between atoms: C_54  and  C_55 
REMARK   43  A    between atoms: C_55  and  C_56 
REMARK   44  A    between atoms: C_56  and  C_57 
REMARK   45  A    between atoms: C_57  and  C_58 
REMARK   46  A    between atoms: C_58  and  C_59 
REMARK   47  A    between atoms: C_59  and  C_60 
REMARK   48  A    between atoms: C_60  and  C_61 
REMARK   49  A    between atoms: C_61  and  O_63 
REMARK   50  A    between atoms: O_66  and  C_67 
REMARK   51  A    between atoms: C_68  and  O_77 
REMARK   52  A    between atoms: C_69  and  O_76 
REMARK   53  A    between atoms: C_70  and  O_75 
REMARK   54  A    between atoms: C_71  and  C_73 
REMARK   55  A    between atoms: C_73  and  O_74 
REMARK   56  A    between atoms: O_83  and  C_84 
REMARK   57  A    between atoms: C_85  and  O_94 
REMARK   58  A    between atoms: C_86  and  O_93 
REMARK   59  A    between atoms: C_87  and  O_92 
REMARK   60  A    between atoms: C_88  and  C_90 
REMARK   61  A    between atoms: C_90  and  O_91 
ROOT
HETATM    1  C   UNL     2     -21.428  -7.746  -3.046  1.00  0.00     0.000 C 
ENDROOT
BRANCH   1   2
HETATM    2  C   UNL     2     -21.145  -7.448  -4.448  1.00  0.00     0.000 C 
BRANCH   2   3
HETATM    3  C   UNL     2     -21.892  -6.195  -4.713  1.00  0.00     0.000 C 
BRANCH   3   4
HETATM    4  C   UNL     2     -21.324  -5.795  -6.008  1.00  0.00     0.000 C 
BRANCH   4   5
HETATM    5  C   UNL     2     -20.220  -4.817  -5.791  1.00  0.00     0.000 C 
BRANCH   5   6
HETATM    6  C   UNL     2     -19.470  -4.906  -7.105  1.00  0.00     0.000 C 
BRANCH   6   7
HETATM    7  C   UNL     2     -19.983  -3.876  -7.991  1.00  0.00     0.000 C 
BRANCH   7   8
HETATM    8  C   UNL     2     -20.219  -4.568  -9.360  1.00  0.00     0.000 C 
BRANCH   8   9
HETATM    9  C   UNL     2     -20.655  -3.953 -11.189  1.00  0.00    -0.000 C 
BRANCH   9  10
HETATM   10  C   UNL     2     -22.115  -3.228 -12.311  1.00  0.00    -0.005 C 
HETATM   11  C   UNL     2     -23.182  -2.853 -13.782  1.00  0.00     0.005 C 
ENDBRANCH   9  10
ENDBRANCH   8   9
ENDBRANCH   7   8
ENDBRANCH   6   7
ENDBRANCH   5   6
ENDBRANCH   4   5
ENDBRANCH   3   4
ENDBRANCH   2   3
ENDBRANCH   1   2
BRANCH   1  12
HETATM   12  C   UNL     2     -21.753  -6.439  -2.448  1.00  0.00     0.000 C 
BRANCH  12  13
HETATM   13  C   UNL     2     -22.295  -6.874  -1.166  1.00  0.00     0.000 C 
BRANCH  13  14
HETATM   14  C   UNL     2     -21.350  -7.904  -0.705  1.00  0.00     0.000 C 
BRANCH  14  15
HETATM   15  C   UNL     2     -21.937  -8.323   0.577  1.00  0.00     0.001 C 
BRANCH  15  16
HETATM   16  C   UNL     2     -23.060  -9.134   0.126  1.00  0.00     0.010 C 
BRANCH  16  17
HETATM   17  C   UNL     2     -22.476 -10.495  -0.198  1.00  0.00     0.110 C 
BRANCH  17  18
HETATM   18  C   UNL     2     -23.194 -11.148   0.002  1.00  0.00     0.139 C 
HETATM   19  O   UNL     2     -24.515 -10.866   0.076  1.00  0.00    -0.650 OA
BRANCH  18  20
HETATM   20  O   UNL     2     -22.432 -12.113   0.115  1.00  0.00    -0.776 OA
HETATM   21  H   UNL     2     -21.870 -12.903  -0.691  1.00  0.00     0.167 HD
ENDBRANCH  18  20
ENDBRANCH  17  18
ENDBRANCH  16  17
ENDBRANCH  15  16
ENDBRANCH  14  15
ENDBRANCH  13  14
ENDBRANCH  12  13
ENDBRANCH   1  12
TORSDOF 61
ENDMDL
MODEL 6
REMARK VINA RESULT:      -6.6      2.360      4.888
REMARK WARNING: 32 MAX_TORS EXCEEDED!!!
REMARK  61 active torsions:
REMARK  status: ('A' for Active; 'I' for Inactive)
REMARK    1  A    between atoms: C_2  and  C_3 
REMARK    2  A    between atoms: C_3  and  C_4 
REMARK    3  A    between atoms: C_4  and  C_5 
REMARK    4  A    between atoms: C_5  and  C_6 
REMARK    5  A    between atoms: C_6  and  C_7 
REMARK    6  A    between atoms: C_7  and  C_8 
REMARK    7  A    between atoms: C_8  and  C_9 
REMARK    8  A    between atoms: C_9  and  C_10 
REMARK    9  A    between atoms: C_10  and  C_11 
REMARK   10  A    between atoms: C_11  and  C_12 
REMARK   11  A    between atoms: C_12  and  C_13 
REMARK   12  A    between atoms: C_14  and  C_15 
REMARK   13  A    between atoms: C_15  and  C_16 
REMARK   14  A    between atoms: C_16  and  C_17 
REMARK   15  A    between atoms: C_18  and  O_19 
REMARK   16  A    between atoms: C_24  and  C_25 
REMARK   17  A    between atoms: C_25  and  C_26 
REMARK   18  A    between atoms: C_26  and  C_27 
REMARK   19  A    between atoms: C_27  and  C_28 
REMARK   20  A    between atoms: C_28  and  C_29 
REMARK   21  A    between atoms: C_29  and  C_30 
REMARK   22  A    between atoms: C_30  and  C_31 
REMARK   23  A    between atoms: C_31  and  C_32 
REMARK   24  A    between atoms: C_32  and  C_33 
REMARK   25  A    between atoms: C_33  and  C_34 
REMARK   26  A    between atoms: C_34  and  C_35 
REMARK   27  A    between atoms: C_35  and  C_36 
REMARK   28  A    between atoms: C_36  and  C_37 
REMARK   29  A    between atoms: C_37  and  C_38 
REMARK   30  A    between atoms: C_38  and  C_39 
REMARK   31  A    between atoms: C_39  and  C_40 
REMARK   32  A    between atoms: C_40  and  O_42 
REMARK   33  A    between atoms: C_45  and  C_46 
REMARK   34  A    between atoms: C_46  and  C_47 
REMARK   35  A    between atoms: C_47  and  C_48 
REMARK   36  A    between atoms: C_48  and  C_49 
REMARK   37  A    between atoms: C_49  and  C_50 
REMARK   38  A    between atoms: C_50  and  C_51 
REMARK   39  A    between atoms: C_51  and  C_52 
REMARK   40  A    between atoms: C_52  and  C_53 
REMARK   41  A    between atoms: C_53  and  C_54 
REMARK   42  A    between atoms: C_54  and  C_55 
REMARK   43  A    between atoms: C_55  and  C_56 
REMARK   44  A    between atoms: C_56  and  C_57 
REMARK   45  A    between atoms: C_57  and  C_58 
REMARK   46  A    between atoms: C_58  and  C_59 
REMARK   47  A    between atoms: C_59  and  C_60 
REMARK   48  A    between atoms: C_60  and  C_61 
REMARK   49  A    between atoms: C_61  and  O_63 
REMARK   50  A    between atoms: O_66  and  C_67 
REMARK   51  A    between atoms: C_68  and  O_77 
REMARK   52  A    between atoms: C_69  and  O_76 
REMARK   53  A    between atoms: C_70  and  O_75 
REMARK   54  A    between atoms: C_71  and  C_73 
REMARK   55  A    between atoms: C_73  and  O_74 
REMARK   56  A    between atoms: O_83  and  C_84 
REMARK   57  A    between atoms: C_85  and  O_94 
REMARK   58  A    between atoms: C_86  and  O_93 
REMARK   59  A    between atoms: C_87  and  O_92 
REMARK   60  A    between atoms: C_88  and  C_90 
REMARK   61  A    between atoms: C_90  and  O_91 
ROOT
HETATM    1  C   UNL     2     -21.949  -6.618  -4.524  1.00  0.00     0.000 C 
ENDROOT
BRANCH   1   2
HETATM    2  C   UNL     2     -21.523  -6.957  -3.168  1.00  0.00     0.000 C 
BRANCH   2   3
HETATM    3  C   UNL     2     -22.363  -6.101  -2.296  1.00  0.00     0.000 C 
BRANCH   3   4
HETATM    4  C   UNL     2     -22.132  -6.720  -0.983  1.00  0.00     0.000 C 
BRANCH   4   5
HETATM    5  C   UNL     2     -21.278  -7.931  -1.143  1.00  0.00     0.000 C 
BRANCH   5   6
HETATM    6  C   UNL     2     -21.496  -8.636   0.181  1.00  0.00     0.000 C 
BRANCH   6   7
HETATM    7  C   UNL     2     -22.911  -8.938   0.307  1.00  0.00     0.000 C 
BRANCH   7   8
HETATM    8  C   UNL     2     -23.129 -10.280  -0.441  1.00  0.00     0.000 C 
BRANCH   8   9
HETATM    9  C   UNL     2     -23.007 -10.876  -2.324  1.00  0.00    -0.000 C 
BRANCH   9  10
HETATM   10  C   UNL     2     -22.090 -10.522  -4.041  1.00  0.00    -0.005 C 
HETATM   11  C   UNL     2     -20.864 -10.612  -5.431  1.00  0.00     0.005 C 
ENDBRANCH   9  10
ENDBRANCH   8   9
ENDBRANCH   7   8
ENDBRANCH   6   7
ENDBRANCH   5   6
ENDBRANCH   4   5
ENDBRANCH   3   4
ENDBRANCH   2   3
ENDBRANCH   1   2
BRANCH   1  12
HETATM   12  C   UNL     2     -20.701  -6.574  -5.305  1.00  0.00     0.000 C 
BRANCH  12  13
HETATM   13  C   UNL     2     -20.371  -5.159  -5.176  1.00  0.00     0.000 C 
BRANCH  13  14
HETATM   14  C   UNL     2     -20.716  -4.587  -6.487  1.00  0.00     0.000 C 
BRANCH  14  15
HETATM   15  C   UNL     2     -20.029  -5.493  -7.420  1.00  0.00     0.001 C 
BRANCH  15  16
HETATM   16  C   UNL     2     -19.950  -4.666  -8.616  1.00  0.00     0.010 C 
BRANCH  16  17
HETATM   17  C   UNL     2     -21.380  -4.498  -9.090  1.00  0.00     0.110 C 
BRANCH  17  18
HETATM   18  C   UNL     2     -21.316  -4.238 -10.045  1.00  0.00     0.139 C 
HETATM   19  O   UNL     2     -20.213  -4.352 -10.819  1.00  0.00    -0.650 OA
BRANCH  18  20
HETATM   20  O   UNL     2     -22.486  -3.854 -10.128  1.00  0.00    -0.776 OA
HETATM   21  H   UNL     2     -23.531  -4.026  -9.444  1.00  0.00     0.167 HD
ENDBRANCH  18  20
ENDBRANCH  17  18
ENDBRANCH  16  17
ENDBRANCH  15  16
ENDBRANCH  14  15
ENDBRANCH  13  14
ENDBRANCH  12  13
ENDBRANCH   1  12
TORSDOF 61
ENDMDL
MODEL 7
REMARK VINA RESULT:      -6.6      2.419      4.189
REMARK WARNING: 32 MAX_TORS EXCEEDED!!!
REMARK  61 active torsions:
REMARK  status: ('A' for Active; 'I' for Inactive)
REMARK    1  A    between atoms: C_2  and  C_3 
REMARK    2  A    between atoms: C_3  and  C_4 
REMARK    3  A    between atoms: C_4  and  C_5 
REMARK    4  A    between atoms: C_5  and  C_6 
REMARK    5  A    between atoms: C_6  and  C_7 
REMARK    6  A    between atoms: C_7  and  C_8 
REMARK    7  A    between atoms: C_8  and  C_9 
REMARK    8  A    between atoms: C_9  and  C_10 
REMARK    9  A    between atoms: C_10  and  C_11 
REMARK   10  A    between atoms: C_11  and  C_12 
REMARK   11  A    between atoms: C_12  and  C_13 
REMARK   12  A    between atoms: C_14  and  C_15 
REMARK   13  A    between atoms: C_15  and  C_16 
REMARK   14  A    between atoms: C_16  and  C_17 
REMARK   15  A    between atoms: C_18  and  O_19 
REMARK   16  A    between atoms: C_24  and  C_25 
REMARK   17  A    between atoms: C_25  and  C_26 
REMARK   18  A    between atoms: C_26  and  C_27 
REMARK   19  A    between atoms: C_27  and  C_28 
REMARK   20  A    between atoms: C_28  and  C_29 
REMARK   21  A    between atoms: C_29  and  C_30 
REMARK   22  A    between atoms: C_30  and  C_31 
REMARK   23  A    between atoms: C_31  and  C_32 
REMARK   24  A    between atoms: C_32  and  C_33 
REMARK   25  A    between atoms: C_33  and  C_34 
REMARK   26  A    between atoms: C_34  and  C_35 
REMARK   27  A    between atoms: C_35  and  C_36 
REMARK   28  A    between atoms: C_36  and  C_37 
REMARK   29  A    between atoms: C_37  and  C_38 
REMARK   30  A    between atoms: C_38  and  C_39 
REMARK   31  A    between atoms: C_39  and  C_40 
REMARK   32  A    between atoms: C_40  and  O_42 
REMARK   33  A    between atoms: C_45  and  C_46 
REMARK   34  A    between atoms: C_46  and  C_47 
REMARK   35  A    between atoms: C_47  and  C_48 
REMARK   36  A    between atoms: C_48  and  C_49 
REMARK   37  A    between atoms: C_49  and  C_50 
REMARK   38  A    between atoms: C_50  and  C_51 
REMARK   39  A    between atoms: C_51  and  C_52 
REMARK   40  A    between atoms: C_52  and  C_53 
REMARK   41  A    between atoms: C_53  and  C_54 
REMARK   42  A    between atoms: C_54  and  C_55 
REMARK   43  A    between atoms: C_55  and  C_56 
REMARK   44  A    between atoms: C_56  and  C_57 
REMARK   45  A    between atoms: C_57  and  C_58 
REMARK   46  A    between atoms: C_58  and  C_59 
REMARK   47  A    between atoms: C_59  and  C_60 
REMARK   48  A    between atoms: C_60  and  C_61 
REMARK   49  A    between atoms: C_61  and  O_63 
REMARK   50  A    between atoms: O_66  and  C_67 
REMARK   51  A    between atoms: C_68  and  O_77 
REMARK   52  A    between atoms: C_69  and  O_76 
REMARK   53  A    between atoms: C_70  and  O_75 
REMARK   54  A    between atoms: C_71  and  C_73 
REMARK   55  A    between atoms: C_73  and  O_74 
REMARK   56  A    between atoms: O_83  and  C_84 
REMARK   57  A    between atoms: C_85  and  O_94 
REMARK   58  A    between atoms: C_86  and  O_93 
REMARK   59  A    between atoms: C_87  and  O_92 
REMARK   60  A    between atoms: C_88  and  C_90 
REMARK   61  A    between atoms: C_90  and  O_91 
ROOT
HETATM    1  C   UNL     2     -20.863  -6.491  -5.843  1.00  0.00     0.000 C 
ENDROOT
BRANCH   1   2
HETATM    2  C   UNL     2     -21.813  -6.924  -4.820  1.00  0.00     0.000 C 
BRANCH   2   3
HETATM    3  C   UNL     2     -21.300  -6.322  -3.566  1.00  0.00     0.000 C 
BRANCH   3   4
HETATM    4  C   UNL     2     -22.359  -6.693  -2.618  1.00  0.00     0.000 C 
BRANCH   4   5
HETATM    5  C   UNL     2     -21.936  -6.346  -1.231  1.00  0.00     0.000 C 
BRANCH   5   6
HETATM    6  C   UNL     2     -22.729  -7.343  -0.410  1.00  0.00     0.000 C 
BRANCH   6   7
HETATM    7  C   UNL     2     -21.813  -8.018   0.492  1.00  0.00     0.000 C 
BRANCH   7   8
HETATM    8  C   UNL     2     -21.649  -9.457  -0.065  1.00  0.00     0.000 C 
BRANCH   8   9
HETATM    9  C   UNL     2     -20.890 -10.249  -1.713  1.00  0.00    -0.000 C 
BRANCH   9  10
HETATM   10  C   UNL     2     -19.947  -9.805  -3.394  1.00  0.00    -0.005 C 
HETATM   11  C   UNL     2     -18.632  -9.243  -4.577  1.00  0.00     0.005 C 
ENDBRANCH   9  10
ENDBRANCH   8   9
ENDBRANCH   7   8
ENDBRANCH   6   7
ENDBRANCH   5   6
ENDBRANCH   4   5
ENDBRANCH   3   4
ENDBRANCH   2   3
ENDBRANCH   1   2
BRANCH   1  12
HETATM   12  C   UNL     2     -20.806  -5.026  -5.698  1.00  0.00     0.000 C 
BRANCH  12  13
HETATM   13  C   UNL     2     -19.994  -4.688  -6.862  1.00  0.00     0.000 C 
BRANCH  13  14
HETATM   14  C   UNL     2     -20.863  -4.992  -8.010  1.00  0.00     0.000 C 
BRANCH  14  15
HETATM   15  C   UNL     2     -21.654  -3.759  -8.145  1.00  0.00     0.001 C 
BRANCH  15  16
HETATM   16  C   UNL     2     -22.370  -4.014  -9.388  1.00  0.00     0.010 C 
BRANCH  16  17
HETATM   17  C   UNL     2     -23.818  -4.218  -8.991  1.00  0.00     0.110 C 
BRANCH  17  18
HETATM   18  C   UNL     2     -24.344  -4.075  -9.819  1.00  0.00     0.139 C 
HETATM   19  O   UNL     2     -25.292  -3.126  -9.994  1.00  0.00    -0.650 OA
BRANCH  18  20
HETATM   20  O   UNL     2     -23.807  -4.993 -10.445  1.00  0.00    -0.776 OA
HETATM   21  H   UNL     2     -22.616  -5.358 -10.643  1.00  0.00     0.167 HD
ENDBRANCH  18  20
ENDBRANCH  17  18
ENDBRANCH  16  17
ENDBRANCH  15  16
ENDBRANCH  14  15
ENDBRANCH  13  14
ENDBRANCH  12  13
ENDBRANCH   1  12
TORSDOF 61
ENDMDL
MODEL 8
REMARK VINA RESULT:      -6.5      1.497      2.093
REMARK WARNING: 32 MAX_TORS EXCEEDED!!!
REMARK  61 active torsions:
REMARK  status: ('A' for Active; 'I' for Inactive)
REMARK    1  A    between atoms: C_2  and  C_3 
REMARK    2  A    between atoms: C_3  and  C_4 
REMARK    3  A    between atoms: C_4  and  C_5 
REMARK    4  A    between atoms: C_5  and  C_6 
REMARK    5  A    between atoms: C_6  and  C_7 
REMARK    6  A    between atoms: C_7  and  C_8 
REMARK    7  A    between atoms: C_8  and  C_9 
REMARK    8  A    between atoms: C_9  and  C_10 
REMARK    9  A    between atoms: C_10  and  C_11 
REMARK   10  A    between atoms: C_11  and  C_12 
REMARK   11  A    between atoms: C_12  and  C_13 
REMARK   12  A    between atoms: C_14  and  C_15 
REMARK   13  A    between atoms: C_15  and  C_16 
REMARK   14  A    between atoms: C_16  and  C_17 
REMARK   15  A    between atoms: C_18  and  O_19 
REMARK   16  A    between atoms: C_24  and  C_25 
REMARK   17  A    between atoms: C_25  and  C_26 
REMARK   18  A    between atoms: C_26  and  C_27 
REMARK   19  A    between atoms: C_27  and  C_28 
REMARK   20  A    between atoms: C_28  and  C_29 
REMARK   21  A    between atoms: C_29  and  C_30 
REMARK   22  A    between atoms: C_30  and  C_31 
REMARK   23  A    between atoms: C_31  and  C_32 
REMARK   24  A    between atoms: C_32  and  C_33 
REMARK   25  A    between atoms: C_33  and  C_34 
REMARK   26  A    between atoms: C_34  and  C_35 
REMARK   27  A    between atoms: C_35  and  C_36 
REMARK   28  A    between atoms: C_36  and  C_37 
REMARK   29  A    between atoms: C_37  and  C_38 
REMARK   30  A    between atoms: C_38  and  C_39 
REMARK   31  A    between atoms: C_39  and  C_40 
REMARK   32  A    between atoms: C_40  and  O_42 
REMARK   33  A    between atoms: C_45  and  C_46 
REMARK   34  A    between atoms: C_46  and  C_47 
REMARK   35  A    between atoms: C_47  and  C_48 
REMARK   36  A    between atoms: C_48  and  C_49 
REMARK   37  A    between atoms: C_49  and  C_50 
REMARK   38  A    between atoms: C_50  and  C_51 
REMARK   39  A    between atoms: C_51  and  C_52 
REMARK   40  A    between atoms: C_52  and  C_53 
REMARK   41  A    between atoms: C_53  and  C_54 
REMARK   42  A    between atoms: C_54  and  C_55 
REMARK   43  A    between atoms: C_55  and  C_56 
REMARK   44  A    between atoms: C_56  and  C_57 
REMARK   45  A    between atoms: C_57  and  C_58 
REMARK   46  A    between atoms: C_58  and  C_59 
REMARK   47  A    between atoms: C_59  and  C_60 
REMARK   48  A    between atoms: C_60  and  C_61 
REMARK   49  A    between atoms: C_61  and  O_63 
REMARK   50  A    between atoms: O_66  and  C_67 
REMARK   51  A    between atoms: C_68  and  O_77 
REMARK   52  A    between atoms: C_69  and  O_76 
REMARK   53  A    between atoms: C_70  and  O_75 
REMARK   54  A    between atoms: C_71  and  C_73 
REMARK   55  A    between atoms: C_73  and  O_74 
REMARK   56  A    between atoms: O_83  and  C_84 
REMARK   57  A    between atoms: C_85  and  O_94 
REMARK   58  A    between atoms: C_86  and  O_93 
REMARK   59  A    between atoms: C_87  and  O_92 
REMARK   60  A    between atoms: C_88  and  C_90 
REMARK   61  A    between atoms: C_90  and  O_91 
ROOT
HETATM    1  C   UNL     2     -19.825  -3.679  -8.188  1.00  0.00     0.000 C 
ENDROOT
BRANCH   1   2
HETATM    2  C   UNL     2     -20.703  -4.001  -7.065  1.00  0.00     0.000 C 
BRANCH   2   3
HETATM    3  C   UNL     2     -19.830  -4.735  -6.117  1.00  0.00     0.000 C 
BRANCH   3   4
HETATM    4  C   UNL     2     -20.738  -5.794  -5.656  1.00  0.00     0.000 C 
BRANCH   4   5
HETATM    5  C   UNL     2     -20.062  -7.118  -5.770  1.00  0.00     0.000 C 
BRANCH   5   6
HETATM    6  C   UNL     2     -20.501  -7.798  -4.489  1.00  0.00     0.000 C 
BRANCH   6   7
HETATM    7  C   UNL     2     -20.009  -9.165  -4.509  1.00  0.00     0.000 C 
BRANCH   7   8
HETATM    8  C   UNL     2     -21.131 -10.031  -3.879  1.00  0.00     0.000 C 
BRANCH   8   9
HETATM    9  C   UNL     2     -21.869 -10.268  -2.058  1.00  0.00    -0.000 C 
BRANCH   9  10
HETATM   10  C   UNL     2     -22.752  -9.310  -0.569  1.00  0.00    -0.005 C 
HETATM   11  C   UNL     2     -23.126  -8.031   0.722  1.00  0.00     0.005 C 
ENDBRANCH   9  10
ENDBRANCH   8   9
ENDBRANCH   7   8
ENDBRANCH   6   7
ENDBRANCH   5   6
ENDBRANCH   4   5
ENDBRANCH   3   4
ENDBRANCH   2   3
ENDBRANCH   1   2
BRANCH   1  12
HETATM   12  C   UNL     2     -20.288  -4.550  -9.282  1.00  0.00     0.000 C 
BRANCH  12  13
HETATM   13  C   UNL     2     -21.710  -4.224  -9.280  1.00  0.00     0.000 C 
BRANCH  13  14
HETATM   14  C   UNL     2     -22.139  -4.475 -10.665  1.00  0.00     0.000 C 
BRANCH  14  15
HETATM   15  C   UNL     2     -21.448  -3.411 -11.410  1.00  0.00     0.001 C 
BRANCH  15  16
HETATM   16  C   UNL     2     -22.266  -3.325 -12.612  1.00  0.00     0.010 C 
BRANCH  16  17
HETATM   17  C   UNL     2     -23.605  -2.779 -12.156  1.00  0.00     0.110 C 
BRANCH  17  18
HETATM   18  C   UNL     2     -24.159  -2.713 -12.975  1.00  0.00     0.139 C 
HETATM   19  O   UNL     2     -23.706  -2.387 -14.207  1.00  0.00    -0.650 OA
BRANCH  18  20
HETATM   20  O   UNL     2     -25.216  -3.014 -12.412  1.00  0.00    -0.776 OA
HETATM   21  H   UNL     2     -26.200  -3.748 -12.699  1.00  0.00     0.167 HD
ENDBRANCH  18  20
ENDBRANCH  17  18
ENDBRANCH  16  17
ENDBRANCH  15  16
ENDBRANCH  14  15
ENDBRANCH  13  14
ENDBRANCH  12  13
ENDBRANCH   1  12
TORSDOF 61
ENDMDL
MODEL 9
REMARK VINA RESULT:      -6.4      1.937      2.777
REMARK WARNING: 32 MAX_TORS EXCEEDED!!!
REMARK  61 active torsions:
REMARK  status: ('A' for Active; 'I' for Inactive)
REMARK    1  A    between atoms: C_2  and  C_3 
REMARK    2  A    between atoms: C_3  and  C_4 
REMARK    3  A    between atoms: C_4  and  C_5 
REMARK    4  A    between atoms: C_5  and  C_6 
REMARK    5  A    between atoms: C_6  and  C_7 
REMARK    6  A    between atoms: C_7  and  C_8 
REMARK    7  A    between atoms: C_8  and  C_9 
REMARK    8  A    between atoms: C_9  and  C_10 
REMARK    9  A    between atoms: C_10  and  C_11 
REMARK   10  A    between atoms: C_11  and  C_12 
REMARK   11  A    between atoms: C_12  and  C_13 
REMARK   12  A    between atoms: C_14  and  C_15 
REMARK   13  A    between atoms: C_15  and  C_16 
REMARK   14  A    between atoms: C_16  and  C_17 
REMARK   15  A    between atoms: C_18  and  O_19 
REMARK   16  A    between atoms: C_24  and  C_25 
REMARK   17  A    between atoms: C_25  and  C_26 
REMARK   18  A    between atoms: C_26  and  C_27 
REMARK   19  A    between atoms: C_27  and  C_28 
REMARK   20  A    between atoms: C_28  and  C_29 
REMARK   21  A    between atoms: C_29  and  C_30 
REMARK   22  A    between atoms: C_30  and  C_31 
REMARK   23  A    between atoms: C_31  and  C_32 
REMARK   24  A    between atoms: C_32  and  C_33 
REMARK   25  A    between atoms: C_33  and  C_34 
REMARK   26  A    between atoms: C_34  and  C_35 
REMARK   27  A    between atoms: C_35  and  C_36 
REMARK   28  A    between atoms: C_36  and  C_37 
REMARK   29  A    between atoms: C_37  and  C_38 
REMARK   30  A    between atoms: C_38  and  C_39 
REMARK   31  A    between atoms: C_39  and  C_40 
REMARK   32  A    between atoms: C_40  and  O_42 
REMARK   33  A    between atoms: C_45  and  C_46 
REMARK   34  A    between atoms: C_46  and  C_47 
REMARK   35  A    between atoms: C_47  and  C_48 
REMARK   36  A    between atoms: C_48  and  C_49 
REMARK   37  A    between atoms: C_49  and  C_50 
REMARK   38  A    between atoms: C_50  and  C_51 
REMARK   39  A    between atoms: C_51  and  C_52 
REMARK   40  A    between atoms: C_52  and  C_53 
REMARK   41  A    between atoms: C_53  and  C_54 
REMARK   42  A    between atoms: C_54  and  C_55 
REMARK   43  A    between atoms: C_55  and  C_56 
REMARK   44  A    between atoms: C_56  and  C_57 
REMARK   45  A    between atoms: C_57  and  C_58 
REMARK   46  A    between atoms: C_58  and  C_59 
REMARK   47  A    between atoms: C_59  and  C_60 
REMARK   48  A    between atoms: C_60  and  C_61 
REMARK   49  A    between atoms: C_61  and  O_63 
REMARK   50  A    between atoms: O_66  and  C_67 
REMARK   51  A    between atoms: C_68  and  O_77 
REMARK   52  A    between atoms: C_69  and  O_76 
REMARK   53  A    between atoms: C_70  and  O_75 
REMARK   54  A    between atoms: C_71  and  C_73 
REMARK   55  A    between atoms: C_73  and  O_74 
REMARK   56  A    between atoms: O_83  and  C_84 
REMARK   57  A    between atoms: C_85  and  O_94 
REMARK   58  A    between atoms: C_86  and  O_93 
REMARK   59  A    between atoms: C_87  and  O_92 
REMARK   60  A    between atoms: C_88  and  C_90 
REMARK   61  A    between atoms: C_90  and  O_91 
ROOT
HETATM    1  C   UNL     2     -19.949  -4.850  -6.325  1.00  0.00     0.000 C 
ENDROOT
BRANCH   1   2
HETATM    2  C   UNL     2     -19.781  -6.295  -6.466  1.00  0.00     0.000 C 
BRANCH   2   3
HETATM    3  C   UNL     2     -21.113  -6.852  -6.124  1.00  0.00     0.000 C 
BRANCH   3   4
HETATM    4  C   UNL     2     -20.797  -7.617  -4.909  1.00  0.00     0.000 C 
BRANCH   4   5
HETATM    5  C   UNL     2     -21.859  -7.394  -3.887  1.00  0.00     0.000 C 
BRANCH   5   6
HETATM    6  C   UNL     2     -21.208  -6.360  -2.989  1.00  0.00     0.000 C 
BRANCH   6   7
HETATM    7  C   UNL     2     -22.131  -6.050  -1.912  1.00  0.00     0.000 C 
BRANCH   7   8
HETATM    8  C   UNL     2     -22.244  -7.342  -1.060  1.00  0.00     0.000 C 
BRANCH   8   9
HETATM    9  C   UNL     2     -21.037  -8.849  -0.626  1.00  0.00    -0.000 C 
BRANCH   9  10
HETATM   10  C   UNL     2     -19.824 -10.189  -1.429  1.00  0.00    -0.005 C 
HETATM   11  C   UNL     2     -18.487 -11.463  -1.615  1.00  0.00     0.005 C 
ENDBRANCH   9  10
ENDBRANCH   8   9
ENDBRANCH   7   8
ENDBRANCH   6   7
ENDBRANCH   5   6
ENDBRANCH   4   5
ENDBRANCH   3   4
ENDBRANCH   2   3
ENDBRANCH   1   2
BRANCH   1  12
HETATM   12  C   UNL     2     -20.465  -4.409  -7.633  1.00  0.00     0.000 C 
BRANCH  12  13
HETATM   13  C   UNL     2     -21.564  -3.554  -7.196  1.00  0.00     0.000 C 
BRANCH  13  14
HETATM   14  C   UNL     2     -22.749  -4.125  -7.854  1.00  0.00     0.000 C 
BRANCH  14  15
HETATM   15  C   UNL     2     -22.365  -4.105  -9.274  1.00  0.00     0.001 C 
BRANCH  15  16
HETATM   16  C   UNL     2     -23.425  -3.286  -9.846  1.00  0.00     0.010 C 
BRANCH  16  17
HETATM   17  C   UNL     2     -23.766  -3.930 -11.175  1.00  0.00     0.110 C 
BRANCH  17  18
HETATM   18  C   UNL     2     -24.296  -3.254 -11.671  1.00  0.00     0.139 C 
HETATM   19  O   UNL     2     -23.932  -2.670 -12.835  1.00  0.00    -0.650 OA
BRANCH  18  20
HETATM   20  O   UNL     2     -25.229  -3.238 -10.863  1.00  0.00    -0.776 OA
HETATM   21  H   UNL     2     -25.329  -3.381  -9.614  1.00  0.00     0.167 HD
ENDBRANCH  18  20
ENDBRANCH  17  18
ENDBRANCH  16  17
ENDBRANCH  15  16
ENDBRANCH  14  15
ENDBRANCH  13  14
ENDBRANCH  12  13
ENDBRANCH   1  12
TORSDOF 61
ENDMDL
