MODEL 1
REMARK VINA RESULT:      -8.5      0.000      0.000
REMARK  10 active torsions:
REMARK  status: ('A' for Active; 'I' for Inactive)
REMARK    1  A    between atoms: O_2  and  C_3 
REMARK    2  A    between atoms: C_5  and  C_6 
REMARK    3  A    between atoms: C_6  and  N_7 
REMARK       I    between atoms: N_7  and  C_8 
REMARK    4  A    between atoms: C_8  and  C_10 
REMARK    5  A    between atoms: C_10  and  C_11 
REMARK    6  A    between atoms: C_11  and  C_12 
REMARK    7  A    between atoms: C_12  and  C_13 
REMARK    8  A    between atoms: C_13  and  C_14 
REMARK    9  A    between atoms: C_15  and  C_16 
REMARK   10  A    between atoms: C_21  and  O_22 
ROOT
HETATM    1  N   UNL     1     -20.642  -5.450  -6.403  1.00  0.00    -0.357 N 
HETATM    2  C   UNL     1     -21.693  -6.133  -5.842  1.00  0.00     0.217 C 
HETATM    3  O   UNL     1     -22.814  -5.655  -5.709  1.00  0.00    -0.274 OA
HETATM    4  H   UNL     1     -19.728  -5.881  -6.461  1.00  0.00     0.162 HD
ENDROOT
BRANCH   1   5
HETATM    5  C   UNL     1     -20.795  -4.103  -6.907  1.00  0.00     0.161 C 
BRANCH   5   6
HETATM    6  C   UNL     1     -21.099  -4.081  -8.383  1.00  0.00    -0.038 A 
HETATM    7  C   UNL     1     -22.369  -3.697  -8.845  1.00  0.00     0.048 A 
HETATM    8  C   UNL     1     -22.682  -3.724 -10.211  1.00  0.00     0.101 A 
HETATM    9  C   UNL     1     -21.700  -4.145 -11.117  1.00  0.00     0.099 A 
HETATM   10  C   UNL     1     -20.434  -4.535 -10.676  1.00  0.00     0.040 A 
HETATM   11  C   UNL     1     -20.138  -4.505  -9.313  1.00  0.00     0.012 A 
BRANCH   8  12
HETATM   12  O   UNL     1     -23.893  -3.372 -10.745  1.00  0.00    -0.353 OA
HETATM   13  C   UNL     1     -24.998  -3.285  -9.856  1.00  0.00     0.210 C 
ENDBRANCH   8  12
BRANCH   9  14
HETATM   14  O   UNL     1     -21.989  -4.182 -12.456  1.00  0.00    -0.358 OA
HETATM   15  H   UNL     1     -22.117  -5.103 -12.730  1.00  0.00     0.217 HD
ENDBRANCH   9  14
ENDBRANCH   5   6
ENDBRANCH   1   5
BRANCH   2  16
HETATM   16  C   UNL     1     -21.334  -7.529  -5.373  1.00  0.00     0.103 C 
BRANCH  16  17
HETATM   17  C   UNL     1     -21.725  -7.762  -3.915  1.00  0.00     0.010 C 
BRANCH  17  18
HETATM   18  C   UNL     1     -21.142  -6.694  -2.984  1.00  0.00     0.004 C 
BRANCH  18  19
HETATM   19  C   UNL     1     -22.195  -6.199  -1.995  1.00  0.00     0.027 C 
BRANCH  19  20
HETATM   20  C   UNL     1     -22.338  -7.152  -0.845  1.00  0.00    -0.030 C 
HETATM   21  C   UNL     1     -21.502  -8.175  -0.621  1.00  0.00    -0.027 C 
BRANCH  21  22
HETATM   22  C   UNL     1     -21.646  -9.140   0.530  1.00  0.00    -0.001 C 
HETATM   23  C   UNL     1     -21.164 -10.529   0.116  1.00  0.00     0.013 C 
HETATM   24  C   UNL     1     -20.865  -8.638   1.743  1.00  0.00     0.013 C 
ENDBRANCH  21  22
ENDBRANCH  19  20
ENDBRANCH  18  19
ENDBRANCH  17  18
ENDBRANCH  16  17
ENDBRANCH   2  16
TORSDOF 10
ENDMDL
MODEL 2
REMARK VINA RESULT:      -7.8      2.690      9.460
REMARK  10 active torsions:
REMARK  status: ('A' for Active; 'I' for Inactive)
REMARK    1  A    between atoms: O_2  and  C_3 
REMARK    2  A    between atoms: C_5  and  C_6 
REMARK    3  A    between atoms: C_6  and  N_7 
REMARK       I    between atoms: N_7  and  C_8 
REMARK    4  A    between atoms: C_8  and  C_10 
REMARK    5  A    between atoms: C_10  and  C_11 
REMARK    6  A    between atoms: C_11  and  C_12 
REMARK    7  A    between atoms: C_12  and  C_13 
REMARK    8  A    between atoms: C_13  and  C_14 
REMARK    9  A    between atoms: C_15  and  C_16 
REMARK   10  A    between atoms: C_21  and  O_22 
ROOT
HETATM    1  N   UNL     1     -21.199  -6.217  -3.583  1.00  0.00    -0.357 N 
HETATM    2  C   UNL     1     -21.758  -6.183  -4.837  1.00  0.00     0.217 C 
HETATM    3  O   UNL     1     -22.968  -6.152  -5.034  1.00  0.00    -0.274 OA
HETATM    4  H   UNL     1     -20.194  -6.274  -3.476  1.00  0.00     0.162 HD
ENDROOT
BRANCH   1   5
HETATM    5  C   UNL     1     -22.012  -6.192  -2.388  1.00  0.00     0.161 C 
BRANCH   5   6
HETATM    6  C   UNL     1     -21.745  -7.378  -1.495  1.00  0.00    -0.038 A 
HETATM    7  C   UNL     1     -21.114  -8.526  -2.003  1.00  0.00     0.048 A 
HETATM    8  C   UNL     1     -20.908  -9.655  -1.198  1.00  0.00     0.101 A 
HETATM    9  C   UNL     1     -21.347  -9.621   0.132  1.00  0.00     0.099 A 
HETATM   10  C   UNL     1     -21.981  -8.491   0.652  1.00  0.00     0.040 A 
HETATM   11  C   UNL     1     -22.180  -7.375  -0.162  1.00  0.00     0.012 A 
BRANCH   8  12
HETATM   12  O   UNL     1     -20.308 -10.814  -1.613  1.00  0.00    -0.353 OA
HETATM   13  C   UNL     1     -18.899 -10.791  -1.796  1.00  0.00     0.210 C 
ENDBRANCH   8  12
BRANCH   9  14
HETATM   14  O   UNL     1     -21.158 -10.717   0.933  1.00  0.00    -0.358 OA
HETATM   15  H   UNL     1     -21.486 -10.521   1.824  1.00  0.00     0.217 HD
ENDBRANCH   9  14
ENDBRANCH   5   6
ENDBRANCH   1   5
BRANCH   2  16
HETATM   16  C   UNL     1     -20.742  -6.219  -5.961  1.00  0.00     0.103 C 
BRANCH  16  17
HETATM   17  C   UNL     1     -19.981  -4.901  -6.088  1.00  0.00     0.010 C 
BRANCH  17  18
HETATM   18  C   UNL     1     -20.706  -3.902  -6.995  1.00  0.00     0.004 C 
BRANCH  18  19
HETATM   19  C   UNL     1     -20.279  -4.077  -8.450  1.00  0.00     0.027 C 
BRANCH  19  20
HETATM   20  C   UNL     1     -21.457  -4.412  -9.317  1.00  0.00    -0.030 C 
HETATM   21  C   UNL     1     -22.727  -4.150  -8.977  1.00  0.00    -0.027 C 
BRANCH  21  22
HETATM   22  C   UNL     1     -23.914  -4.492  -9.842  1.00  0.00    -0.001 C 
HETATM   23  C   UNL     1     -24.895  -3.320  -9.878  1.00  0.00     0.013 C 
HETATM   24  C   UNL     1     -23.455  -4.851 -11.254  1.00  0.00     0.013 C 
ENDBRANCH  21  22
ENDBRANCH  19  20
ENDBRANCH  18  19
ENDBRANCH  17  18
ENDBRANCH  16  17
ENDBRANCH   2  16
TORSDOF 10
ENDMDL
MODEL 3
REMARK VINA RESULT:      -7.6     13.645     15.378
REMARK  10 active torsions:
REMARK  status: ('A' for Active; 'I' for Inactive)
REMARK    1  A    between atoms: O_2  and  C_3 
REMARK    2  A    between atoms: C_5  and  C_6 
REMARK    3  A    between atoms: C_6  and  N_7 
REMARK       I    between atoms: N_7  and  C_8 
REMARK    4  A    between atoms: C_8  and  C_10 
REMARK    5  A    between atoms: C_10  and  C_11 
REMARK    6  A    between atoms: C_11  and  C_12 
REMARK    7  A    between atoms: C_12  and  C_13 
REMARK    8  A    between atoms: C_13  and  C_14 
REMARK    9  A    between atoms: C_15  and  C_16 
REMARK   10  A    between atoms: C_21  and  O_22 
ROOT
HETATM    1  N   UNL     1     -33.141  -4.437 -15.244  1.00  0.00    -0.357 N 
HETATM    2  C   UNL     1     -34.069  -3.805 -14.453  1.00  0.00     0.217 C 
HETATM    3  O   UNL     1     -34.724  -2.837 -14.824  1.00  0.00    -0.274 OA
HETATM    4  H   UNL     1     -32.605  -5.213 -14.878  1.00  0.00     0.162 HD
ENDROOT
BRANCH   1   5
HETATM    5  C   UNL     1     -32.887  -4.012 -16.602  1.00  0.00     0.161 C 
BRANCH   5   6
HETATM    6  C   UNL     1     -31.534  -4.462 -17.094  1.00  0.00    -0.038 A 
HETATM    7  C   UNL     1     -31.219  -5.830 -17.165  1.00  0.00     0.048 A 
HETATM    8  C   UNL     1     -29.948  -6.260 -17.568  1.00  0.00     0.101 A 
HETATM    9  C   UNL     1     -28.986  -5.297 -17.900  1.00  0.00     0.099 A 
HETATM   10  C   UNL     1     -29.279  -3.934 -17.830  1.00  0.00     0.040 A 
HETATM   11  C   UNL     1     -30.549  -3.520 -17.426  1.00  0.00     0.012 A 
BRANCH   8  12
HETATM   12  O   UNL     1     -29.556  -7.569 -17.661  1.00  0.00    -0.353 OA
HETATM   13  C   UNL     1     -29.929  -8.281 -18.832  1.00  0.00     0.210 C 
ENDBRANCH   8  12
BRANCH   9  14
HETATM   14  O   UNL     1     -27.736  -5.699 -18.292  1.00  0.00    -0.358 OA
HETATM   15  H   UNL     1     -27.201  -4.917 -18.501  1.00  0.00     0.217 HD
ENDBRANCH   9  14
ENDBRANCH   5   6
ENDBRANCH   1   5
BRANCH   2  16
HETATM   16  C   UNL     1     -34.190  -4.396 -13.062  1.00  0.00     0.103 C 
BRANCH  16  17
HETATM   17  C   UNL     1     -32.957  -4.106 -12.208  1.00  0.00     0.010 C 
BRANCH  17  18
HETATM   18  C   UNL     1     -33.192  -2.949 -11.231  1.00  0.00     0.004 C 
BRANCH  18  19
HETATM   19  C   UNL     1     -34.643  -2.922 -10.757  1.00  0.00     0.027 C 
BRANCH  19  20
HETATM   20  C   UNL     1     -35.383  -1.766 -11.365  1.00  0.00    -0.030 C 
HETATM   21  C   UNL     1     -34.800  -0.833 -12.130  1.00  0.00    -0.027 C 
BRANCH  21  22
HETATM   22  C   UNL     1     -35.539   0.334 -12.737  1.00  0.00    -0.001 C 
HETATM   23  C   UNL     1     -34.665   1.024 -13.783  1.00  0.00     0.013 C 
HETATM   24  C   UNL     1     -36.852  -0.136 -13.359  1.00  0.00     0.013 C 
ENDBRANCH  21  22
ENDBRANCH  19  20
ENDBRANCH  18  19
ENDBRANCH  17  18
ENDBRANCH  16  17
ENDBRANCH   2  16
TORSDOF 10
ENDMDL
MODEL 4
REMARK VINA RESULT:      -7.6     13.514     16.108
REMARK  10 active torsions:
REMARK  status: ('A' for Active; 'I' for Inactive)
REMARK    1  A    between atoms: O_2  and  C_3 
REMARK    2  A    between atoms: C_5  and  C_6 
REMARK    3  A    between atoms: C_6  and  N_7 
REMARK       I    between atoms: N_7  and  C_8 
REMARK    4  A    between atoms: C_8  and  C_10 
REMARK    5  A    between atoms: C_10  and  C_11 
REMARK    6  A    between atoms: C_11  and  C_12 
REMARK    7  A    between atoms: C_12  and  C_13 
REMARK    8  A    between atoms: C_13  and  C_14 
REMARK    9  A    between atoms: C_15  and  C_16 
REMARK   10  A    between atoms: C_21  and  O_22 
ROOT
HETATM    1  N   UNL     1     -33.086  -4.489 -15.386  1.00  0.00    -0.357 N 
HETATM    2  C   UNL     1     -32.531  -4.095 -16.579  1.00  0.00     0.217 C 
HETATM    3  O   UNL     1     -33.043  -3.262 -17.318  1.00  0.00    -0.274 OA
HETATM    4  H   UNL     1     -32.636  -5.203 -14.828  1.00  0.00     0.162 HD
ENDROOT
BRANCH   1   5
HETATM    5  C   UNL     1     -34.322  -3.919 -14.899  1.00  0.00     0.161 C 
BRANCH   5   6
HETATM    6  C   UNL     1     -34.176  -3.348 -13.512  1.00  0.00    -0.038 A 
HETATM    7  C   UNL     1     -34.827  -2.153 -13.159  1.00  0.00     0.048 A 
HETATM    8  C   UNL     1     -34.656  -1.583 -11.891  1.00  0.00     0.101 A 
HETATM    9  C   UNL     1     -33.819  -2.227 -10.971  1.00  0.00     0.099 A 
HETATM   10  C   UNL     1     -33.160  -3.412 -11.305  1.00  0.00     0.040 A 
HETATM   11  C   UNL     1     -33.338  -3.967 -12.573  1.00  0.00     0.012 A 
BRANCH   8  12
HETATM   12  O   UNL     1     -35.247  -0.422 -11.468  1.00  0.00    -0.353 OA
HETATM   13  C   UNL     1     -36.496  -0.074 -12.050  1.00  0.00     0.210 C 
ENDBRANCH   8  12
BRANCH   9  14
HETATM   14  O   UNL     1     -33.637  -1.682  -9.727  1.00  0.00    -0.358 OA
HETATM   15  H   UNL     1     -33.303  -2.365  -9.125  1.00  0.00     0.217 HD
ENDBRANCH   9  14
ENDBRANCH   5   6
ENDBRANCH   1   5
BRANCH   2  16
HETATM   16  C   UNL     1     -31.236  -4.808 -16.916  1.00  0.00     0.103 C 
BRANCH  16  17
HETATM   17  C   UNL     1     -30.327  -3.957 -17.800  1.00  0.00     0.010 C 
BRANCH  17  18
HETATM   18  C   UNL     1     -28.876  -4.446 -17.775  1.00  0.00     0.004 C 
BRANCH  18  19
HETATM   19  C   UNL     1     -28.722  -5.741 -18.567  1.00  0.00     0.027 C 
BRANCH  19  20
HETATM   20  C   UNL     1     -27.281  -5.998 -18.899  1.00  0.00    -0.030 C 
HETATM   21  C   UNL     1     -26.872  -6.546 -20.051  1.00  0.00    -0.027 C 
BRANCH  21  22
HETATM   22  C   UNL     1     -25.425  -6.812 -20.386  1.00  0.00    -0.001 C 
HETATM   23  C   UNL     1     -24.620  -7.031 -19.106  1.00  0.00     0.013 C 
HETATM   24  C   UNL     1     -25.309  -8.025 -21.307  1.00  0.00     0.013 C 
ENDBRANCH  21  22
ENDBRANCH  19  20
ENDBRANCH  18  19
ENDBRANCH  17  18
ENDBRANCH  16  17
ENDBRANCH   2  16
TORSDOF 10
ENDMDL
MODEL 5
REMARK VINA RESULT:      -7.6     12.818     15.207
REMARK  10 active torsions:
REMARK  status: ('A' for Active; 'I' for Inactive)
REMARK    1  A    between atoms: O_2  and  C_3 
REMARK    2  A    between atoms: C_5  and  C_6 
REMARK    3  A    between atoms: C_6  and  N_7 
REMARK       I    between atoms: N_7  and  C_8 
REMARK    4  A    between atoms: C_8  and  C_10 
REMARK    5  A    between atoms: C_10  and  C_11 
REMARK    6  A    between atoms: C_11  and  C_12 
REMARK    7  A    between atoms: C_12  and  C_13 
REMARK    8  A    between atoms: C_13  and  C_14 
REMARK    9  A    between atoms: C_15  and  C_16 
REMARK   10  A    between atoms: C_21  and  O_22 
ROOT
HETATM    1  N   UNL     1     -33.547  -3.452 -17.097  1.00  0.00    -0.357 N 
HETATM    2  C   UNL     1     -34.369  -2.913 -16.137  1.00  0.00     0.217 C 
HETATM    3  O   UNL     1     -34.615  -3.469 -15.072  1.00  0.00    -0.274 OA
HETATM    4  H   UNL     1     -33.401  -2.965 -17.972  1.00  0.00     0.162 HD
ENDROOT
BRANCH   1   5
HETATM    5  C   UNL     1     -32.885  -4.723 -16.903  1.00  0.00     0.161 C 
BRANCH   5   6
HETATM    6  C   UNL     1     -31.384  -4.583 -16.887  1.00  0.00    -0.038 A 
HETATM    7  C   UNL     1     -30.599  -5.412 -16.066  1.00  0.00     0.048 A 
HETATM    8  C   UNL     1     -29.208  -5.256 -16.001  1.00  0.00     0.101 A 
HETATM    9  C   UNL     1     -28.606  -4.253 -16.772  1.00  0.00     0.099 A 
HETATM   10  C   UNL     1     -29.371  -3.418 -17.588  1.00  0.00     0.040 A 
HETATM   11  C   UNL     1     -30.755  -3.583 -17.642  1.00  0.00     0.012 A 
BRANCH   8  12
HETATM   12  O   UNL     1     -28.371  -6.015 -15.226  1.00  0.00    -0.353 OA
HETATM   13  C   UNL     1     -28.003  -7.295 -15.722  1.00  0.00     0.210 C 
ENDBRANCH   8  12
BRANCH   9  14
HETATM   14  O   UNL     1     -27.247  -4.084 -16.717  1.00  0.00    -0.358 OA
HETATM   15  H   UNL     1     -26.821  -4.738 -17.293  1.00  0.00     0.217 HD
ENDBRANCH   9  14
ENDBRANCH   5   6
ENDBRANCH   1   5
BRANCH   2  16
HETATM   16  C   UNL     1     -34.970  -1.577 -16.526  1.00  0.00     0.103 C 
BRANCH  16  17
HETATM   17  C   UNL     1     -35.733  -0.934 -15.370  1.00  0.00     0.010 C 
BRANCH  17  18
HETATM   18  C   UNL     1     -34.874   0.075 -14.602  1.00  0.00     0.004 C 
BRANCH  18  19
HETATM   19  C   UNL     1     -35.236   0.083 -13.119  1.00  0.00     0.027 C 
BRANCH  19  20
HETATM   20  C   UNL     1     -35.079  -1.286 -12.523  1.00  0.00    -0.030 C 
HETATM   21  C   UNL     1     -34.138  -1.598 -11.622  1.00  0.00    -0.027 C 
BRANCH  21  22
HETATM   22  C   UNL     1     -33.972  -2.974 -11.025  1.00  0.00    -0.001 C 
HETATM   23  C   UNL     1     -35.285  -3.749 -11.116  1.00  0.00     0.013 C 
HETATM   24  C   UNL     1     -32.851  -3.728 -11.738  1.00  0.00     0.013 C 
ENDBRANCH  21  22
ENDBRANCH  19  20
ENDBRANCH  18  19
ENDBRANCH  17  18
ENDBRANCH  16  17
ENDBRANCH   2  16
TORSDOF 10
ENDMDL
MODEL 6
REMARK VINA RESULT:      -7.4      2.932      9.334
REMARK  10 active torsions:
REMARK  status: ('A' for Active; 'I' for Inactive)
REMARK    1  A    between atoms: O_2  and  C_3 
REMARK    2  A    between atoms: C_5  and  C_6 
REMARK    3  A    between atoms: C_6  and  N_7 
REMARK       I    between atoms: N_7  and  C_8 
REMARK    4  A    between atoms: C_8  and  C_10 
REMARK    5  A    between atoms: C_10  and  C_11 
REMARK    6  A    between atoms: C_11  and  C_12 
REMARK    7  A    between atoms: C_12  and  C_13 
REMARK    8  A    between atoms: C_13  and  C_14 
REMARK    9  A    between atoms: C_15  and  C_16 
REMARK   10  A    between atoms: C_21  and  O_22 
ROOT
HETATM    1  N   UNL     1     -20.069  -7.734  -4.257  1.00  0.00    -0.357 N 
HETATM    2  C   UNL     1     -20.708  -7.912  -5.460  1.00  0.00     0.217 C 
HETATM    3  O   UNL     1     -21.259  -8.960  -5.781  1.00  0.00    -0.274 OA
HETATM    4  H   UNL     1     -19.603  -6.859  -4.054  1.00  0.00     0.162 HD
ENDROOT
BRANCH   1   5
HETATM    5  C   UNL     1     -20.023  -8.779  -3.259  1.00  0.00     0.161 C 
BRANCH   5   6
HETATM    6  C   UNL     1     -21.003  -8.537  -2.139  1.00  0.00    -0.038 A 
HETATM    7  C   UNL     1     -21.655  -9.614  -1.515  1.00  0.00     0.048 A 
HETATM    8  C   UNL     1     -22.607  -9.400  -0.510  1.00  0.00     0.101 A 
HETATM    9  C   UNL     1     -22.904  -8.084  -0.134  1.00  0.00     0.099 A 
HETATM   10  C   UNL     1     -22.271  -7.001  -0.747  1.00  0.00     0.040 A 
HETATM   11  C   UNL     1     -21.325  -7.229  -1.747  1.00  0.00     0.012 A 
BRANCH   8  12
HETATM   12  O   UNL     1     -23.291 -10.390   0.145  1.00  0.00    -0.353 OA
HETATM   13  C   UNL     1     -24.009 -11.324  -0.649  1.00  0.00     0.210 C 
ENDBRANCH   8  12
BRANCH   9  14
HETATM   14  O   UNL     1     -23.836  -7.855   0.844  1.00  0.00    -0.358 OA
HETATM   15  H   UNL     1     -24.717  -7.806   0.441  1.00  0.00     0.217 HD
ENDBRANCH   9  14
ENDBRANCH   5   6
ENDBRANCH   1   5
BRANCH   2  16
HETATM   16  C   UNL     1     -20.644  -6.703  -6.372  1.00  0.00     0.103 C 
BRANCH  16  17
HETATM   17  C   UNL     1     -20.644  -5.393  -5.586  1.00  0.00     0.010 C 
BRANCH  17  18
HETATM   18  C   UNL     1     -20.478  -4.174  -6.498  1.00  0.00     0.004 C 
BRANCH  18  19
HETATM   19  C   UNL     1     -19.585  -4.503  -7.692  1.00  0.00     0.027 C 
BRANCH  19  20
HETATM   20  C   UNL     1     -20.269  -4.158  -8.982  1.00  0.00    -0.030 C 
HETATM   21  C   UNL     1     -21.509  -4.560  -9.295  1.00  0.00    -0.027 C 
BRANCH  21  22
HETATM   22  C   UNL     1     -22.197  -4.222 -10.594  1.00  0.00    -0.001 C 
HETATM   23  C   UNL     1     -23.542  -3.552 -10.319  1.00  0.00     0.013 C 
HETATM   24  C   UNL     1     -21.309  -3.315 -11.444  1.00  0.00     0.013 C 
ENDBRANCH  21  22
ENDBRANCH  19  20
ENDBRANCH  18  19
ENDBRANCH  17  18
ENDBRANCH  16  17
ENDBRANCH   2  16
TORSDOF 10
ENDMDL
MODEL 7
REMARK VINA RESULT:      -7.3      2.441      2.889
REMARK  10 active torsions:
REMARK  status: ('A' for Active; 'I' for Inactive)
REMARK    1  A    between atoms: O_2  and  C_3 
REMARK    2  A    between atoms: C_5  and  C_6 
REMARK    3  A    between atoms: C_6  and  N_7 
REMARK       I    between atoms: N_7  and  C_8 
REMARK    4  A    between atoms: C_8  and  C_10 
REMARK    5  A    between atoms: C_10  and  C_11 
REMARK    6  A    between atoms: C_11  and  C_12 
REMARK    7  A    between atoms: C_12  and  C_13 
REMARK    8  A    between atoms: C_13  and  C_14 
REMARK    9  A    between atoms: C_15  and  C_16 
REMARK   10  A    between atoms: C_21  and  O_22 
ROOT
HETATM    1  N   UNL     1     -20.698  -4.520  -6.640  1.00  0.00    -0.357 N 
HETATM    2  C   UNL     1     -20.414  -5.803  -6.237  1.00  0.00     0.217 C 
HETATM    3  O   UNL     1     -19.659  -6.549  -6.851  1.00  0.00    -0.274 OA
HETATM    4  H   UNL     1     -21.352  -3.956  -6.113  1.00  0.00     0.162 HD
ENDROOT
BRANCH   1   5
HETATM    5  C   UNL     1     -20.096  -3.945  -7.821  1.00  0.00     0.161 C 
BRANCH   5   6
HETATM    6  C   UNL     1     -20.966  -4.116  -9.041  1.00  0.00    -0.038 A 
HETATM    7  C   UNL     1     -22.365  -4.161  -8.920  1.00  0.00     0.048 A 
HETATM    8  C   UNL     1     -23.182  -4.374 -10.039  1.00  0.00     0.101 A 
HETATM    9  C   UNL     1     -22.577  -4.545 -11.290  1.00  0.00     0.099 A 
HETATM   10  C   UNL     1     -21.188  -4.509 -11.429  1.00  0.00     0.040 A 
HETATM   11  C   UNL     1     -20.387  -4.297 -10.306  1.00  0.00     0.012 A 
BRANCH   8  12
HETATM   12  O   UNL     1     -24.550  -4.437 -10.009  1.00  0.00    -0.353 OA
HETATM   13  C   UNL     1     -25.255  -3.224  -9.785  1.00  0.00     0.210 C 
ENDBRANCH   8  12
BRANCH   9  14
HETATM   14  O   UNL     1     -23.360  -4.759 -12.395  1.00  0.00    -0.358 OA
HETATM   15  H   UNL     1     -22.853  -4.541 -13.192  1.00  0.00     0.217 HD
ENDBRANCH   9  14
ENDBRANCH   5   6
ENDBRANCH   1   5
BRANCH   2  16
HETATM   16  C   UNL     1     -21.144  -6.224  -4.978  1.00  0.00     0.103 C 
BRANCH  16  17
HETATM   17  C   UNL     1     -21.875  -7.553  -5.157  1.00  0.00     0.010 C 
BRANCH  17  18
HETATM   18  C   UNL     1     -21.074  -8.731  -4.594  1.00  0.00     0.004 C 
BRANCH  18  19
HETATM   19  C   UNL     1     -20.376  -8.345  -3.293  1.00  0.00     0.027 C 
BRANCH  19  20
HETATM   20  C   UNL     1     -18.970  -8.869  -3.264  1.00  0.00    -0.030 C 
HETATM   21  C   UNL     1     -18.649 -10.111  -2.879  1.00  0.00    -0.027 C 
BRANCH  21  22
HETATM   22  C   UNL     1     -17.237 -10.639  -2.841  1.00  0.00    -0.001 C 
HETATM   23  C   UNL     1     -16.240  -9.485  -2.936  1.00  0.00     0.013 C 
HETATM   24  C   UNL     1     -17.006 -11.445  -1.564  1.00  0.00     0.013 C 
ENDBRANCH  21  22
ENDBRANCH  19  20
ENDBRANCH  18  19
ENDBRANCH  17  18
ENDBRANCH  16  17
ENDBRANCH   2  16
TORSDOF 10
ENDMDL
MODEL 8
REMARK VINA RESULT:      -7.2      1.406      2.374
REMARK  10 active torsions:
REMARK  status: ('A' for Active; 'I' for Inactive)
REMARK    1  A    between atoms: O_2  and  C_3 
REMARK    2  A    between atoms: C_5  and  C_6 
REMARK    3  A    between atoms: C_6  and  N_7 
REMARK       I    between atoms: N_7  and  C_8 
REMARK    4  A    between atoms: C_8  and  C_10 
REMARK    5  A    between atoms: C_10  and  C_11 
REMARK    6  A    between atoms: C_11  and  C_12 
REMARK    7  A    between atoms: C_12  and  C_13 
REMARK    8  A    between atoms: C_13  and  C_14 
REMARK    9  A    between atoms: C_15  and  C_16 
REMARK   10  A    between atoms: C_21  and  O_22 
ROOT
HETATM    1  N   UNL     1     -20.671  -5.008  -6.086  1.00  0.00    -0.357 N 
HETATM    2  C   UNL     1     -20.355  -6.314  -5.801  1.00  0.00     0.217 C 
HETATM    3  O   UNL     1     -19.782  -7.056  -6.591  1.00  0.00    -0.274 OA
HETATM    4  H   UNL     1     -21.172  -4.447  -5.409  1.00  0.00     0.162 HD
ENDROOT
BRANCH   1   5
HETATM    5  C   UNL     1     -20.324  -4.401  -7.352  1.00  0.00     0.161 C 
BRANCH   5   6
HETATM    6  C   UNL     1     -21.513  -4.292  -8.273  1.00  0.00    -0.038 A 
HETATM    7  C   UNL     1     -21.341  -4.321  -9.668  1.00  0.00     0.048 A 
HETATM    8  C   UNL     1     -22.431  -4.165 -10.534  1.00  0.00     0.101 A 
HETATM    9  C   UNL     1     -23.706  -3.978  -9.985  1.00  0.00     0.099 A 
HETATM   10  C   UNL     1     -23.895  -3.941  -8.602  1.00  0.00     0.040 A 
HETATM   11  C   UNL     1     -22.800  -4.095  -7.751  1.00  0.00     0.012 A 
BRANCH   8  12
HETATM   12  O   UNL     1     -22.352  -4.176 -11.902  1.00  0.00    -0.353 OA
HETATM   13  C   UNL     1     -21.215  -3.565 -12.496  1.00  0.00     0.210 C 
ENDBRANCH   8  12
BRANCH   9  14
HETATM   14  O   UNL     1     -24.783  -3.820 -10.818  1.00  0.00    -0.358 OA
HETATM   15  H   UNL     1     -25.240  -4.670 -10.913  1.00  0.00     0.217 HD
ENDBRANCH   9  14
ENDBRANCH   5   6
ENDBRANCH   1   5
BRANCH   2  16
HETATM   16  C   UNL     1     -20.804  -6.765  -4.425  1.00  0.00     0.103 C 
BRANCH  16  17
HETATM   17  C   UNL     1     -22.002  -7.710  -4.496  1.00  0.00     0.010 C 
BRANCH  17  18
HETATM   18  C   UNL     1     -21.622  -9.150  -4.136  1.00  0.00     0.004 C 
BRANCH  18  19
HETATM   19  C   UNL     1     -20.596  -9.178  -3.006  1.00  0.00     0.027 C 
BRANCH  19  20
HETATM   20  C   UNL     1     -21.270  -9.067  -1.670  1.00  0.00    -0.030 C 
HETATM   21  C   UNL     1     -21.124  -8.017  -0.850  1.00  0.00    -0.027 C 
BRANCH  21  22
HETATM   22  C   UNL     1     -21.793  -7.905   0.497  1.00  0.00    -0.001 C 
HETATM   23  C   UNL     1     -23.248  -8.363   0.402  1.00  0.00     0.013 C 
HETATM   24  C   UNL     1     -21.036  -8.732   1.535  1.00  0.00     0.013 C 
ENDBRANCH  21  22
ENDBRANCH  19  20
ENDBRANCH  18  19
ENDBRANCH  17  18
ENDBRANCH  16  17
ENDBRANCH   2  16
TORSDOF 10
ENDMDL
MODEL 9
REMARK VINA RESULT:      -7.0      1.727      2.947
REMARK  10 active torsions:
REMARK  status: ('A' for Active; 'I' for Inactive)
REMARK    1  A    between atoms: O_2  and  C_3 
REMARK    2  A    between atoms: C_5  and  C_6 
REMARK    3  A    between atoms: C_6  and  N_7 
REMARK       I    between atoms: N_7  and  C_8 
REMARK    4  A    between atoms: C_8  and  C_10 
REMARK    5  A    between atoms: C_10  and  C_11 
REMARK    6  A    between atoms: C_11  and  C_12 
REMARK    7  A    between atoms: C_12  and  C_13 
REMARK    8  A    between atoms: C_13  and  C_14 
REMARK    9  A    between atoms: C_15  and  C_16 
REMARK   10  A    between atoms: C_21  and  O_22 
ROOT
HETATM    1  N   UNL     1     -20.701  -5.421  -4.929  1.00  0.00    -0.357 N 
HETATM    2  C   UNL     1     -21.155  -6.353  -4.027  1.00  0.00     0.217 C 
HETATM    3  O   UNL     1     -21.292  -7.541  -4.297  1.00  0.00    -0.274 OA
HETATM    4  H   UNL     1     -20.636  -4.447  -4.663  1.00  0.00     0.162 HD
ENDROOT
BRANCH   1   5
HETATM    5  C   UNL     1     -20.325  -5.789  -6.275  1.00  0.00     0.161 C 
BRANCH   5   6
HETATM    6  C   UNL     1     -21.262  -5.209  -7.305  1.00  0.00    -0.038 A 
HETATM    7  C   UNL     1     -20.860  -5.082  -8.645  1.00  0.00     0.048 A 
HETATM    8  C   UNL     1     -21.701  -4.496  -9.600  1.00  0.00     0.101 A 
HETATM    9  C   UNL     1     -22.959  -4.033  -9.195  1.00  0.00     0.099 A 
HETATM   10  C   UNL     1     -23.373  -4.145  -7.866  1.00  0.00     0.040 A 
HETATM   11  C   UNL     1     -22.525  -4.730  -6.926  1.00  0.00     0.012 A 
BRANCH   8  12
HETATM   12  O   UNL     1     -21.387  -4.329 -10.923  1.00  0.00    -0.353 OA
HETATM   13  C   UNL     1     -20.559  -3.226 -11.264  1.00  0.00     0.210 C 
ENDBRANCH   8  12
BRANCH   9  14
HETATM   14  O   UNL     1     -23.793  -3.453 -10.114  1.00  0.00    -0.358 OA
HETATM   15  H   UNL     1     -23.445  -3.610 -11.006  1.00  0.00     0.217 HD
ENDBRANCH   9  14
ENDBRANCH   5   6
ENDBRANCH   1   5
BRANCH   2  16
HETATM   16  C   UNL     1     -21.501  -5.772  -2.670  1.00  0.00     0.103 C 
BRANCH  16  17
HETATM   17  C   UNL     1     -22.407  -6.701  -1.864  1.00  0.00     0.010 C 
BRANCH  17  18
HETATM   18  C   UNL     1     -21.652  -7.401  -0.730  1.00  0.00     0.004 C 
BRANCH  18  19
HETATM   19  C   UNL     1     -22.624  -8.043   0.257  1.00  0.00     0.027 C 
BRANCH  19  20
HETATM   20  C   UNL     1     -23.050  -9.401  -0.219  1.00  0.00    -0.030 C 
HETATM   21  C   UNL     1     -22.547 -10.547   0.261  1.00  0.00    -0.027 C 
BRANCH  21  22
HETATM   22  C   UNL     1     -22.966 -11.913  -0.220  1.00  0.00    -0.001 C 
HETATM   23  C   UNL     1     -23.174 -12.849   0.970  1.00  0.00     0.013 C 
HETATM   24  C   UNL     1     -24.242 -11.813  -1.054  1.00  0.00     0.013 C 
ENDBRANCH  21  22
ENDBRANCH  19  20
ENDBRANCH  18  19
ENDBRANCH  17  18
ENDBRANCH  16  17
ENDBRANCH   2  16
TORSDOF 10
ENDMDL
