REMARK  10 active torsions:
REMARK  status: ('A' for Active; 'I' for Inactive)
REMARK    1  A    between atoms: O_2  and  C_3 
REMARK    2  A    between atoms: C_5  and  C_6 
REMARK    3  A    between atoms: C_6  and  N_7 
REMARK       I    between atoms: N_7  and  C_8 
REMARK    4  A    between atoms: C_8  and  C_10 
REMARK    5  A    between atoms: C_10  and  C_11 
REMARK    6  A    between atoms: C_11  and  C_12 
REMARK    7  A    between atoms: C_12  and  C_13 
REMARK    8  A    between atoms: C_13  and  C_14 
REMARK    9  A    between atoms: C_15  and  C_16 
REMARK   10  A    between atoms: C_21  and  O_22 
ROOT
HETATM    1  N   UNL     1       0.924   5.031  -0.561  1.00  0.00    -0.357 N 
HETATM    2  C   UNL     1       0.224   6.011   0.100  1.00  0.00     0.217 C 
HETATM    3  O   UNL     1       0.760   6.964   0.655  1.00  0.00    -0.274 OA
HETATM    4  H   UNL     1       0.434   4.249  -0.976  1.00  0.00     0.162 HD
ENDROOT
BRANCH   1   5
HETATM    5  C   UNL     1       2.365   5.070  -0.670  1.00  0.00     0.161 C 
BRANCH   5   6
HETATM    6  C   UNL     1       2.825   5.076  -2.106  1.00  0.00    -0.038 A 
HETATM    7  C   UNL     1       3.681   4.070  -2.586  1.00  0.00     0.048 A 
HETATM    8  C   UNL     1       4.159   4.094  -3.903  1.00  0.00     0.101 A 
HETATM    9  C   UNL     1       3.768   5.146  -4.741  1.00  0.00     0.099 A 
HETATM   10  C   UNL     1       2.923   6.157  -4.280  1.00  0.00     0.040 A 
HETATM   11  C   UNL     1       2.456   6.121  -2.966  1.00  0.00     0.012 A 
BRANCH   8  12
HETATM   12  O   UNL     1       4.998   3.159  -4.449  1.00  0.00    -0.353 OA
HETATM   13  C   UNL     1       5.409   2.084  -3.616  1.00  0.00     0.210 C 
ENDBRANCH   8  12
BRANCH   9  14
HETATM   14  O   UNL     1       4.229   5.188  -6.031  1.00  0.00    -0.358 OA
HETATM   15  H   UNL     1       3.896   5.990  -6.463  1.00  0.00     0.217 HD
ENDBRANCH   9  14
ENDBRANCH   5   6
ENDBRANCH   1   5
BRANCH   2  16
HETATM   16  C   UNL     1      -1.276   5.792   0.107  1.00  0.00     0.103 C 
BRANCH  16  17
HETATM   17  C   UNL     1      -2.047   7.110   0.139  1.00  0.00     0.010 C 
BRANCH  17  18
HETATM   18  C   UNL     1      -1.777   7.966  -1.102  1.00  0.00     0.004 C 
BRANCH  18  19
HETATM   19  C   UNL     1      -2.562   9.274  -1.044  1.00  0.00     0.027 C 
BRANCH  19  20
HETATM   20  C   UNL     1      -2.289  10.116  -2.256  1.00  0.00    -0.030 C 
HETATM   21  C   UNL     1      -3.239  10.508  -3.116  1.00  0.00    -0.027 C 
BRANCH  21  22
HETATM   22  C   UNL     1      -2.968  11.348  -4.339  1.00  0.00    -0.001 C 
HETATM   23  C   UNL     1      -3.397  10.598  -5.599  1.00  0.00     0.013 C 
HETATM   24  C   UNL     1      -3.698  12.686  -4.235  1.00  0.00     0.013 C 
ENDBRANCH  21  22
ENDBRANCH  19  20
ENDBRANCH  18  19
ENDBRANCH  17  18
ENDBRANCH  16  17
ENDBRANCH   2  16
TORSDOF 10
