MODEL 1
REMARK VINA RESULT:     -10.1      0.000      0.000
REMARK  4 active torsions:
REMARK  status: ('A' for Active; 'I' for Inactive)
REMARK       I    between atoms: C_2  and  N_3 
REMARK       I    between atoms: C_2  and  N_11 
REMARK    1  A    between atoms: N_3  and  C_4 
REMARK    2  A    between atoms: N_11  and  C_12 
REMARK    3  A    between atoms: N_15  and  C_16 
REMARK    4  A    between atoms: C_19  and  C_20 
ROOT
HETATM    1  C   UNL     1     -21.600  -6.295  -5.075  1.00  0.00     0.105 C 
HETATM    2  C   UNL     1     -20.321  -5.609  -5.545  1.00  0.00     0.046 C 
HETATM    3  C   UNL     1     -20.792  -4.333  -6.236  1.00  0.00     0.126 C 
HETATM    4  N   UNL     1     -22.085  -4.697  -6.791  1.00  0.00    -0.365 N 
HETATM    5  C   UNL     1     -22.675  -5.833  -6.082  1.00  0.00     0.149 C 
ENDROOT
BRANCH   1   6
HETATM    6  N   UNL     1     -21.903  -5.933  -3.689  1.00  0.00    -0.337 N 
HETATM    7  C   UNL     1     -21.970  -6.710  -2.583  1.00  0.00     0.321 C 
HETATM    8  O   UNL     1     -22.428  -6.221  -1.550  1.00  0.00    -0.247 OA
HETATM    9  N   UNL     1     -21.484  -7.989  -2.695  1.00  0.00    -0.308 N 
HETATM   10  H   UNL     1     -20.675  -8.075  -3.291  1.00  0.00     0.170 HD
HETATM   11  H   UNL     1     -22.342  -5.031  -3.528  1.00  0.00     0.164 HD
BRANCH   9  12
HETATM   12  C   UNL     1     -21.501  -8.886  -1.592  1.00  0.00     0.053 A 
HETATM   13  C   UNL     1     -21.047  -8.472  -0.336  1.00  0.00     0.031 A 
HETATM   14  C   UNL     1     -21.111  -9.336   0.761  1.00  0.00     0.002 A 
HETATM   15  C   UNL     1     -21.622 -10.626   0.610  1.00  0.00     0.002 A 
HETATM   16  C   UNL     1     -22.060 -11.055  -0.641  1.00  0.00     0.021 A 
HETATM   17  C   UNL     1     -22.007 -10.187  -1.737  1.00  0.00     0.037 A 
HETATM   18 BR   UNL     1     -22.506 -10.866  -3.442  1.00  0.00    -0.049 Br
ENDBRANCH   9  12
ENDBRANCH   1   6
BRANCH   4  19
HETATM   19  C   UNL     1     -22.455  -4.338  -8.068  1.00  0.00     0.102 A 
HETATM   20  C   UNL     1     -21.522  -4.303  -9.107  1.00  0.00     0.049 A 
HETATM   21  C   UNL     1     -21.904  -3.923 -10.394  1.00  0.00     0.021 A 
HETATM   22  C   UNL     1     -23.225  -3.579 -10.644  1.00  0.00     0.063 A 
HETATM   23  C   UNL     1     -24.103  -3.657  -9.577  1.00  0.00     0.106 A 
HETATM   24  N   UNL     1     -23.745  -4.027  -8.319  1.00  0.00    -0.352 N 
ATOM     25  HN  UNL     1     -24.441  -4.069  -7.574  1.00  0.00     0.166 HD
BRANCH  22  26
HETATM   26  C   UNL     1     -23.708  -3.144 -11.992  1.00  0.00     0.418 C 
HETATM   27  F   UNL     1     -25.056  -2.941 -12.041  1.00  0.00    -0.166 F 
HETATM   28  F   UNL     1     -23.142  -1.978 -12.406  1.00  0.00    -0.166 F 
HETATM   29  F   UNL     1     -23.436  -4.059 -12.962  1.00  0.00    -0.166 F 
ENDBRANCH  22  26
ENDBRANCH   4  19
TORSDOF 4
ENDMDL
MODEL 2
REMARK VINA RESULT:      -9.4      1.870      2.472
REMARK  4 active torsions:
REMARK  status: ('A' for Active; 'I' for Inactive)
REMARK       I    between atoms: C_2  and  N_3 
REMARK       I    between atoms: C_2  and  N_11 
REMARK    1  A    between atoms: N_3  and  C_4 
REMARK    2  A    between atoms: N_11  and  C_12 
REMARK    3  A    between atoms: N_15  and  C_16 
REMARK    4  A    between atoms: C_19  and  C_20 
ROOT
HETATM    1  C   UNL     1     -21.827  -7.588  -4.634  1.00  0.00     0.105 C 
HETATM    2  C   UNL     1     -20.576  -8.103  -5.338  1.00  0.00     0.046 C 
HETATM    3  C   UNL     1     -19.921  -6.860  -5.933  1.00  0.00     0.126 C 
HETATM    4  N   UNL     1     -21.044  -5.987  -6.234  1.00  0.00    -0.365 N 
HETATM    5  C   UNL     1     -22.216  -6.319  -5.422  1.00  0.00     0.149 C 
ENDROOT
BRANCH   1   6
HETATM    6  N   UNL     1     -21.558  -7.336  -3.217  1.00  0.00    -0.337 N 
HETATM    7  C   UNL     1     -21.724  -8.144  -2.144  1.00  0.00     0.321 C 
HETATM    8  O   UNL     1     -21.608  -7.655  -1.019  1.00  0.00    -0.247 OA
HETATM    9  N   UNL     1     -21.978  -9.468  -2.400  1.00  0.00    -0.308 N 
HETATM   10  H   UNL     1     -21.493  -9.836  -3.204  1.00  0.00     0.170 HD
HETATM   11  H   UNL     1     -21.439  -6.368  -2.930  1.00  0.00     0.164 HD
BRANCH   9  12
HETATM   12  C   UNL     1     -22.163 -10.403  -1.345  1.00  0.00     0.053 A 
HETATM   13  C   UNL     1     -23.415 -10.550  -0.740  1.00  0.00     0.031 A 
HETATM   14  C   UNL     1     -23.611 -11.504   0.263  1.00  0.00     0.002 A 
HETATM   15  C   UNL     1     -22.553 -12.315   0.676  1.00  0.00     0.002 A 
HETATM   16  C   UNL     1     -21.296 -12.164   0.094  1.00  0.00     0.021 A 
HETATM   17  C   UNL     1     -21.102 -11.217  -0.918  1.00  0.00     0.037 A 
HETATM   18 BR   UNL     1     -19.341 -10.974  -1.591  1.00  0.00    -0.049 Br
ENDBRANCH   9  12
ENDBRANCH   1   6
BRANCH   4  19
HETATM   19  C   UNL     1     -21.127  -5.293  -7.419  1.00  0.00     0.102 A 
HETATM   20  C   UNL     1     -22.229  -4.484  -7.708  1.00  0.00     0.049 A 
HETATM   21  C   UNL     1     -22.310  -3.798  -8.920  1.00  0.00     0.021 A 
HETATM   22  C   UNL     1     -21.283  -3.917  -9.846  1.00  0.00     0.063 A 
HETATM   23  C   UNL     1     -20.210  -4.715  -9.490  1.00  0.00     0.106 A 
HETATM   24  N   UNL     1     -20.117  -5.389  -8.312  1.00  0.00    -0.352 N 
ATOM     25  HN  UNL     1     -19.297  -5.958  -8.106  1.00  0.00     0.166 HD
BRANCH  22  26
HETATM   26  C   UNL     1     -21.305  -3.227 -11.174  1.00  0.00     0.418 C 
HETATM   27  F   UNL     1     -21.289  -4.089 -12.230  1.00  0.00    -0.166 F 
HETATM   28  F   UNL     1     -22.408  -2.449 -11.347  1.00  0.00    -0.166 F 
HETATM   29  F   UNL     1     -20.235  -2.405 -11.350  1.00  0.00    -0.166 F 
ENDBRANCH  22  26
ENDBRANCH   4  19
TORSDOF 4
ENDMDL
MODEL 3
REMARK VINA RESULT:      -8.8      6.058     10.319
REMARK  4 active torsions:
REMARK  status: ('A' for Active; 'I' for Inactive)
REMARK       I    between atoms: C_2  and  N_3 
REMARK       I    between atoms: C_2  and  N_11 
REMARK    1  A    between atoms: N_3  and  C_4 
REMARK    2  A    between atoms: N_11  and  C_12 
REMARK    3  A    between atoms: N_15  and  C_16 
REMARK    4  A    between atoms: C_19  and  C_20 
ROOT
HETATM    1  C   UNL     1     -20.824  -6.750  -5.921  1.00  0.00     0.105 C 
HETATM    2  C   UNL     1     -22.123  -6.327  -5.244  1.00  0.00     0.046 C 
HETATM    3  C   UNL     1     -21.787  -6.262  -3.757  1.00  0.00     0.126 C 
HETATM    4  N   UNL     1     -20.767  -7.285  -3.588  1.00  0.00    -0.365 N 
HETATM    5  C   UNL     1     -20.083  -7.576  -4.848  1.00  0.00     0.149 C 
ENDROOT
BRANCH   1   6
HETATM    6  N   UNL     1     -20.072  -5.580  -6.380  1.00  0.00    -0.337 N 
HETATM    7  C   UNL     1     -20.160  -4.891  -7.542  1.00  0.00     0.321 C 
HETATM    8  O   UNL     1     -19.296  -4.051  -7.792  1.00  0.00    -0.247 OA
HETATM    9  N   UNL     1     -21.240  -5.166  -8.344  1.00  0.00    -0.308 N 
HETATM   10  H   UNL     1     -22.091  -5.364  -7.840  1.00  0.00     0.170 HD
HETATM   11  H   UNL     1     -19.212  -5.356  -5.888  1.00  0.00     0.164 HD
BRANCH   9  12
HETATM   12  C   UNL     1     -21.430  -4.496  -9.583  1.00  0.00     0.053 A 
HETATM   13  C   UNL     1     -20.380  -4.391 -10.500  1.00  0.00     0.031 A 
HETATM   14  C   UNL     1     -20.579  -3.777 -11.740  1.00  0.00     0.002 A 
HETATM   15  C   UNL     1     -21.830  -3.253 -12.071  1.00  0.00     0.002 A 
HETATM   16  C   UNL     1     -22.879  -3.334 -11.156  1.00  0.00     0.021 A 
HETATM   17  C   UNL     1     -22.683  -3.960  -9.921  1.00  0.00     0.037 A 
HETATM   18 BR   UNL     1     -24.113  -3.936  -8.668  1.00  0.00    -0.049 Br
ENDBRANCH   9  12
ENDBRANCH   1   6
BRANCH   4  19
HETATM   19  C   UNL     1     -20.788  -8.161  -2.527  1.00  0.00     0.102 A 
HETATM   20  C   UNL     1     -21.316  -7.787  -1.290  1.00  0.00     0.049 A 
HETATM   21  C   UNL     1     -21.317  -8.678  -0.216  1.00  0.00     0.021 A 
HETATM   22  C   UNL     1     -20.791  -9.952  -0.382  1.00  0.00     0.063 A 
HETATM   23  C   UNL     1     -20.306 -10.268  -1.639  1.00  0.00     0.106 A 
HETATM   24  N   UNL     1     -20.299  -9.410  -2.693  1.00  0.00    -0.352 N 
ATOM     25  HN  UNL     1     -19.931  -9.705  -3.598  1.00  0.00     0.166 HD
BRANCH  22  26
HETATM   26  C   UNL     1     -20.740 -10.958   0.725  1.00  0.00     0.418 C 
HETATM   27  F   UNL     1     -21.937 -11.571   0.950  1.00  0.00    -0.166 F 
HETATM   28  F   UNL     1     -19.849 -11.959   0.490  1.00  0.00    -0.166 F 
HETATM   29  F   UNL     1     -20.378 -10.405   1.914  1.00  0.00    -0.166 F 
ENDBRANCH  22  26
ENDBRANCH   4  19
TORSDOF 4
ENDMDL
MODEL 4
REMARK VINA RESULT:      -8.5      5.648      9.921
REMARK  4 active torsions:
REMARK  status: ('A' for Active; 'I' for Inactive)
REMARK       I    between atoms: C_2  and  N_3 
REMARK       I    between atoms: C_2  and  N_11 
REMARK    1  A    between atoms: N_3  and  C_4 
REMARK    2  A    between atoms: N_11  and  C_12 
REMARK    3  A    between atoms: N_15  and  C_16 
REMARK    4  A    between atoms: C_19  and  C_20 
ROOT
HETATM    1  C   UNL     1     -20.489  -6.214  -6.956  1.00  0.00     0.105 C 
HETATM    2  C   UNL     1     -22.014  -6.224  -6.917  1.00  0.00     0.046 C 
HETATM    3  C   UNL     1     -22.373  -5.714  -5.524  1.00  0.00     0.126 C 
HETATM    4  N   UNL     1     -21.272  -6.171  -4.693  1.00  0.00    -0.365 N 
HETATM    5  C   UNL     1     -20.066  -6.419  -5.485  1.00  0.00     0.149 C 
ENDROOT
BRANCH   1   6
HETATM    6  N   UNL     1     -19.993  -4.966  -7.539  1.00  0.00    -0.337 N 
HETATM    7  C   UNL     1     -20.375  -4.321  -8.665  1.00  0.00     0.321 C 
HETATM    8  O   UNL     1     -19.688  -3.380  -9.063  1.00  0.00    -0.247 OA
HETATM    9  N   UNL     1     -21.533  -4.752  -9.263  1.00  0.00    -0.308 N 
HETATM   10  H   UNL     1     -22.248  -5.049  -8.616  1.00  0.00     0.170 HD
HETATM   11  H   UNL     1     -19.097  -4.621  -7.207  1.00  0.00     0.164 HD
BRANCH   9  12
HETATM   12  C   UNL     1     -22.027  -4.139 -10.447  1.00  0.00     0.053 A 
HETATM   13  C   UNL     1     -21.220  -4.047 -11.585  1.00  0.00     0.031 A 
HETATM   14  C   UNL     1     -21.721  -3.490 -12.766  1.00  0.00     0.002 A 
HETATM   15  C   UNL     1     -23.031  -3.013 -12.816  1.00  0.00     0.002 A 
HETATM   16  C   UNL     1     -23.838  -3.082 -11.682  1.00  0.00     0.021 A 
HETATM   17  C   UNL     1     -23.341  -3.650 -10.504  1.00  0.00     0.037 A 
HETATM   18 BR   UNL     1     -24.445  -3.609  -8.956  1.00  0.00    -0.049 Br
ENDBRANCH   9  12
ENDBRANCH   1   6
BRANCH   4  19
HETATM   19  C   UNL     1     -21.482  -6.733  -3.454  1.00  0.00     0.102 A 
HETATM   20  C   UNL     1     -20.983  -8.000  -3.141  1.00  0.00     0.049 A 
HETATM   21  C   UNL     1     -21.215  -8.567  -1.888  1.00  0.00     0.021 A 
HETATM   22  C   UNL     1     -21.947  -7.862  -0.941  1.00  0.00     0.063 A 
HETATM   23  C   UNL     1     -22.391  -6.604  -1.306  1.00  0.00     0.106 A 
HETATM   24  N   UNL     1     -22.172  -6.039  -2.523  1.00  0.00    -0.352 N 
ATOM     25  HN  UNL     1     -22.522  -5.104  -2.730  1.00  0.00     0.166 HD
BRANCH  22  26
HETATM   26  C   UNL     1     -22.252  -8.409   0.418  1.00  0.00     0.418 C 
HETATM   27  F   UNL     1     -23.445  -7.977   0.916  1.00  0.00    -0.166 F 
HETATM   28  F   UNL     1     -22.311  -9.769   0.440  1.00  0.00    -0.166 F 
HETATM   29  F   UNL     1     -21.316  -8.059   1.341  1.00  0.00    -0.166 F 
ENDBRANCH  22  26
ENDBRANCH   4  19
TORSDOF 4
ENDMDL
MODEL 5
REMARK VINA RESULT:      -8.4      3.714      4.193
REMARK  4 active torsions:
REMARK  status: ('A' for Active; 'I' for Inactive)
REMARK       I    between atoms: C_2  and  N_3 
REMARK       I    between atoms: C_2  and  N_11 
REMARK    1  A    between atoms: N_3  and  C_4 
REMARK    2  A    between atoms: N_11  and  C_12 
REMARK    3  A    between atoms: N_15  and  C_16 
REMARK    4  A    between atoms: C_19  and  C_20 
ROOT
HETATM    1  C   UNL     1     -20.248  -7.143  -4.331  1.00  0.00     0.105 C 
HETATM    2  C   UNL     1     -21.486  -6.294  -4.063  1.00  0.00     0.046 C 
HETATM    3  C   UNL     1     -22.253  -6.293  -5.382  1.00  0.00     0.126 C 
HETATM    4  N   UNL     1     -21.209  -6.388  -6.390  1.00  0.00    -0.365 N 
HETATM    5  C   UNL     1     -19.984  -6.971  -5.842  1.00  0.00     0.149 C 
ENDROOT
BRANCH   1   6
HETATM    6  N   UNL     1     -20.475  -8.533  -3.931  1.00  0.00    -0.337 N 
HETATM    7  C   UNL     1     -19.585  -9.520  -3.673  1.00  0.00     0.321 C 
HETATM    8  O   UNL     1     -20.007 -10.668  -3.535  1.00  0.00    -0.247 OA
HETATM    9  N   UNL     1     -18.269  -9.150  -3.550  1.00  0.00    -0.308 N 
HETATM   10  H   UNL     1     -18.130  -8.253  -3.110  1.00  0.00     0.170 HD
HETATM   11  H   UNL     1     -21.408  -8.911  -4.068  1.00  0.00     0.164 HD
BRANCH   9  12
HETATM   12  C   UNL     1     -17.254 -10.106  -3.274  1.00  0.00     0.053 A 
HETATM   13  C   UNL     1     -17.103 -10.625  -1.984  1.00  0.00     0.031 A 
HETATM   14  C   UNL     1     -16.140 -11.603  -1.721  1.00  0.00     0.002 A 
HETATM   15  C   UNL     1     -15.312 -12.065  -2.745  1.00  0.00     0.002 A 
HETATM   16  C   UNL     1     -15.440 -11.541  -4.030  1.00  0.00     0.021 A 
HETATM   17  C   UNL     1     -16.412 -10.571  -4.296  1.00  0.00     0.037 A 
HETATM   18 BR   UNL     1     -16.463  -9.807  -6.036  1.00  0.00    -0.049 Br
ENDBRANCH   9  12
ENDBRANCH   1   6
BRANCH   4  19
HETATM   19  C   UNL     1     -21.226  -5.613  -7.527  1.00  0.00     0.102 A 
HETATM   20  C   UNL     1     -22.336  -4.829  -7.851  1.00  0.00     0.049 A 
HETATM   21  C   UNL     1     -22.349  -4.060  -9.015  1.00  0.00     0.021 A 
HETATM   22  C   UNL     1     -21.245  -4.072  -9.858  1.00  0.00     0.063 A 
HETATM   23  C   UNL     1     -20.170  -4.850  -9.467  1.00  0.00     0.106 A 
HETATM   24  N   UNL     1     -20.144  -5.604  -8.336  1.00  0.00    -0.352 N 
ATOM     25  HN  UNL     1     -19.318  -6.154  -8.100  1.00  0.00     0.166 HD
BRANCH  22  26
HETATM   26  C   UNL     1     -21.190  -3.288 -11.131  1.00  0.00     0.418 C 
HETATM   27  F   UNL     1     -20.076  -2.509 -11.236  1.00  0.00    -0.166 F 
HETATM   28  F   UNL     1     -21.196  -4.078 -12.239  1.00  0.00    -0.166 F 
HETATM   29  F   UNL     1     -22.247  -2.443 -11.268  1.00  0.00    -0.166 F 
ENDBRANCH  22  26
ENDBRANCH   4  19
TORSDOF 4
ENDMDL
MODEL 6
REMARK VINA RESULT:      -8.2      6.131     10.235
REMARK  4 active torsions:
REMARK  status: ('A' for Active; 'I' for Inactive)
REMARK       I    between atoms: C_2  and  N_3 
REMARK       I    between atoms: C_2  and  N_11 
REMARK    1  A    between atoms: N_3  and  C_4 
REMARK    2  A    between atoms: N_11  and  C_12 
REMARK    3  A    between atoms: N_15  and  C_16 
REMARK    4  A    between atoms: C_19  and  C_20 
ROOT
HETATM    1  C   UNL     1     -21.356  -6.726  -5.951  1.00  0.00     0.105 C 
HETATM    2  C   UNL     1     -22.404  -7.066  -4.897  1.00  0.00     0.046 C 
HETATM    3  C   UNL     1     -21.620  -7.202  -3.595  1.00  0.00     0.126 C 
HETATM    4  N   UNL     1     -20.322  -7.698  -4.023  1.00  0.00    -0.365 N 
HETATM    5  C   UNL     1     -20.058  -7.375  -5.425  1.00  0.00     0.149 C 
ENDROOT
BRANCH   1   6
HETATM    6  N   UNL     1     -21.253  -5.277  -6.133  1.00  0.00    -0.337 N 
HETATM    7  C   UNL     1     -21.567  -4.511  -7.204  1.00  0.00     0.321 C 
HETATM    8  O   UNL     1     -21.221  -3.329  -7.201  1.00  0.00    -0.247 OA
HETATM    9  N   UNL     1     -22.285  -5.114  -8.207  1.00  0.00    -0.308 N 
HETATM   10  H   UNL     1     -22.965  -5.786  -7.884  1.00  0.00     0.170 HD
HETATM   11  H   UNL     1     -20.670  -4.765  -5.477  1.00  0.00     0.164 HD
BRANCH   9  12
HETATM   12  C   UNL     1     -22.672  -4.398  -9.373  1.00  0.00     0.053 A 
HETATM   13  C   UNL     1     -23.990  -3.960  -9.530  1.00  0.00     0.031 A 
HETATM   14  C   UNL     1     -24.360  -3.212 -10.652  1.00  0.00     0.002 A 
HETATM   15  C   UNL     1     -23.416  -2.903 -11.632  1.00  0.00     0.002 A 
HETATM   16  C   UNL     1     -22.103  -3.351 -11.495  1.00  0.00     0.021 A 
HETATM   17  C   UNL     1     -21.730  -4.089 -10.367  1.00  0.00     0.037 A 
HETATM   18 BR   UNL     1     -19.958  -4.775 -10.291  1.00  0.00    -0.049 Br
ENDBRANCH   9  12
ENDBRANCH   1   6
BRANCH   4  19
HETATM   19  C   UNL     1     -19.677  -8.714  -3.355  1.00  0.00     0.102 A 
HETATM   20  C   UNL     1     -18.415  -9.157  -3.757  1.00  0.00     0.049 A 
HETATM   21  C   UNL     1     -17.777 -10.198  -3.083  1.00  0.00     0.021 A 
HETATM   22  C   UNL     1     -18.402 -10.797  -1.998  1.00  0.00     0.063 A 
HETATM   23  C   UNL     1     -19.640 -10.296  -1.635  1.00  0.00     0.106 A 
HETATM   24  N   UNL     1     -20.273  -9.282  -2.283  1.00  0.00    -0.352 N 
ATOM     25  HN  UNL     1     -21.184  -8.954  -1.964  1.00  0.00     0.166 HD
BRANCH  22  26
HETATM   26  C   UNL     1     -17.790 -11.930  -1.234  1.00  0.00     0.418 C 
HETATM   27  F   UNL     1     -16.429 -11.870  -1.181  1.00  0.00    -0.166 F 
HETATM   28  F   UNL     1     -18.210 -11.984   0.059  1.00  0.00    -0.166 F 
HETATM   29  F   UNL     1     -18.087 -13.142  -1.776  1.00  0.00    -0.166 F 
ENDBRANCH  22  26
ENDBRANCH   4  19
TORSDOF 4
ENDMDL
MODEL 7
REMARK VINA RESULT:      -8.2      6.042     10.190
REMARK  4 active torsions:
REMARK  status: ('A' for Active; 'I' for Inactive)
REMARK       I    between atoms: C_2  and  N_3 
REMARK       I    between atoms: C_2  and  N_11 
REMARK    1  A    between atoms: N_3  and  C_4 
REMARK    2  A    between atoms: N_11  and  C_12 
REMARK    3  A    between atoms: N_15  and  C_16 
REMARK    4  A    between atoms: C_19  and  C_20 
ROOT
HETATM    1  C   UNL     1     -21.649  -6.579  -5.811  1.00  0.00     0.105 C 
HETATM    2  C   UNL     1     -22.578  -6.877  -4.638  1.00  0.00     0.046 C 
HETATM    3  C   UNL     1     -21.651  -7.054  -3.439  1.00  0.00     0.126 C 
HETATM    4  N   UNL     1     -20.437  -7.606  -4.019  1.00  0.00    -0.365 N 
HETATM    5  C   UNL     1     -20.327  -7.287  -5.443  1.00  0.00     0.149 C 
ENDROOT
BRANCH   1   6
HETATM    6  N   UNL     1     -21.504  -5.135  -6.004  1.00  0.00    -0.337 N 
HETATM    7  C   UNL     1     -21.426  -4.415  -7.147  1.00  0.00     0.321 C 
HETATM    8  O   UNL     1     -21.117  -3.225  -7.070  1.00  0.00    -0.247 OA
HETATM    9  N   UNL     1     -21.736  -5.069  -8.314  1.00  0.00    -0.308 N 
HETATM   10  H   UNL     1     -22.479  -5.746  -8.224  1.00  0.00     0.170 HD
HETATM   11  H   UNL     1     -21.196  -4.586  -5.206  1.00  0.00     0.164 HD
BRANCH   9  12
HETATM   12  C   UNL     1     -21.692  -4.404  -9.569  1.00  0.00     0.053 A 
HETATM   13  C   UNL     1     -20.487  -4.295 -10.270  1.00  0.00     0.031 A 
HETATM   14  C   UNL     1     -20.451  -3.686 -11.528  1.00  0.00     0.002 A 
HETATM   15  C   UNL     1     -21.619  -3.172 -12.093  1.00  0.00     0.002 A 
HETATM   16  C   UNL     1     -22.822  -3.259 -11.394  1.00  0.00     0.021 A 
HETATM   17  C   UNL     1     -22.861  -3.878 -10.141  1.00  0.00     0.037 A 
HETATM   18 BR   UNL     1     -24.503  -3.861  -9.183  1.00  0.00    -0.049 Br
ENDBRANCH   9  12
ENDBRANCH   1   6
BRANCH   4  19
HETATM   19  C   UNL     1     -19.763  -8.652  -3.432  1.00  0.00     0.102 A 
HETATM   20  C   UNL     1     -20.247  -9.265  -2.274  1.00  0.00     0.049 A 
HETATM   21  C   UNL     1     -19.548 -10.315  -1.678  1.00  0.00     0.021 A 
HETATM   22  C   UNL     1     -18.360 -10.757  -2.245  1.00  0.00     0.063 A 
HETATM   23  C   UNL     1     -17.948 -10.125  -3.405  1.00  0.00     0.106 A 
HETATM   24  N   UNL     1     -18.620  -9.101  -3.996  1.00  0.00    -0.352 N 
ATOM     25  HN  UNL     1     -18.267  -8.678  -4.854  1.00  0.00     0.166 HD
BRANCH  22  26
HETATM   26  C   UNL     1     -17.545 -11.866  -1.657  1.00  0.00     0.418 C 
HETATM   27  F   UNL     1     -18.274 -12.719  -0.883  1.00  0.00    -0.166 F 
HETATM   28  F   UNL     1     -16.946 -12.641  -2.601  1.00  0.00    -0.166 F 
HETATM   29  F   UNL     1     -16.543 -11.406  -0.858  1.00  0.00    -0.166 F 
ENDBRANCH  22  26
ENDBRANCH   4  19
TORSDOF 4
ENDMDL
MODEL 8
REMARK VINA RESULT:      -8.0      2.101      2.647
REMARK  4 active torsions:
REMARK  status: ('A' for Active; 'I' for Inactive)
REMARK       I    between atoms: C_2  and  N_3 
REMARK       I    between atoms: C_2  and  N_11 
REMARK    1  A    between atoms: N_3  and  C_4 
REMARK    2  A    between atoms: N_11  and  C_12 
REMARK    3  A    between atoms: N_15  and  C_16 
REMARK    4  A    between atoms: C_19  and  C_20 
ROOT
HETATM    1  C   UNL     1     -20.847  -7.592  -4.851  1.00  0.00     0.105 C 
HETATM    2  C   UNL     1     -21.239  -6.212  -4.334  1.00  0.00     0.046 C 
HETATM    3  C   UNL     1     -22.147  -5.632  -5.414  1.00  0.00     0.126 C 
HETATM    4  N   UNL     1     -21.637  -6.217  -6.644  1.00  0.00    -0.365 N 
HETATM    5  C   UNL     1     -20.904  -7.457  -6.388  1.00  0.00     0.149 C 
ENDROOT
BRANCH   1   6
HETATM    6  N   UNL     1     -21.745  -8.620  -4.321  1.00  0.00    -0.337 N 
HETATM    7  C   UNL     1     -21.602  -9.430  -3.246  1.00  0.00     0.321 C 
HETATM    8  O   UNL     1     -22.403 -10.353  -3.097  1.00  0.00    -0.247 OA
HETATM    9  N   UNL     1     -20.580  -9.132  -2.379  1.00  0.00    -0.308 N 
HETATM   10  H   UNL     1     -20.412  -8.145  -2.260  1.00  0.00     0.170 HD
HETATM   11  H   UNL     1     -22.483  -8.956  -4.935  1.00  0.00     0.164 HD
BRANCH   9  12
HETATM   12  C   UNL     1     -20.345  -9.915  -1.216  1.00  0.00     0.053 A 
HETATM   13  C   UNL     1     -19.484 -11.016  -1.266  1.00  0.00     0.031 A 
HETATM   14  C   UNL     1     -19.213 -11.757  -0.112  1.00  0.00     0.002 A 
HETATM   15  C   UNL     1     -19.807 -11.408   1.102  1.00  0.00     0.002 A 
HETATM   16  C   UNL     1     -20.682 -10.325   1.159  1.00  0.00     0.021 A 
HETATM   17  C   UNL     1     -20.945  -9.576   0.007  1.00  0.00     0.037 A 
HETATM   18 BR   UNL     1     -22.236  -8.185   0.118  1.00  0.00    -0.049 Br
ENDBRANCH   9  12
ENDBRANCH   1   6
BRANCH   4  19
HETATM   19  C   UNL     1     -21.466  -5.469  -7.787  1.00  0.00     0.102 A 
HETATM   20  C   UNL     1     -20.192  -5.221  -8.305  1.00  0.00     0.049 A 
HETATM   21  C   UNL     1     -20.029  -4.449  -9.455  1.00  0.00     0.021 A 
HETATM   22  C   UNL     1     -21.145  -3.923 -10.093  1.00  0.00     0.063 A 
HETATM   23  C   UNL     1     -22.378  -4.225  -9.543  1.00  0.00     0.106 A 
HETATM   24  N   UNL     1     -22.552  -4.978  -8.424  1.00  0.00    -0.352 N 
ATOM     25  HN  UNL     1     -23.489  -5.169  -8.069  1.00  0.00     0.166 HD
BRANCH  22  26
HETATM   26  C   UNL     1     -21.050  -3.072 -11.319  1.00  0.00     0.418 C 
HETATM   27  F   UNL     1     -19.955  -2.260 -11.329  1.00  0.00    -0.166 F 
HETATM   28  F   UNL     1     -20.982  -3.801 -12.466  1.00  0.00    -0.166 F 
HETATM   29  F   UNL     1     -22.123  -2.247 -11.463  1.00  0.00    -0.166 F 
ENDBRANCH  22  26
ENDBRANCH   4  19
TORSDOF 4
ENDMDL
MODEL 9
REMARK VINA RESULT:      -8.0     17.758     18.804
REMARK  4 active torsions:
REMARK  status: ('A' for Active; 'I' for Inactive)
REMARK       I    between atoms: C_2  and  N_3 
REMARK       I    between atoms: C_2  and  N_11 
REMARK    1  A    between atoms: N_3  and  C_4 
REMARK    2  A    between atoms: N_11  and  C_12 
REMARK    3  A    between atoms: N_15  and  C_16 
REMARK    4  A    between atoms: C_19  and  C_20 
ROOT
HETATM    1  C   UNL     1     -20.621   9.330   4.152  1.00  0.00     0.105 C 
HETATM    2  C   UNL     1     -20.404   8.551   2.859  1.00  0.00     0.046 C 
HETATM    3  C   UNL     1     -21.375   9.173   1.859  1.00  0.00     0.126 C 
HETATM    4  N   UNL     1     -22.493   9.602   2.684  1.00  0.00    -0.365 N 
HETATM    5  C   UNL     1     -22.090   9.796   4.077  1.00  0.00     0.149 C 
ENDROOT
BRANCH   1   6
HETATM    6  N   UNL     1     -19.662  10.432   4.260  1.00  0.00    -0.337 N 
HETATM    7  C   UNL     1     -18.374  10.426   4.674  1.00  0.00     0.321 C 
HETATM    8  O   UNL     1     -17.814  11.507   4.862  1.00  0.00    -0.247 OA
HETATM    9  N   UNL     1     -17.777   9.199   4.823  1.00  0.00    -0.308 N 
HETATM   10  H   UNL     1     -18.063   8.514   4.139  1.00  0.00     0.170 HD
HETATM   11  H   UNL     1     -20.035  11.377   4.242  1.00  0.00     0.164 HD
BRANCH   9  12
HETATM   12  C   UNL     1     -16.426   9.080   5.248  1.00  0.00     0.053 A 
HETATM   13  C   UNL     1     -16.101   9.165   6.605  1.00  0.00     0.031 A 
HETATM   14  C   UNL     1     -14.779   8.998   7.029  1.00  0.00     0.002 A 
HETATM   15  C   UNL     1     -13.769   8.753   6.098  1.00  0.00     0.002 A 
HETATM   16  C   UNL     1     -14.079   8.685   4.741  1.00  0.00     0.021 A 
HETATM   17  C   UNL     1     -15.403   8.841   4.317  1.00  0.00     0.037 A 
HETATM   18 BR   UNL     1     -15.748   8.858   2.448  1.00  0.00    -0.049 Br
ENDBRANCH   9  12
ENDBRANCH   1   6
BRANCH   4  19
HETATM   19  C   UNL     1     -23.799   9.388   2.305  1.00  0.00     0.102 A 
HETATM   20  C   UNL     1     -24.107   8.729   1.113  1.00  0.00     0.049 A 
HETATM   21  C   UNL     1     -25.434   8.531   0.731  1.00  0.00     0.021 A 
HETATM   22  C   UNL     1     -26.459   8.992   1.546  1.00  0.00     0.063 A 
HETATM   23  C   UNL     1     -26.086   9.615   2.725  1.00  0.00     0.106 A 
HETATM   24  N   UNL     1     -24.798   9.813   3.110  1.00  0.00    -0.352 N 
ATOM     25  HN  UNL     1     -24.588  10.276   3.994  1.00  0.00     0.166 HD
BRANCH  22  26
HETATM   26  C   UNL     1     -27.905   8.834   1.197  1.00  0.00     0.418 C 
HETATM   27  F   UNL     1     -28.563   7.961   2.013  1.00  0.00    -0.166 F 
HETATM   28  F   UNL     1     -28.598  10.003   1.270  1.00  0.00    -0.166 F 
HETATM   29  F   UNL     1     -28.087   8.368  -0.068  1.00  0.00    -0.166 F 
ENDBRANCH  22  26
ENDBRANCH   4  19
TORSDOF 4
ENDMDL
