REMARK  4 active torsions:
REMARK  status: ('A' for Active; 'I' for Inactive)
REMARK       I    between atoms: C_2  and  N_3 
REMARK       I    between atoms: C_2  and  N_11 
REMARK    1  A    between atoms: N_3  and  C_4 
REMARK    2  A    between atoms: N_11  and  C_12 
REMARK    3  A    between atoms: N_15  and  C_16 
REMARK    4  A    between atoms: C_19  and  C_20 
ROOT
HETATM    1  C   UNL     1       4.484  -0.281  -1.182  1.00  0.00     0.105 C 
HETATM    2  C   UNL     1       4.990   0.015  -2.590  1.00  0.00     0.046 C 
HETATM    3  C   UNL     1       5.058  -1.346  -3.276  1.00  0.00     0.126 C 
HETATM    4  N   UNL     1       5.365  -2.265  -2.192  1.00  0.00    -0.365 N 
HETATM    5  C   UNL     1       4.969  -1.718  -0.894  1.00  0.00     0.149 C 
ENDROOT
BRANCH   1   6
HETATM    6  N   UNL     1       3.029  -0.130  -1.111  1.00  0.00    -0.337 N 
HETATM    7  C   UNL     1       2.236   0.158  -0.053  1.00  0.00     0.321 C 
HETATM    8  O   UNL     1       1.017   0.050  -0.188  1.00  0.00    -0.247 OA
HETATM    9  N   UNL     1       2.862   0.585   1.092  1.00  0.00    -0.308 N 
HETATM   10  H   UNL     1       3.672   1.164   0.930  1.00  0.00     0.170 HD
HETATM   11  H   UNL     1       2.484  -0.497  -1.886  1.00  0.00     0.164 HD
BRANCH   9  12
HETATM   12  C   UNL     1       2.122   0.919   2.259  1.00  0.00     0.053 A 
HETATM   13  C   UNL     1       1.186   0.023   2.784  1.00  0.00     0.031 A 
HETATM   14  C   UNL     1       0.494   0.328   3.960  1.00  0.00     0.002 A 
HETATM   15  C   UNL     1       0.726   1.537   4.617  1.00  0.00     0.002 A 
HETATM   16  C   UNL     1       1.643   2.446   4.092  1.00  0.00     0.021 A 
HETATM   17  C   UNL     1       2.344   2.136   2.922  1.00  0.00     0.037 A 
HETATM   18 BR   UNL     1       3.492   3.462   2.188  1.00  0.00    -0.049 Br
ENDBRANCH   9  12
ENDBRANCH   1   6
BRANCH   4  19
HETATM   19  C   UNL     1       6.305  -3.261  -2.329  1.00  0.00     0.102 A 
HETATM   20  C   UNL     1       6.627  -4.103  -1.262  1.00  0.00     0.049 A 
HETATM   21  C   UNL     1       7.593  -5.099  -1.407  1.00  0.00     0.021 A 
HETATM   22  C   UNL     1       8.238  -5.257  -2.626  1.00  0.00     0.063 A 
HETATM   23  C   UNL     1       7.856  -4.407  -3.649  1.00  0.00     0.106 A 
HETATM   24  N   UNL     1       6.916  -3.433  -3.522  1.00  0.00    -0.352 N 
ATOM     25  HN  UNL     1       6.675  -2.840  -4.316  1.00  0.00     0.166 HD
BRANCH  22  26
HETATM   26  C   UNL     1       9.296  -6.290  -2.855  1.00  0.00     0.418 C 
HETATM   27  F   UNL     1       9.566  -7.039  -1.748  1.00  0.00    -0.166 F 
HETATM   28  F   UNL     1       8.966  -7.178  -3.832  1.00  0.00    -0.166 F 
HETATM   29  F   UNL     1      10.484  -5.743  -3.231  1.00  0.00    -0.166 F 
ENDBRANCH  22  26
ENDBRANCH   4  19
TORSDOF 4
