MODEL 1
REMARK VINA RESULT:      -7.5      0.000      0.000
REMARK  9 active torsions:
REMARK  status: ('A' for Active; 'I' for Inactive)
REMARK    1  A    between atoms: N_1  and  C_16 
REMARK       I    between atoms: N_1  and  C_2 
REMARK    2  A    between atoms: C_2  and  C_3 
REMARK    3  A    between atoms: C_3  and  C_4 
REMARK    4  A    between atoms: C_3  and  N_8 
REMARK    5  A    between atoms: C_4  and  C_5 
REMARK    6  A    between atoms: O_13  and  C_14 
REMARK    7  A    between atoms: C_15  and  C_26 
REMARK    8  A    between atoms: C_15  and  C_16 
REMARK    9  A    between atoms: C_16  and  C_17 
ROOT
HETATM    1  N           1     -25.988  -6.715 -18.527  0.00  0.00    -0.344 N 
HETATM    2  C           1     -26.334  -6.473 -19.829  0.00  0.00     0.249 C 
HETATM    3  O           1     -27.322  -5.824 -20.081  0.00  0.00    -0.271 OA
HETATM    4  H           1     -25.162  -7.259 -18.316  0.00  0.00     0.163 HD
ENDROOT
BRANCH   1   5
HETATM    5  C           1     -26.808  -6.194 -17.450  0.00  0.00     0.189 C 
BRANCH   5   6
HETATM    6  C           1     -28.161  -6.893 -17.458  0.00  0.00     0.074 C 
BRANCH   6   7
HETATM    7  C           1     -29.252  -5.869 -17.421  0.00  0.00    -0.056 A 
HETATM    8  C           1     -28.960  -4.530 -17.682  0.00  0.00     0.010 A 
HETATM    9  C           1     -29.977  -3.576 -17.647  0.00  0.00     0.037 A 
HETATM   10  C           1     -31.284  -3.959 -17.354  0.00  0.00     0.065 A 
HETATM   11  C           1     -31.577  -5.298 -17.093  0.00  0.00     0.037 A 
HETATM   12  C           1     -30.561  -6.253 -17.127  0.00  0.00     0.010 A 
BRANCH  10  13
HETATM   13  O           1     -32.272  -3.032 -17.321  0.00  0.00    -0.361 OA
HETATM   14  H           1     -32.043  -2.372 -16.646  0.00  0.00     0.217 HD
ENDBRANCH  10  13
ENDBRANCH   6   7
ENDBRANCH   5   6
BRANCH   5  15
HETATM   15  C           1     -26.120  -6.445 -16.131  0.00  0.00     0.197 C 
HETATM   16  O           1     -26.495  -7.386 -15.399  0.00  0.00    -0.646 OA
HETATM   17  O           1     -25.173  -5.712 -15.770  0.00  0.00    -0.646 OA
ENDBRANCH   5  15
ENDBRANCH   1   5
BRANCH   2  18
HETATM   18  C           1     -25.482  -7.017 -20.949  0.00  0.00     0.284 C 
BRANCH  18  19
HETATM   19  C           1     -24.328  -7.822 -20.366  0.00  0.00     0.155 C 
BRANCH  19  20
HETATM   20  C           1     -23.441  -8.312 -21.484  0.00  0.00     0.175 C 
HETATM   21  O           1     -22.255  -8.629 -21.248  0.00  0.00    -0.648 OA
HETATM   22  O           1     -23.892  -8.401 -22.646  0.00  0.00    -0.648 OA
ENDBRANCH  19  20
ENDBRANCH  18  19
BRANCH  18  23
HETATM   23  N           1     -24.937  -5.878 -21.760  0.00  0.00    -0.066 N 
HETATM   24  H           1     -25.348  -4.980 -21.420  0.00  0.00     0.275 HD
HETATM   25  H           1     -23.897  -5.846 -21.657  0.00  0.00     0.275 HD
HETATM   26  H           1     -25.186  -6.016 -22.765  0.00  0.00     0.275 HD
ENDBRANCH  18  23
ENDBRANCH   2  18
TORSDOF 9
ENDMDL
MODEL 2
REMARK VINA RESULT:      -7.5     10.227     12.387
REMARK  9 active torsions:
REMARK  status: ('A' for Active; 'I' for Inactive)
REMARK    1  A    between atoms: N_1  and  C_16 
REMARK       I    between atoms: N_1  and  C_2 
REMARK    2  A    between atoms: C_2  and  C_3 
REMARK    3  A    between atoms: C_3  and  C_4 
REMARK    4  A    between atoms: C_3  and  N_8 
REMARK    5  A    between atoms: C_4  and  C_5 
REMARK    6  A    between atoms: O_13  and  C_14 
REMARK    7  A    between atoms: C_15  and  C_26 
REMARK    8  A    between atoms: C_15  and  C_16 
REMARK    9  A    between atoms: C_16  and  C_17 
ROOT
HETATM    1  N           1     -35.789  -2.031 -10.480  0.00  0.00    -0.344 N 
HETATM    2  C           1     -34.457  -2.308 -10.629  0.00  0.00     0.249 C 
HETATM    3  O           1     -33.657  -1.404 -10.701  0.00  0.00    -0.271 OA
HETATM    4  H           1     -36.459  -2.788 -10.420  0.00  0.00     0.163 HD
ENDROOT
BRANCH   1   5
HETATM    5  C           1     -36.241  -0.655 -10.411  0.00  0.00     0.189 C 
BRANCH   5   6
HETATM    6  C           1     -37.496  -0.490 -11.258  0.00  0.00     0.074 C 
BRANCH   6   7
HETATM    7  C           1     -37.108  -0.137 -12.660  0.00  0.00    -0.056 A 
HETATM    8  C           1     -35.794   0.233 -12.947  0.00  0.00     0.010 A 
HETATM    9  C           1     -35.433   0.563 -14.253  0.00  0.00     0.037 A 
HETATM   10  C           1     -36.383   0.521 -15.272  0.00  0.00     0.065 A 
HETATM   11  C           1     -37.697   0.150 -14.986  0.00  0.00     0.037 A 
HETATM   12  C           1     -38.060  -0.179 -13.680  0.00  0.00     0.010 A 
BRANCH  10  13
HETATM   13  O           1     -36.031   0.840 -16.542  0.00  0.00    -0.361 OA
HETATM   14  H           1     -35.192   1.327 -16.507  0.00  0.00     0.217 HD
ENDBRANCH  10  13
ENDBRANCH   6   7
ENDBRANCH   5   6
BRANCH   5  15
HETATM   15  C           1     -36.553  -0.302  -8.977  0.00  0.00     0.197 C 
HETATM   16  O           1     -37.719  -0.424  -8.542  0.00  0.00    -0.646 OA
HETATM   17  O           1     -35.645   0.110  -8.223  0.00  0.00    -0.646 OA
ENDBRANCH   5  15
ENDBRANCH   1   5
BRANCH   2  18
HETATM   18  C           1     -33.987  -3.739 -10.703  0.00  0.00     0.284 C 
BRANCH  18  19
HETATM   19  C           1     -33.274  -3.973 -12.028  0.00  0.00     0.155 C 
BRANCH  19  20
HETATM   20  C           1     -34.288  -4.009 -13.145  0.00  0.00     0.175 C 
HETATM   21  O           1     -34.477  -2.994 -13.850  0.00  0.00    -0.648 OA
HETATM   22  O           1     -34.938  -5.053 -13.366  0.00  0.00    -0.648 OA
ENDBRANCH  19  20
ENDBRANCH  18  19
BRANCH  18  23
HETATM   23  N           1     -35.168  -4.659 -10.602  0.00  0.00    -0.066 N 
HETATM   24  H           1     -35.224  -5.049  -9.634  0.00  0.00     0.275 HD
HETATM   25  H           1     -36.041  -4.126 -10.815  0.00  0.00     0.275 HD
HETATM   26  H           1     -35.059  -5.441 -11.286  0.00  0.00     0.275 HD
ENDBRANCH  18  23
ENDBRANCH   2  18
TORSDOF 9
ENDMDL
MODEL 3
REMARK VINA RESULT:      -7.5     11.580     14.756
REMARK  9 active torsions:
REMARK  status: ('A' for Active; 'I' for Inactive)
REMARK    1  A    between atoms: N_1  and  C_16 
REMARK       I    between atoms: N_1  and  C_2 
REMARK    2  A    between atoms: C_2  and  C_3 
REMARK    3  A    between atoms: C_3  and  C_4 
REMARK    4  A    between atoms: C_3  and  N_8 
REMARK    5  A    between atoms: C_4  and  C_5 
REMARK    6  A    between atoms: O_13  and  C_14 
REMARK    7  A    between atoms: C_15  and  C_26 
REMARK    8  A    between atoms: C_15  and  C_16 
REMARK    9  A    between atoms: C_16  and  C_17 
ROOT
HETATM    1  N           1     -21.011  -5.131  -5.198  0.00  0.00    -0.344 N 
HETATM    2  C           1     -21.322  -6.230  -4.443  0.00  0.00     0.249 C 
HETATM    3  O           1     -21.615  -7.271  -4.984  0.00  0.00    -0.271 OA
HETATM    4  H           1     -20.766  -4.260  -4.746  0.00  0.00     0.163 HD
ENDROOT
BRANCH   1   5
HETATM    5  C           1     -21.033  -5.216  -6.646  0.00  0.00     0.189 C 
BRANCH   5   6
HETATM    6  C           1     -21.514  -3.891  -7.224  0.00  0.00     0.074 C 
BRANCH   6   7
HETATM    7  C           1     -22.078  -4.120  -8.591  0.00  0.00    -0.056 A 
HETATM    8  C           1     -23.450  -4.314  -8.755  0.00  0.00     0.010 A 
HETATM    9  C           1     -23.976  -4.527 -10.030  0.00  0.00     0.037 A 
HETATM   10  C           1     -23.132  -4.544 -11.139  0.00  0.00     0.065 A 
HETATM   11  C           1     -21.760  -4.349 -10.976  0.00  0.00     0.037 A 
HETATM   12  C           1     -21.233  -4.136  -9.702  0.00  0.00     0.010 A 
BRANCH  10  13
HETATM   13  O           1     -23.643  -4.750 -12.377  0.00  0.00    -0.361 OA
HETATM   14  H           1     -24.087  -5.614 -12.379  0.00  0.00     0.217 HD
ENDBRANCH  10  13
ENDBRANCH   6   7
ENDBRANCH   5   6
BRANCH   5  15
HETATM   15  C           1     -19.641  -5.509  -7.151  0.00  0.00     0.197 C 
HETATM   16  O           1     -19.317  -6.681  -7.444  0.00  0.00    -0.646 OA
HETATM   17  O           1     -18.813  -4.581  -7.279  0.00  0.00    -0.646 OA
ENDBRANCH   5  15
ENDBRANCH   1   5
BRANCH   2  18
HETATM   18  C           1     -21.301  -6.142  -2.938  0.00  0.00     0.284 C 
BRANCH  18  19
HETATM   19  C           1     -20.704  -7.419  -2.361  0.00  0.00     0.155 C 
BRANCH  19  20
HETATM   20  C           1     -21.655  -8.008  -1.349  0.00  0.00     0.175 C 
HETATM   21  O           1     -21.796  -7.462  -0.234  0.00  0.00    -0.648 OA
HETATM   22  O           1     -22.301  -9.040  -1.626  0.00  0.00    -0.648 OA
ENDBRANCH  19  20
ENDBRANCH  18  19
BRANCH  18  23
HETATM   23  N           1     -22.701  -5.972  -2.427  0.00  0.00    -0.066 N 
HETATM   24  H           1     -23.101  -5.080  -2.796  0.00  0.00     0.275 HD
HETATM   25  H           1     -23.288  -6.775  -2.748  0.00  0.00     0.275 HD
HETATM   26  H           1     -22.690  -5.942  -1.383  0.00  0.00     0.275 HD
ENDBRANCH  18  23
ENDBRANCH   2  18
TORSDOF 9
ENDMDL
MODEL 4
REMARK VINA RESULT:      -7.4      2.055      6.691
REMARK  9 active torsions:
REMARK  status: ('A' for Active; 'I' for Inactive)
REMARK    1  A    between atoms: N_1  and  C_16 
REMARK       I    between atoms: N_1  and  C_2 
REMARK    2  A    between atoms: C_2  and  C_3 
REMARK    3  A    between atoms: C_3  and  C_4 
REMARK    4  A    between atoms: C_3  and  N_8 
REMARK    5  A    between atoms: C_4  and  C_5 
REMARK    6  A    between atoms: O_13  and  C_14 
REMARK    7  A    between atoms: C_15  and  C_26 
REMARK    8  A    between atoms: C_15  and  C_16 
REMARK    9  A    between atoms: C_16  and  C_17 
ROOT
HETATM    1  N           1     -28.766  -6.214 -17.134  0.00  0.00    -0.344 N 
HETATM    2  C           1     -29.898  -6.838 -17.582  0.00  0.00     0.249 C 
HETATM    3  O           1     -29.847  -7.987 -17.956  0.00  0.00    -0.271 OA
HETATM    4  H           1     -28.808  -5.252 -16.821  0.00  0.00     0.163 HD
ENDROOT
BRANCH   1   5
HETATM    5  C           1     -27.505  -6.930 -17.108  0.00  0.00     0.189 C 
BRANCH   5   6
HETATM    6  C           1     -26.413  -6.056 -17.714  0.00  0.00     0.074 C 
BRANCH   6   7
HETATM    7  C           1     -25.870  -6.718 -18.942  0.00  0.00    -0.056 A 
HETATM    8  C           1     -26.705  -6.956 -20.033  0.00  0.00     0.010 A 
HETATM    9  C           1     -26.199  -7.573 -21.177  0.00  0.00     0.037 A 
HETATM   10  C           1     -24.858  -7.950 -21.231  0.00  0.00     0.065 A 
HETATM   11  C           1     -24.021  -7.711 -20.140  0.00  0.00     0.037 A 
HETATM   12  C           1     -24.527  -7.095 -18.995  0.00  0.00     0.010 A 
BRANCH  10  13
HETATM   13  O           1     -24.365  -8.548 -22.343  0.00  0.00    -0.361 OA
HETATM   14  H           1     -25.004  -9.222 -22.629  0.00  0.00     0.217 HD
ENDBRANCH  10  13
ENDBRANCH   6   7
ENDBRANCH   5   6
BRANCH   5  15
HETATM   15  C           1     -27.147  -7.263 -15.680  0.00  0.00     0.197 C 
HETATM   16  O           1     -25.948  -7.307 -15.330  0.00  0.00    -0.646 OA
HETATM   17  O           1     -28.050  -7.494 -14.847  0.00  0.00    -0.646 OA
ENDBRANCH   5  15
ENDBRANCH   1   5
BRANCH   2  18
HETATM   18  C           1     -31.209  -6.094 -17.610  0.00  0.00     0.284 C 
BRANCH  18  19
HETATM   19  C           1     -31.148  -4.917 -16.645  0.00  0.00     0.155 C 
BRANCH  19  20
HETATM   20  C           1     -30.937  -3.640 -17.421  0.00  0.00     0.175 C 
HETATM   21  O           1     -29.779  -3.259 -17.695  0.00  0.00    -0.648 OA
HETATM   22  O           1     -31.922  -2.963 -17.789  0.00  0.00    -0.648 OA
ENDBRANCH  19  20
ENDBRANCH  18  19
BRANCH  18  23
HETATM   23  N           1     -32.318  -7.018 -17.199  0.00  0.00    -0.066 N 
HETATM   24  H           1     -33.236  -6.530 -17.305  0.00  0.00     0.275 HD
HETATM   25  H           1     -32.304  -7.868 -17.806  0.00  0.00     0.275 HD
HETATM   26  H           1     -32.186  -7.298 -16.202  0.00  0.00     0.275 HD
ENDBRANCH  18  23
ENDBRANCH   2  18
TORSDOF 9
ENDMDL
MODEL 5
REMARK VINA RESULT:      -6.8     13.077     15.959
REMARK  9 active torsions:
REMARK  status: ('A' for Active; 'I' for Inactive)
REMARK    1  A    between atoms: N_1  and  C_16 
REMARK       I    between atoms: N_1  and  C_2 
REMARK    2  A    between atoms: C_2  and  C_3 
REMARK    3  A    between atoms: C_3  and  C_4 
REMARK    4  A    between atoms: C_3  and  N_8 
REMARK    5  A    between atoms: C_4  and  C_5 
REMARK    6  A    between atoms: O_13  and  C_14 
REMARK    7  A    between atoms: C_15  and  C_26 
REMARK    8  A    between atoms: C_15  and  C_16 
REMARK    9  A    between atoms: C_16  and  C_17 
ROOT
HETATM    1  N           1     -20.019  -6.961  -6.017  0.00  0.00    -0.344 N 
HETATM    2  C           1     -20.166  -5.601  -6.007  0.00  0.00     0.249 C 
HETATM    3  O           1     -20.304  -5.016  -4.958  0.00  0.00    -0.271 OA
HETATM    4  H           1     -19.904  -7.451  -6.895  0.00  0.00     0.163 HD
ENDROOT
BRANCH   1   5
HETATM    5  C           1     -20.028  -7.701  -4.770  0.00  0.00     0.189 C 
BRANCH   5   6
HETATM    6  C           1     -21.443  -8.186  -4.478  0.00  0.00     0.074 C 
BRANCH   6   7
HETATM    7  C           1     -21.708  -8.094  -3.008  0.00  0.00    -0.056 A 
HETATM    8  C           1     -21.709  -9.250  -2.227  0.00  0.00     0.010 A 
HETATM    9  C           1     -21.957  -9.165  -0.856  0.00  0.00     0.037 A 
HETATM   10  C           1     -22.200  -7.925  -0.267  0.00  0.00     0.065 A 
HETATM   11  C           1     -22.199  -6.769  -1.048  0.00  0.00     0.037 A 
HETATM   12  C           1     -21.952  -6.853  -2.419  0.00  0.00     0.010 A 
BRANCH  10  13
HETATM   13  O           1     -22.440  -7.842   1.064  0.00  0.00    -0.361 OA
HETATM   14  H           1     -23.344  -8.159   1.227  0.00  0.00     0.217 HD
ENDBRANCH  10  13
ENDBRANCH   6   7
ENDBRANCH   5   6
BRANCH   5  15
HETATM   15  C           1     -19.104  -8.888  -4.885  0.00  0.00     0.197 C 
HETATM   16  O           1     -18.929  -9.440  -5.993  0.00  0.00    -0.646 OA
HETATM   17  O           1     -18.511  -9.320  -3.872  0.00  0.00    -0.646 OA
ENDBRANCH   5  15
ENDBRANCH   1   5
BRANCH   2  18
HETATM   18  C           1     -20.158  -4.831  -7.304  0.00  0.00     0.284 C 
BRANCH  18  19
HETATM   19  C           1     -21.077  -3.623  -7.185  0.00  0.00     0.155 C 
BRANCH  19  20
HETATM   20  C           1     -22.383  -3.912  -7.885  0.00  0.00     0.175 C 
HETATM   21  O           1     -23.308  -4.483  -7.269  0.00  0.00    -0.648 OA
HETATM   22  O           1     -22.538  -3.580  -9.079  0.00  0.00    -0.648 OA
ENDBRANCH  19  20
ENDBRANCH  18  19
BRANCH  18  23
HETATM   23  N           1     -20.641  -5.718  -8.414  0.00  0.00    -0.066 N 
HETATM   24  H           1     -19.821  -6.146  -8.900  0.00  0.00     0.275 HD
HETATM   25  H           1     -21.244  -6.473  -8.018  0.00  0.00     0.275 HD
HETATM   26  H           1     -21.193  -5.151  -9.097  0.00  0.00     0.275 HD
ENDBRANCH  18  23
ENDBRANCH   2  18
TORSDOF 9
ENDMDL
MODEL 6
REMARK VINA RESULT:      -6.8     11.404     14.536
REMARK  9 active torsions:
REMARK  status: ('A' for Active; 'I' for Inactive)
REMARK    1  A    between atoms: N_1  and  C_16 
REMARK       I    between atoms: N_1  and  C_2 
REMARK    2  A    between atoms: C_2  and  C_3 
REMARK    3  A    between atoms: C_3  and  C_4 
REMARK    4  A    between atoms: C_3  and  N_8 
REMARK    5  A    between atoms: C_4  and  C_5 
REMARK    6  A    between atoms: O_13  and  C_14 
REMARK    7  A    between atoms: C_15  and  C_26 
REMARK    8  A    between atoms: C_15  and  C_16 
REMARK    9  A    between atoms: C_16  and  C_17 
ROOT
HETATM    1  N           1     -21.552  -6.484  -5.791  0.00  0.00    -0.344 N 
HETATM    2  C           1     -20.897  -7.650  -5.502  0.00  0.00     0.249 C 
HETATM    3  O           1     -19.869  -7.923  -6.076  0.00  0.00    -0.271 OA
HETATM    4  H           1     -22.413  -6.255  -5.311  0.00  0.00     0.163 HD
ENDROOT
BRANCH   1   5
HETATM    5  C           1     -21.014  -5.576  -6.786  0.00  0.00     0.189 C 
BRANCH   5   6
HETATM    6  C           1     -22.106  -4.616  -7.241  0.00  0.00     0.074 C 
BRANCH   6   7
HETATM    7  C           1     -22.017  -4.427  -8.723  0.00  0.00    -0.056 A 
HETATM    8  C           1     -20.783  -4.167  -9.320  0.00  0.00     0.010 A 
HETATM    9  C           1     -20.701  -3.991 -10.701  0.00  0.00     0.037 A 
HETATM   10  C           1     -21.850  -4.076 -11.486  0.00  0.00     0.065 A 
HETATM   11  C           1     -23.084  -4.337 -10.890  0.00  0.00     0.037 A 
HETATM   12  C           1     -23.168  -4.513  -9.508  0.00  0.00     0.010 A 
BRANCH  10  13
HETATM   13  O           1     -21.770  -3.906 -12.828  0.00  0.00    -0.361 OA
HETATM   14  H           1     -22.674  -3.883 -13.183  0.00  0.00     0.217 HD
ENDBRANCH  10  13
ENDBRANCH   6   7
ENDBRANCH   5   6
BRANCH   5  15
HETATM   15  C           1     -19.874  -4.792  -6.184  0.00  0.00     0.197 C 
HETATM   16  O           1     -19.980  -4.322  -5.030  0.00  0.00    -0.646 OA
HETATM   17  O           1     -18.823  -4.613  -6.837  0.00  0.00    -0.646 OA
ENDBRANCH   5  15
ENDBRANCH   1   5
BRANCH   2  18
HETATM   18  C           1     -21.458  -8.595  -4.469  0.00  0.00     0.284 C 
BRANCH  18  19
HETATM   19  C           1     -21.717  -7.836  -3.173  0.00  0.00     0.155 C 
BRANCH  19  20
HETATM   20  C           1     -21.301  -8.687  -1.999  0.00  0.00     0.175 C 
HETATM   21  O           1     -20.227  -8.452  -1.406  0.00  0.00    -0.648 OA
HETATM   22  O           1     -22.032  -9.627  -1.619  0.00  0.00    -0.648 OA
ENDBRANCH  19  20
ENDBRANCH  18  19
BRANCH  18  23
HETATM   23  N           1     -20.473  -9.697  -4.212  0.00  0.00    -0.066 N 
HETATM   24  H           1     -20.904 -10.615  -4.463  0.00  0.00     0.275 HD
HETATM   25  H           1     -19.619  -9.542  -4.795  0.00  0.00     0.275 HD
HETATM   26  H           1     -20.211  -9.701  -3.201  0.00  0.00     0.275 HD
ENDBRANCH  18  23
ENDBRANCH   2  18
TORSDOF 9
ENDMDL
MODEL 7
REMARK VINA RESULT:      -6.7     13.571     16.771
REMARK  9 active torsions:
REMARK  status: ('A' for Active; 'I' for Inactive)
REMARK    1  A    between atoms: N_1  and  C_16 
REMARK       I    between atoms: N_1  and  C_2 
REMARK    2  A    between atoms: C_2  and  C_3 
REMARK    3  A    between atoms: C_3  and  C_4 
REMARK    4  A    between atoms: C_3  and  N_8 
REMARK    5  A    between atoms: C_4  and  C_5 
REMARK    6  A    between atoms: O_13  and  C_14 
REMARK    7  A    between atoms: C_15  and  C_26 
REMARK    8  A    between atoms: C_15  and  C_16 
REMARK    9  A    between atoms: C_16  and  C_17 
ROOT
HETATM    1  N           1     -21.059  -7.367  -3.161  0.00  0.00    -0.344 N 
HETATM    2  C           1     -21.840  -6.815  -2.183  0.00  0.00     0.249 C 
HETATM    3  O           1     -22.654  -5.967  -2.466  0.00  0.00    -0.271 OA
HETATM    4  H           1     -20.378  -8.077  -2.924  0.00  0.00     0.163 HD
ENDROOT
BRANCH   1   5
HETATM    5  C           1     -21.207  -6.934  -4.538  0.00  0.00     0.189 C 
BRANCH   5   6
HETATM    6  C           1     -20.442  -5.633  -4.745  0.00  0.00     0.074 C 
BRANCH   6   7
HETATM    7  C           1     -20.695  -5.122  -6.129  0.00  0.00    -0.056 A 
HETATM    8  C           1     -19.622  -4.762  -6.945  0.00  0.00     0.010 A 
HETATM    9  C           1     -19.858  -4.285  -8.235  0.00  0.00     0.037 A 
HETATM   10  C           1     -21.164  -4.170  -8.709  0.00  0.00     0.065 A 
HETATM   11  C           1     -22.236  -4.531  -7.893  0.00  0.00     0.037 A 
HETATM   12  C           1     -22.002  -5.007  -6.603  0.00  0.00     0.010 A 
BRANCH  10  13
HETATM   13  O           1     -21.392  -3.708  -9.962  0.00  0.00    -0.361 OA
HETATM   14  H           1     -22.302  -3.367  -9.996  0.00  0.00     0.217 HD
ENDBRANCH  10  13
ENDBRANCH   6   7
ENDBRANCH   5   6
BRANCH   5  15
HETATM   15  C           1     -20.654  -7.995  -5.458  0.00  0.00     0.197 C 
HETATM   16  O           1     -19.419  -8.176  -5.532  0.00  0.00    -0.646 OA
HETATM   17  O           1     -21.430  -8.694  -6.145  0.00  0.00    -0.646 OA
ENDBRANCH   5  15
ENDBRANCH   1   5
BRANCH   2  18
HETATM   18  C           1     -21.686  -7.264  -0.751  0.00  0.00     0.284 C 
BRANCH  18  19
HETATM   19  C           1     -20.834  -8.526  -0.702  0.00  0.00     0.155 C 
BRANCH  19  20
HETATM   20  C           1     -21.222  -9.349   0.502  0.00  0.00     0.175 C 
HETATM   21  O           1     -20.926  -8.954   1.650  0.00  0.00    -0.648 OA
HETATM   22  O           1     -21.838 -10.425   0.350  0.00  0.00    -0.648 OA
ENDBRANCH  19  20
ENDBRANCH  18  19
BRANCH  18  23
HETATM   23  N           1     -23.038  -7.553  -0.169  0.00  0.00    -0.066 N 
HETATM   24  H           1     -23.336  -6.753   0.434  0.00  0.00     0.275 HD
HETATM   25  H           1     -23.729  -7.681  -0.943  0.00  0.00     0.275 HD
HETATM   26  H           1     -22.991  -8.424   0.405  0.00  0.00     0.275 HD
ENDBRANCH  18  23
ENDBRANCH   2  18
TORSDOF 9
ENDMDL
MODEL 8
REMARK VINA RESULT:      -6.4     15.392     18.217
REMARK  9 active torsions:
REMARK  status: ('A' for Active; 'I' for Inactive)
REMARK    1  A    between atoms: N_1  and  C_16 
REMARK       I    between atoms: N_1  and  C_2 
REMARK    2  A    between atoms: C_2  and  C_3 
REMARK    3  A    between atoms: C_3  and  C_4 
REMARK    4  A    between atoms: C_3  and  N_8 
REMARK    5  A    between atoms: C_4  and  C_5 
REMARK    6  A    between atoms: O_13  and  C_14 
REMARK    7  A    between atoms: C_15  and  C_26 
REMARK    8  A    between atoms: C_15  and  C_16 
REMARK    9  A    between atoms: C_16  and  C_17 
ROOT
HETATM    1  N           1     -21.142  -8.466  -2.560  0.00  0.00    -0.344 N 
HETATM    2  C           1     -21.258  -9.352  -3.596  0.00  0.00     0.249 C 
HETATM    3  O           1     -22.066 -10.249  -3.536  0.00  0.00    -0.271 OA
HETATM    4  H           1     -20.465  -7.715  -2.610  0.00  0.00     0.163 HD
ENDROOT
BRANCH   1   5
HETATM    5  C           1     -21.986  -8.604  -1.388  0.00  0.00     0.189 C 
BRANCH   5   6
HETATM    6  C           1     -21.195  -9.268  -0.268  0.00  0.00     0.074 C 
BRANCH   6   7
HETATM    7  C           1     -21.839 -10.570   0.093  0.00  0.00    -0.056 A 
HETATM    8  C           1     -23.187 -10.785  -0.196  0.00  0.00     0.010 A 
HETATM    9  C           1     -23.787 -11.998   0.141  0.00  0.00     0.037 A 
HETATM   10  C           1     -23.041 -12.997   0.765  0.00  0.00     0.065 A 
HETATM   11  C           1     -21.693 -12.783   1.053  0.00  0.00     0.037 A 
HETATM   12  C           1     -21.092 -11.569   0.717  0.00  0.00     0.010 A 
BRANCH  10  13
HETATM   13  O           1     -23.624 -14.176   1.091  0.00  0.00    -0.361 OA
HETATM   14  H           1     -24.423 -14.276   0.548  0.00  0.00     0.217 HD
ENDBRANCH  10  13
ENDBRANCH   6   7
ENDBRANCH   5   6
BRANCH   5  15
HETATM   15  C           1     -22.446  -7.239  -0.939  0.00  0.00     0.197 C 
HETATM   16  O           1     -22.173  -6.230  -1.625  0.00  0.00    -0.646 OA
HETATM   17  O           1     -23.102  -7.117   0.119  0.00  0.00    -0.646 OA
ENDBRANCH   5  15
ENDBRANCH   1   5
BRANCH   2  18
HETATM   18  C           1     -20.379  -9.209  -4.814  0.00  0.00     0.284 C 
BRANCH  18  19
HETATM   19  C           1     -20.024  -7.742  -5.015  0.00  0.00     0.155 C 
BRANCH  19  20
HETATM   20  C           1     -21.139  -7.051  -5.761  0.00  0.00     0.175 C 
HETATM   21  O           1     -20.991  -6.744  -6.963  0.00  0.00    -0.648 OA
HETATM   22  O           1     -22.212  -6.787  -5.176  0.00  0.00    -0.648 OA
ENDBRANCH  19  20
ENDBRANCH  18  19
BRANCH  18  23
HETATM   23  N           1     -21.112  -9.715  -6.021  0.00  0.00    -0.066 N 
HETATM   24  H           1     -22.053  -9.263  -6.073  0.00  0.00     0.275 HD
HETATM   25  H           1     -20.566  -9.482  -6.881  0.00  0.00     0.275 HD
HETATM   26  H           1     -21.227 -10.751  -5.950  0.00  0.00     0.275 HD
ENDBRANCH  18  23
ENDBRANCH   2  18
TORSDOF 9
ENDMDL
MODEL 9
REMARK VINA RESULT:      -6.3     12.802     15.095
REMARK  9 active torsions:
REMARK  status: ('A' for Active; 'I' for Inactive)
REMARK    1  A    between atoms: N_1  and  C_16 
REMARK       I    between atoms: N_1  and  C_2 
REMARK    2  A    between atoms: C_2  and  C_3 
REMARK    3  A    between atoms: C_3  and  C_4 
REMARK    4  A    between atoms: C_3  and  N_8 
REMARK    5  A    between atoms: C_4  and  C_5 
REMARK    6  A    between atoms: O_13  and  C_14 
REMARK    7  A    between atoms: C_15  and  C_26 
REMARK    8  A    between atoms: C_15  and  C_16 
REMARK    9  A    between atoms: C_16  and  C_17 
ROOT
HETATM    1  N           1     -21.565  -8.519  -4.357  0.00  0.00    -0.344 N 
HETATM    2  C           1     -20.522  -9.282  -4.806  0.00  0.00     0.249 C 
HETATM    3  O           1     -19.445  -8.772  -5.013  0.00  0.00    -0.271 OA
HETATM    4  H           1     -22.466  -8.945  -4.184  0.00  0.00     0.163 HD
ENDROOT
BRANCH   1   5
HETATM    5  C           1     -21.380  -7.098  -4.130  0.00  0.00     0.189 C 
BRANCH   5   6
HETATM    6  C           1     -22.434  -6.319  -4.906  0.00  0.00     0.074 C 
BRANCH   6   7
HETATM    7  C           1     -21.788  -5.620  -6.062  0.00  0.00    -0.056 A 
HETATM    8  C           1     -22.551  -4.807  -6.899  0.00  0.00     0.010 A 
HETATM    9  C           1     -21.948  -4.156  -7.976  0.00  0.00     0.037 A 
HETATM   10  C           1     -20.584  -4.316  -8.214  0.00  0.00     0.065 A 
HETATM   11  C           1     -19.820  -5.129  -7.376  0.00  0.00     0.037 A 
HETATM   12  C           1     -20.422  -5.781  -6.299  0.00  0.00     0.010 A 
BRANCH  10  13
HETATM   13  O           1     -19.999  -3.683  -9.260  0.00  0.00    -0.361 OA
HETATM   14  H           1     -20.089  -2.726  -9.120  0.00  0.00     0.217 HD
ENDBRANCH  10  13
ENDBRANCH   6   7
ENDBRANCH   5   6
BRANCH   5  15
HETATM   15  C           1     -21.520  -6.804  -2.657  0.00  0.00     0.197 C 
HETATM   16  O           1     -20.827  -7.430  -1.826  0.00  0.00    -0.646 OA
HETATM   17  O           1     -22.328  -5.933  -2.267  0.00  0.00    -0.646 OA
ENDBRANCH   5  15
ENDBRANCH   1   5
BRANCH   2  18
HETATM   18  C           1     -20.715 -10.759  -5.043  0.00  0.00     0.284 C 
BRANCH  18  19
HETATM   19  C           1     -19.367 -11.466  -4.975  0.00  0.00     0.155 C 
BRANCH  19  20
HETATM   20  C           1     -18.994 -11.972  -6.346  0.00  0.00     0.175 C 
HETATM   21  O           1     -19.137 -13.182  -6.626  0.00  0.00    -0.648 OA
HETATM   22  O           1     -18.542 -11.182  -7.202  0.00  0.00    -0.648 OA
ENDBRANCH  19  20
ENDBRANCH  18  19
BRANCH  18  23
HETATM   23  N           1     -21.321 -10.973  -6.399  0.00  0.00    -0.066 N 
HETATM   24  H           1     -20.562 -11.112  -7.103  0.00  0.00     0.275 HD
HETATM   25  H           1     -21.934 -11.819  -6.375  0.00  0.00     0.275 HD
HETATM   26  H           1     -21.890 -10.136  -6.661  0.00  0.00     0.275 HD
ENDBRANCH  18  23
ENDBRANCH   2  18
TORSDOF 9
ENDMDL
