MODEL 1
REMARK VINA RESULT:      -6.6      0.000      0.000
REMARK  8 active torsions:
REMARK  status: ('A' for Active; 'I' for Inactive)
REMARK    1  A    between atoms: C_2  and  C_3 
REMARK    2  A    between atoms: C_2  and  C_14 
REMARK    3  A    between atoms: C_2  and  N_10 
REMARK       I    between atoms: C_3  and  N_4 
REMARK    4  A    between atoms: N_4  and  C_8 
REMARK    5  A    between atoms: C_7  and  C_8 
REMARK    6  A    between atoms: C_8  and  C_12 
REMARK    7  A    between atoms: C_12  and  C_20 
REMARK    8  A    between atoms: C_14  and  C_16 
ROOT
HETATM    1  C           1     -34.490  -2.409 -12.540  0.00  0.00     0.249 C 
HETATM    2  N           1     -35.108  -1.195 -12.400  0.00  0.00    -0.344 N 
HETATM    3  H           1     -35.031  -0.686 -11.529  0.00  0.00     0.163 HD
HETATM    4  O           1     -34.582  -3.017 -13.580  0.00  0.00    -0.271 OA
ENDROOT
BRANCH   1   5
HETATM    5  C           1     -33.695  -2.989 -11.396  0.00  0.00     0.275 C 
BRANCH   5   6
HETATM    6  C           1     -34.536  -4.030 -10.670  0.00  0.00     0.046 C 
BRANCH   6   7
HETATM    7  C           1     -34.195  -5.418 -11.196  0.00  0.00    -0.020 C 
HETATM    8  C           1     -34.567  -6.461 -10.152  0.00  0.00     0.009 C 
HETATM    9  C           1     -32.702  -5.499 -11.485  0.00  0.00     0.009 C 
ENDBRANCH   6   7
ENDBRANCH   5   6
BRANCH   5  10
HETATM   10  N           1     -33.323  -1.893 -10.441  0.00  0.00    -0.066 N 
HETATM   11  H           1     -32.596  -2.243  -9.777  0.00  0.00     0.275 HD
HETATM   12  H           1     -34.170  -1.595  -9.906  0.00  0.00     0.275 HD
HETATM   13  H           1     -32.945  -1.080 -10.976  0.00  0.00     0.275 HD
ENDBRANCH   5  10
ENDBRANCH   1   5
BRANCH   2  14
HETATM   14  C           1     -35.872  -0.638 -13.499  0.00  0.00     0.195 C 
BRANCH  14  15
HETATM   15  C           1     -35.031   0.378 -14.231  0.00  0.00     0.197 C 
HETATM   16  O           1     -34.652   0.151 -15.401  0.00  0.00    -0.646 OA
HETATM   17  O           1     -34.715   1.450 -13.669  0.00  0.00    -0.646 OA
ENDBRANCH  14  15
BRANCH  14  18
HETATM   18  C           1     -37.126   0.034 -12.957  0.00  0.00     0.149 C 
BRANCH  18  19
HETATM   19  C           1     -37.192  -0.154 -11.461  0.00  0.00     0.175 C 
HETATM   20  O           1     -36.495   0.562 -10.710  0.00  0.00    -0.648 OA
HETATM   21  O           1     -37.942  -1.026 -10.974  0.00  0.00    -0.648 OA
ENDBRANCH  18  19
ENDBRANCH  14  18
ENDBRANCH   2  14
TORSDOF 8
ENDMDL
MODEL 2
REMARK VINA RESULT:      -6.3      2.078      3.423
REMARK  8 active torsions:
REMARK  status: ('A' for Active; 'I' for Inactive)
REMARK    1  A    between atoms: C_2  and  C_3 
REMARK    2  A    between atoms: C_2  and  C_14 
REMARK    3  A    between atoms: C_2  and  N_10 
REMARK       I    between atoms: C_3  and  N_4 
REMARK    4  A    between atoms: N_4  and  C_8 
REMARK    5  A    between atoms: C_7  and  C_8 
REMARK    6  A    between atoms: C_8  and  C_12 
REMARK    7  A    between atoms: C_12  and  C_20 
REMARK    8  A    between atoms: C_14  and  C_16 
ROOT
HETATM    1  C           1     -35.665  -1.189 -12.873  0.00  0.00     0.249 C 
HETATM    2  N           1     -35.043  -0.791 -14.026  0.00  0.00    -0.344 N 
HETATM    3  H           1     -34.038  -0.880 -14.116  0.00  0.00     0.163 HD
HETATM    4  O           1     -36.864  -1.083 -12.767  0.00  0.00    -0.271 OA
ENDROOT
BRANCH   1   5
HETATM    5  C           1     -34.854  -1.758 -11.735  0.00  0.00     0.275 C 
BRANCH   5   6
HETATM    6  C           1     -35.100  -3.258 -11.635  0.00  0.00     0.046 C 
BRANCH   6   7
HETATM    7  C           1     -33.927  -3.920 -10.927  0.00  0.00    -0.020 C 
HETATM    8  C           1     -32.722  -3.947 -11.858  0.00  0.00     0.009 C 
HETATM    9  C           1     -34.303  -5.344 -10.541  0.00  0.00     0.009 C 
ENDBRANCH   6   7
ENDBRANCH   5   6
BRANCH   5  10
HETATM   10  N           1     -35.262  -1.098 -10.452  0.00  0.00    -0.066 N 
HETATM   11  H           1     -34.702  -0.227 -10.315  0.00  0.00     0.275 HD
HETATM   12  H           1     -35.091  -1.752  -9.654  0.00  0.00     0.275 HD
HETATM   13  H           1     -36.278  -0.857 -10.493  0.00  0.00     0.275 HD
ENDBRANCH   5  10
ENDBRANCH   1   5
BRANCH   2  14
HETATM   14  C           1     -35.822  -0.244 -15.120  0.00  0.00     0.195 C 
BRANCH  14  15
HETATM   15  C           1     -35.611  -1.082 -16.356  0.00  0.00     0.197 C 
HETATM   16  O           1     -36.491  -1.122 -17.243  0.00  0.00    -0.646 OA
HETATM   17  O           1     -34.554  -1.737 -16.496  0.00  0.00    -0.646 OA
ENDBRANCH  14  15
BRANCH  14  18
HETATM   18  C           1     -35.378   1.186 -15.394  0.00  0.00     0.149 C 
BRANCH  18  19
HETATM   19  C           1     -36.481   1.929 -16.106  0.00  0.00     0.175 C 
HETATM   20  O           1     -37.662   1.528 -16.018  0.00  0.00    -0.648 OA
HETATM   21  O           1     -36.215   2.946 -16.782  0.00  0.00    -0.648 OA
ENDBRANCH  18  19
ENDBRANCH  14  18
ENDBRANCH   2  14
TORSDOF 8
ENDMDL
MODEL 3
REMARK VINA RESULT:      -6.0     10.544     12.399
REMARK  8 active torsions:
REMARK  status: ('A' for Active; 'I' for Inactive)
REMARK    1  A    between atoms: C_2  and  C_3 
REMARK    2  A    between atoms: C_2  and  C_14 
REMARK    3  A    between atoms: C_2  and  N_10 
REMARK       I    between atoms: C_3  and  N_4 
REMARK    4  A    between atoms: N_4  and  C_8 
REMARK    5  A    between atoms: C_7  and  C_8 
REMARK    6  A    between atoms: C_8  and  C_12 
REMARK    7  A    between atoms: C_12  and  C_20 
REMARK    8  A    between atoms: C_14  and  C_16 
ROOT
HETATM    1  C           1     -26.243  -6.645 -19.428  0.00  0.00     0.249 C 
HETATM    2  N           1     -26.809  -6.389 -18.207  0.00  0.00    -0.344 N 
HETATM    3  H           1     -26.243  -6.426 -17.369  0.00  0.00     0.163 HD
HETATM    4  O           1     -26.919  -6.600 -20.428  0.00  0.00    -0.271 OA
ENDROOT
BRANCH   1   5
HETATM    5  C           1     -24.775  -6.984 -19.523  0.00  0.00     0.275 C 
BRANCH   5   6
HETATM    6  C           1     -24.576  -8.095 -20.546  0.00  0.00     0.046 C 
BRANCH   6   7
HETATM    7  C           1     -23.391  -7.756 -21.441  0.00  0.00    -0.020 C 
HETATM    8  C           1     -23.824  -7.818 -22.899  0.00  0.00     0.009 C 
HETATM    9  C           1     -22.269  -8.757 -21.201  0.00  0.00     0.009 C 
ENDBRANCH   6   7
ENDBRANCH   5   6
BRANCH   5  10
HETATM   10  N           1     -24.281  -7.444 -18.183  0.00  0.00    -0.066 N 
HETATM   11  H           1     -24.497  -8.459 -18.063  0.00  0.00     0.275 HD
HETATM   12  H           1     -24.756  -6.895 -17.430  0.00  0.00     0.275 HD
HETATM   13  H           1     -23.249  -7.296 -18.124  0.00  0.00     0.275 HD
ENDBRANCH   5  10
ENDBRANCH   1   5
BRANCH   2  14
HETATM   14  C           1     -28.219  -6.063 -18.116  0.00  0.00     0.195 C 
BRANCH  14  15
HETATM   15  C           1     -28.389  -4.782 -17.338  0.00  0.00     0.197 C 
HETATM   16  O           1     -27.482  -4.390 -16.571  0.00  0.00    -0.646 OA
HETATM   17  O           1     -29.436  -4.110 -17.461  0.00  0.00    -0.646 OA
ENDBRANCH  14  15
BRANCH  14  18
HETATM   18  C           1     -28.955  -7.191 -17.405  0.00  0.00     0.149 C 
BRANCH  18  19
HETATM   19  C           1     -30.067  -7.702 -18.287  0.00  0.00     0.175 C 
HETATM   20  O           1     -29.825  -8.559 -19.164  0.00  0.00    -0.648 OA
HETATM   21  O           1     -31.230  -7.268 -18.141  0.00  0.00    -0.648 OA
ENDBRANCH  18  19
ENDBRANCH  14  18
ENDBRANCH   2  14
TORSDOF 8
ENDMDL
MODEL 4
REMARK VINA RESULT:      -5.7     10.205     12.373
REMARK  8 active torsions:
REMARK  status: ('A' for Active; 'I' for Inactive)
REMARK    1  A    between atoms: C_2  and  C_3 
REMARK    2  A    between atoms: C_2  and  C_14 
REMARK    3  A    between atoms: C_2  and  N_10 
REMARK       I    between atoms: C_3  and  N_4 
REMARK    4  A    between atoms: N_4  and  C_8 
REMARK    5  A    between atoms: C_7  and  C_8 
REMARK    6  A    between atoms: C_8  and  C_12 
REMARK    7  A    between atoms: C_12  and  C_20 
REMARK    8  A    between atoms: C_14  and  C_16 
ROOT
HETATM    1  C           1     -27.586  -6.408 -19.110  0.00  0.00     0.249 C 
HETATM    2  N           1     -26.447  -7.080 -18.755  0.00  0.00    -0.344 N 
HETATM    3  H           1     -26.476  -7.767 -18.012  0.00  0.00     0.163 HD
HETATM    4  O           1     -27.551  -5.588 -19.997  0.00  0.00    -0.271 OA
ENDROOT
BRANCH   1   5
HETATM    5  C           1     -28.883  -6.688 -18.392  0.00  0.00     0.275 C 
BRANCH   5   6
HETATM    6  C           1     -28.698  -6.454 -16.899  0.00  0.00     0.046 C 
BRANCH   6   7
HETATM    7  C           1     -29.333  -5.126 -16.509  0.00  0.00    -0.020 C 
HETATM    8  C           1     -30.575  -4.891 -17.358  0.00  0.00     0.009 C 
HETATM    9  C           1     -28.338  -3.998 -16.741  0.00  0.00     0.009 C 
ENDBRANCH   6   7
ENDBRANCH   5   6
BRANCH   5  10
HETATM   10  N           1     -29.287  -8.113 -18.629  0.00  0.00    -0.066 N 
HETATM   11  H           1     -28.473  -8.646 -19.009  0.00  0.00     0.275 HD
HETATM   12  H           1     -30.075  -8.142 -19.316  0.00  0.00     0.275 HD
HETATM   13  H           1     -29.595  -8.541 -17.728  0.00  0.00     0.275 HD
ENDBRANCH   5  10
ENDBRANCH   1   5
BRANCH   2  14
HETATM   14  C           1     -25.200  -6.811 -19.445  0.00  0.00     0.195 C 
BRANCH  14  15
HETATM   15  C           1     -25.006  -7.823 -20.546  0.00  0.00     0.197 C 
HETATM   16  O           1     -25.995  -8.261 -21.175  0.00  0.00    -0.646 OA
HETATM   17  O           1     -23.857  -8.224 -20.832  0.00  0.00    -0.646 OA
ENDBRANCH  14  15
BRANCH  14  18
HETATM   18  C           1     -24.044  -6.906 -18.458  0.00  0.00     0.149 C 
BRANCH  18  19
HETATM   19  C           1     -24.587  -7.023 -17.055  0.00  0.00     0.175 C 
HETATM   20  O           1     -25.133  -6.038 -16.512  0.00  0.00    -0.648 OA
HETATM   21  O           1     -24.492  -8.104 -16.436  0.00  0.00    -0.648 OA
ENDBRANCH  18  19
ENDBRANCH  14  18
ENDBRANCH   2  14
TORSDOF 8
ENDMDL
MODEL 5
REMARK VINA RESULT:      -5.5      2.749      5.064
REMARK  8 active torsions:
REMARK  status: ('A' for Active; 'I' for Inactive)
REMARK    1  A    between atoms: C_2  and  C_3 
REMARK    2  A    between atoms: C_2  and  C_14 
REMARK    3  A    between atoms: C_2  and  N_10 
REMARK       I    between atoms: C_3  and  N_4 
REMARK    4  A    between atoms: N_4  and  C_8 
REMARK    5  A    between atoms: C_7  and  C_8 
REMARK    6  A    between atoms: C_8  and  C_12 
REMARK    7  A    between atoms: C_12  and  C_20 
REMARK    8  A    between atoms: C_14  and  C_16 
ROOT
HETATM    1  C           1     -36.914   0.001 -13.111  0.00  0.00     0.249 C 
HETATM    2  N           1     -36.333   0.009 -11.871  0.00  0.00    -0.344 N 
HETATM    3  H           1     -35.367   0.293 -11.766  0.00  0.00     0.163 HD
HETATM    4  O           1     -38.066  -0.338 -13.235  0.00  0.00    -0.271 OA
ENDROOT
BRANCH   1   5
HETATM    5  C           1     -36.114   0.414 -14.322  0.00  0.00     0.275 C 
BRANCH   5   6
HETATM    6  C           1     -35.366  -0.793 -14.873  0.00  0.00     0.046 C 
BRANCH   6   7
HETATM    7  C           1     -35.602  -0.895 -16.374  0.00  0.00    -0.020 C 
HETATM    8  C           1     -37.099  -0.923 -16.651  0.00  0.00     0.009 C 
HETATM    9  C           1     -34.964  -2.173 -16.903  0.00  0.00     0.009 C 
ENDBRANCH   6   7
ENDBRANCH   5   6
BRANCH   5  10
HETATM   10  N           1     -35.129   1.476 -13.931  0.00  0.00    -0.066 N 
HETATM   11  H           1     -34.274   1.027 -13.532  0.00  0.00     0.275 HD
HETATM   12  H           1     -35.560   2.104 -13.215  0.00  0.00     0.275 HD
HETATM   13  H           1     -34.869   2.036 -14.773  0.00  0.00     0.275 HD
ENDBRANCH   5  10
ENDBRANCH   1   5
BRANCH   2  14
HETATM   14  C           1     -37.102  -0.388 -10.707  0.00  0.00     0.195 C 
BRANCH  14  15
HETATM   15  C           1     -37.115   0.739  -9.705  0.00  0.00     0.197 C 
HETATM   16  O           1     -38.073   1.542  -9.678  0.00  0.00    -0.646 OA
HETATM   17  O           1     -36.168   0.870  -8.898  0.00  0.00    -0.646 OA
ENDBRANCH  14  15
BRANCH  14  18
HETATM   18  C           1     -36.468  -1.621 -10.077  0.00  0.00     0.149 C 
BRANCH  18  19
HETATM   19  C           1     -35.326  -2.098 -10.941  0.00  0.00     0.175 C 
HETATM   20  O           1     -34.166  -1.685 -10.725  0.00  0.00    -0.648 OA
HETATM   21  O           1     -35.539  -2.905 -11.870  0.00  0.00    -0.648 OA
ENDBRANCH  18  19
ENDBRANCH  14  18
ENDBRANCH   2  14
TORSDOF 8
ENDMDL
MODEL 6
REMARK VINA RESULT:      -5.5     25.280     26.669
REMARK  8 active torsions:
REMARK  status: ('A' for Active; 'I' for Inactive)
REMARK    1  A    between atoms: C_2  and  C_3 
REMARK    2  A    between atoms: C_2  and  C_14 
REMARK    3  A    between atoms: C_2  and  N_10 
REMARK       I    between atoms: C_3  and  N_4 
REMARK    4  A    between atoms: N_4  and  C_8 
REMARK    5  A    between atoms: C_7  and  C_8 
REMARK    6  A    between atoms: C_8  and  C_12 
REMARK    7  A    between atoms: C_12  and  C_20 
REMARK    8  A    between atoms: C_14  and  C_16 
ROOT
HETATM    1  C           1     -11.507   6.069 -19.978  0.00  0.00     0.249 C 
HETATM    2  N           1     -11.322   7.265 -20.619  0.00  0.00    -0.344 N 
HETATM    3  H           1     -10.455   7.448 -21.108  0.00  0.00     0.163 HD
HETATM    4  O           1     -12.542   5.850 -19.395  0.00  0.00    -0.271 OA
ENDROOT
BRANCH   1   5
HETATM    5  C           1     -10.417   5.025 -19.998  0.00  0.00     0.275 C 
BRANCH   5   6
HETATM    6  C           1     -11.024   3.652 -19.742  0.00  0.00     0.046 C 
BRANCH   6   7
HETATM    7  C           1     -11.301   2.961 -21.070  0.00  0.00    -0.020 C 
HETATM    8  C           1     -10.751   3.811 -22.207  0.00  0.00     0.009 C 
HETATM    9  C           1     -12.803   2.785 -21.249  0.00  0.00     0.009 C 
ENDBRANCH   6   7
ENDBRANCH   5   6
BRANCH   5  10
HETATM   10  N           1      -9.410   5.334 -18.931  0.00  0.00    -0.066 N 
HETATM   11  H           1      -8.781   6.101 -19.259  0.00  0.00     0.275 HD
HETATM   12  H           1      -8.842   4.479 -18.730  0.00  0.00     0.275 HD
HETATM   13  H           1      -9.905   5.635 -18.062  0.00  0.00     0.275 HD
ENDBRANCH   5  10
ENDBRANCH   1   5
BRANCH   2  14
HETATM   14  C           1     -12.369   8.268 -20.600  0.00  0.00     0.195 C 
BRANCH  14  15
HETATM   15  C           1     -12.772   8.602 -22.015  0.00  0.00     0.197 C 
HETATM   16  O           1     -13.739   8.013 -22.546  0.00  0.00    -0.646 OA
HETATM   17  O           1     -12.139   9.469 -22.657  0.00  0.00    -0.646 OA
ENDBRANCH  14  15
BRANCH  14  18
HETATM   18  C           1     -11.856   9.523 -19.907  0.00  0.00     0.149 C 
BRANCH  18  19
HETATM   19  C           1     -10.412   9.328 -19.515  0.00  0.00     0.175 C 
HETATM   20  O           1     -10.128   8.851 -18.395  0.00  0.00    -0.648 OA
HETATM   21  O           1      -9.501   9.643 -20.310  0.00  0.00    -0.648 OA
ENDBRANCH  18  19
ENDBRANCH  14  18
ENDBRANCH   2  14
TORSDOF 8
ENDMDL
MODEL 7
REMARK VINA RESULT:      -5.3     14.508     17.029
REMARK  8 active torsions:
REMARK  status: ('A' for Active; 'I' for Inactive)
REMARK    1  A    between atoms: C_2  and  C_3 
REMARK    2  A    between atoms: C_2  and  C_14 
REMARK    3  A    between atoms: C_2  and  N_10 
REMARK       I    between atoms: C_3  and  N_4 
REMARK    4  A    between atoms: N_4  and  C_8 
REMARK    5  A    between atoms: C_7  and  C_8 
REMARK    6  A    between atoms: C_8  and  C_12 
REMARK    7  A    between atoms: C_12  and  C_20 
REMARK    8  A    between atoms: C_14  and  C_16 
ROOT
HETATM    1  C           1     -21.724  -5.822  -5.491  0.00  0.00     0.249 C 
HETATM    2  N           1     -20.931  -6.580  -4.670  0.00  0.00    -0.344 N 
HETATM    3  H           1     -19.924  -6.487  -4.713  0.00  0.00     0.163 HD
HETATM    4  O           1     -22.925  -5.932  -5.439  0.00  0.00    -0.271 OA
ENDROOT
BRANCH   1   5
HETATM    5  C           1     -21.096  -4.851  -6.460  0.00  0.00     0.275 C 
BRANCH   5   6
HETATM    6  C           1     -21.385  -5.298  -7.887  0.00  0.00     0.046 C 
BRANCH   6   7
HETATM    7  C           1     -21.402  -4.085  -8.807  0.00  0.00    -0.020 C 
HETATM    8  C           1     -22.823  -3.841  -9.296  0.00  0.00     0.009 C 
HETATM    9  C           1     -20.491  -4.339 -10.000  0.00  0.00     0.009 C 
ENDBRANCH   6   7
ENDBRANCH   5   6
BRANCH   5  10
HETATM   10  N           1     -19.613  -4.813  -6.239  0.00  0.00    -0.066 N 
HETATM   11  H           1     -19.373  -4.001  -5.627  0.00  0.00     0.275 HD
HETATM   12  H           1     -19.126  -4.711  -7.159  0.00  0.00     0.275 HD
HETATM   13  H           1     -19.307  -5.699  -5.779  0.00  0.00     0.275 HD
ENDBRANCH   5  10
ENDBRANCH   1   5
BRANCH   2  14
HETATM   14  C           1     -21.534  -7.513  -3.739  0.00  0.00     0.195 C 
BRANCH  14  15
HETATM   15  C           1     -21.533  -6.914  -2.355  0.00  0.00     0.197 C 
HETATM   16  O           1     -22.208  -5.888  -2.117  0.00  0.00    -0.646 OA
HETATM   17  O           1     -20.859  -7.443  -1.444  0.00  0.00    -0.646 OA
ENDBRANCH  14  15
BRANCH  14  18
HETATM   18  C           1     -20.736  -8.810  -3.732  0.00  0.00     0.149 C 
BRANCH  18  19
HETATM   19  C           1     -20.294  -9.137  -5.137  0.00  0.00     0.175 C 
HETATM   20  O           1     -19.109  -8.936  -5.482  0.00  0.00    -0.648 OA
HETATM   21  O           1     -21.111  -9.609  -5.955  0.00  0.00    -0.648 OA
ENDBRANCH  18  19
ENDBRANCH  14  18
ENDBRANCH   2  14
TORSDOF 8
ENDMDL
MODEL 8
REMARK VINA RESULT:      -5.3     14.540     16.611
REMARK  8 active torsions:
REMARK  status: ('A' for Active; 'I' for Inactive)
REMARK    1  A    between atoms: C_2  and  C_3 
REMARK    2  A    between atoms: C_2  and  C_14 
REMARK    3  A    between atoms: C_2  and  N_10 
REMARK       I    between atoms: C_3  and  N_4 
REMARK    4  A    between atoms: N_4  and  C_8 
REMARK    5  A    between atoms: C_7  and  C_8 
REMARK    6  A    between atoms: C_8  and  C_12 
REMARK    7  A    between atoms: C_12  and  C_20 
REMARK    8  A    between atoms: C_14  and  C_16 
ROOT
HETATM    1  C           1     -21.010  -5.320  -6.151  0.00  0.00     0.249 C 
HETATM    2  N           1     -21.491  -6.499  -5.647  0.00  0.00    -0.344 N 
HETATM    3  H           1     -22.315  -6.923  -6.053  0.00  0.00     0.163 HD
HETATM    4  O           1     -20.026  -4.814  -5.666  0.00  0.00    -0.271 OA
ENDROOT
BRANCH   1   5
HETATM    5  C           1     -21.711  -4.652  -7.309  0.00  0.00     0.275 C 
BRANCH   5   6
HETATM    6  C           1     -21.000  -5.010  -8.607  0.00  0.00     0.046 C 
BRANCH   6   7
HETATM    7  C           1     -21.517  -4.123  -9.732  0.00  0.00    -0.020 C 
HETATM    8  C           1     -22.855  -4.657 -10.223  0.00  0.00     0.009 C 
HETATM    9  C           1     -20.518  -4.123 -10.881  0.00  0.00     0.009 C 
ENDBRANCH   6   7
ENDBRANCH   5   6
BRANCH   5  10
HETATM   10  N           1     -21.684  -3.165  -7.118  0.00  0.00    -0.066 N 
HETATM   11  H           1     -21.818  -2.694  -8.041  0.00  0.00     0.275 HD
HETATM   12  H           1     -20.762  -2.882  -6.713  0.00  0.00     0.275 HD
HETATM   13  H           1     -22.450  -2.884  -6.467  0.00  0.00     0.275 HD
ENDBRANCH   5  10
ENDBRANCH   1   5
BRANCH   2  14
HETATM   14  C           1     -20.819  -7.141  -4.534  0.00  0.00     0.195 C 
BRANCH  14  15
HETATM   15  C           1     -20.129  -8.392  -5.018  0.00  0.00     0.197 C 
HETATM   16  O           1     -19.249  -8.319  -5.904  0.00  0.00    -0.646 OA
HETATM   17  O           1     -20.435  -9.503  -4.532  0.00  0.00    -0.646 OA
ENDBRANCH  14  15
BRANCH  14  18
HETATM   18  C           1     -21.840  -7.504  -3.465  0.00  0.00     0.149 C 
BRANCH  18  19
HETATM   19  C           1     -21.925  -6.391  -2.450  0.00  0.00     0.175 C 
HETATM   20  O           1     -22.597  -6.547  -1.407  0.00  0.00    -0.648 OA
HETATM   21  O           1     -21.323  -5.315  -2.651  0.00  0.00    -0.648 OA
ENDBRANCH  18  19
ENDBRANCH  14  18
ENDBRANCH   2  14
TORSDOF 8
ENDMDL
MODEL 9
REMARK VINA RESULT:      -5.2     15.795     17.743
REMARK  8 active torsions:
REMARK  status: ('A' for Active; 'I' for Inactive)
REMARK    1  A    between atoms: C_2  and  C_3 
REMARK    2  A    between atoms: C_2  and  C_14 
REMARK    3  A    between atoms: C_2  and  N_10 
REMARK       I    between atoms: C_3  and  N_4 
REMARK    4  A    between atoms: N_4  and  C_8 
REMARK    5  A    between atoms: C_7  and  C_8 
REMARK    6  A    between atoms: C_8  and  C_12 
REMARK    7  A    between atoms: C_12  and  C_20 
REMARK    8  A    between atoms: C_14  and  C_16 
ROOT
HETATM    1  C           1     -20.896  -7.441  -4.447  0.00  0.00     0.249 C 
HETATM    2  N           1     -21.574  -7.725  -3.291  0.00  0.00    -0.344 N 
HETATM    3  H           1     -22.491  -7.327  -3.132  0.00  0.00     0.163 HD
HETATM    4  O           1     -19.803  -7.917  -4.637  0.00  0.00    -0.271 OA
ENDROOT
BRANCH   1   5
HETATM    5  C           1     -21.514  -6.531  -5.480  0.00  0.00     0.275 C 
BRANCH   5   6
HETATM    6  C           1     -20.660  -5.279  -5.631  0.00  0.00     0.046 C 
BRANCH   6   7
HETATM    7  C           1     -20.568  -4.899  -7.102  0.00  0.00    -0.020 C 
HETATM    8  C           1     -19.130  -4.533  -7.442  0.00  0.00     0.009 C 
HETATM    9  C           1     -21.475  -3.707  -7.378  0.00  0.00     0.009 C 
ENDBRANCH   6   7
ENDBRANCH   5   6
BRANCH   5  10
HETATM   10  N           1     -22.896  -6.144  -5.043  0.00  0.00    -0.066 N 
HETATM   11  H           1     -23.103  -6.583  -4.118  0.00  0.00     0.275 HD
HETATM   12  H           1     -23.591  -6.476  -5.750  0.00  0.00     0.275 HD
HETATM   13  H           1     -22.955  -5.105  -4.958  0.00  0.00     0.275 HD
ENDBRANCH   5  10
ENDBRANCH   1   5
BRANCH   2  14
HETATM   14  C           1     -20.981  -8.599  -2.298  0.00  0.00     0.195 C 
BRANCH  14  15
HETATM   15  C           1     -21.762  -9.888  -2.231  0.00  0.00     0.197 C 
HETATM   16  O           1     -21.791 -10.548  -1.169  0.00  0.00    -0.646 OA
HETATM   17  O           1     -22.383 -10.296  -3.237  0.00  0.00    -0.646 OA
ENDBRANCH  14  15
BRANCH  14  18
HETATM   18  C           1     -21.012  -7.915  -0.938  0.00  0.00     0.149 C 
BRANCH  18  19
HETATM   19  C           1     -22.288  -7.122  -0.801  0.00  0.00     0.175 C 
HETATM   20  O           1     -22.418  -6.038  -1.409  0.00  0.00    -0.648 OA
HETATM   21  O           1     -23.215  -7.549  -0.079  0.00  0.00    -0.648 OA
ENDBRANCH  18  19
ENDBRANCH  14  18
ENDBRANCH   2  14
TORSDOF 8
ENDMDL
