MODEL 1
REMARK VINA RESULT:      -6.4      0.000      0.000
REMARK  11 active torsions:
REMARK  status: ('A' for Active; 'I' for Inactive)
REMARK    1  A    between atoms: C_2  and  C_4 
REMARK    2  A    between atoms: C_2  and  C_25 
REMARK    3  A    between atoms: N_3  and  C_11 
REMARK    4  A    between atoms: C_4  and  C_5 
REMARK    5  A    between atoms: C_5  and  C_11 
REMARK    6  A    between atoms: N_6  and  C_25 
REMARK       I    between atoms: N_6  and  C_9 
REMARK    7  A    between atoms: C_9  and  C_16 
REMARK    8  A    between atoms: O_13  and  C_23 
REMARK    9  A    between atoms: C_16  and  C_23 
REMARK   10  A    between atoms: C_16  and  N_18 
REMARK   11  A    between atoms: C_17  and  C_25 
ROOT
HETATM    1  N           1     -34.862  -1.462 -13.212  0.00  0.00    -0.345 N 
HETATM    2  H           1     -33.979  -1.298 -13.678  0.00  0.00     0.163 HD
HETATM    3  C           1     -35.972  -0.751 -13.579  0.00  0.00     0.251 C 
HETATM    4  O           1     -37.027  -0.947 -13.023  0.00  0.00    -0.271 OA
ENDROOT
BRANCH   1   5
HETATM    5  C           1     -34.952  -2.451 -12.155  0.00  0.00     0.185 C 
BRANCH   5   6
HETATM    6  C           1     -34.063  -3.640 -12.497  0.00  0.00     0.036 C 
BRANCH   6   7
HETATM    7  C           1     -34.736  -4.927 -12.037  0.00  0.00     0.004 C 
BRANCH   7   8
HETATM    8  C           1     -33.799  -5.688 -11.109  0.00  0.00     0.027 C 
BRANCH   8   9
HETATM    9  C           1     -34.612  -6.600 -10.202  0.00  0.00     0.229 C 
BRANCH   9  10
HETATM   10  N           1     -34.772  -7.941 -10.854  0.00  0.00    -0.079 N 
HETATM   11  H           1     -34.130  -8.629 -10.398  0.00  0.00     0.274 HD
HETATM   12  H           1     -34.537  -7.866 -11.869  0.00  0.00     0.274 HD
HETATM   13  H           1     -35.760  -8.264 -10.749  0.00  0.00     0.274 HD
ENDBRANCH   9  10
ENDBRANCH   8   9
ENDBRANCH   7   8
ENDBRANCH   6   7
ENDBRANCH   5   6
BRANCH   5  14
HETATM   14  C           1     -34.495  -1.839 -10.854  0.00  0.00     0.196 C 
HETATM   15  O           1     -33.286  -1.877 -10.535  0.00  0.00    -0.646 OA
HETATM   16  O           1     -35.325  -1.294 -10.094  0.00  0.00    -0.646 OA
ENDBRANCH   5  14
ENDBRANCH   1   5
BRANCH   3  17
HETATM   17  C           1     -35.879   0.278 -14.679  0.00  0.00     0.302 C 
BRANCH  17  18
HETATM   18  C           1     -36.503  -0.280 -15.952  0.00  0.00     0.153 C 
HETATM   19  C           1     -35.545  -1.276 -16.591  0.00  0.00     0.042 C 
BRANCH  18  20
HETATM   20  O           1     -37.707  -0.926 -15.638  0.00  0.00    -0.393 OA
HETATM   21  H           1     -38.052  -1.270 -16.444  0.00  0.00     0.210 HD
ENDBRANCH  18  20
ENDBRANCH  17  18
BRANCH  17  22
HETATM   22  N           1     -34.439   0.609 -14.931  0.00  0.00    -0.064 N 
HETATM   23  H           1     -34.351   1.102 -15.849  0.00  0.00     0.275 HD
HETATM   24  H           1     -34.085   1.229 -14.169  0.00  0.00     0.275 HD
HETATM   25  H           1     -33.878  -0.272 -14.952  0.00  0.00     0.275 HD
ENDBRANCH  17  22
ENDBRANCH   3  17
TORSDOF 11
ENDMDL
MODEL 2
REMARK VINA RESULT:      -6.4     10.800     11.765
REMARK  11 active torsions:
REMARK  status: ('A' for Active; 'I' for Inactive)
REMARK    1  A    between atoms: C_2  and  C_4 
REMARK    2  A    between atoms: C_2  and  C_25 
REMARK    3  A    between atoms: N_3  and  C_11 
REMARK    4  A    between atoms: C_4  and  C_5 
REMARK    5  A    between atoms: C_5  and  C_11 
REMARK    6  A    between atoms: N_6  and  C_25 
REMARK       I    between atoms: N_6  and  C_9 
REMARK    7  A    between atoms: C_9  and  C_16 
REMARK    8  A    between atoms: O_13  and  C_23 
REMARK    9  A    between atoms: C_16  and  C_23 
REMARK   10  A    between atoms: C_16  and  N_18 
REMARK   11  A    between atoms: C_17  and  C_25 
ROOT
HETATM    1  N           1     -26.424  -6.648 -18.243  0.00  0.00    -0.345 N 
HETATM    2  H           1     -27.294  -6.950 -18.664  0.00  0.00     0.163 HD
HETATM    3  C           1     -25.237  -6.874 -18.885  0.00  0.00     0.251 C 
HETATM    4  O           1     -24.199  -6.514 -18.382  0.00  0.00    -0.271 OA
ENDROOT
BRANCH   1   5
HETATM    5  C           1     -26.436  -5.975 -16.959  0.00  0.00     0.185 C 
BRANCH   5   6
HETATM    6  C           1     -27.701  -5.134 -16.839  0.00  0.00     0.036 C 
BRANCH   6   7
HETATM    7  C           1     -28.585  -5.369 -18.056  0.00  0.00     0.004 C 
BRANCH   7   8
HETATM    8  C           1     -29.947  -5.879 -17.605  0.00  0.00     0.027 C 
BRANCH   8   9
HETATM    9  C           1     -30.199  -7.255 -18.205  0.00  0.00     0.229 C 
BRANCH   9  10
HETATM   10  N           1     -29.456  -8.290 -17.414  0.00  0.00    -0.079 N 
HETATM   11  H           1     -29.103  -7.864 -16.527  0.00  0.00     0.274 HD
HETATM   12  H           1     -28.648  -8.644 -17.975  0.00  0.00     0.274 HD
HETATM   13  H           1     -30.097  -9.084 -17.190  0.00  0.00     0.274 HD
ENDBRANCH   9  10
ENDBRANCH   8   9
ENDBRANCH   7   8
ENDBRANCH   6   7
ENDBRANCH   5   6
BRANCH   5  14
HETATM   14  C           1     -26.408  -7.001 -15.853  0.00  0.00     0.196 C 
HETATM   15  O           1     -27.479  -7.434 -15.374  0.00  0.00    -0.646 OA
HETATM   16  O           1     -25.314  -7.419 -15.416  0.00  0.00    -0.646 OA
ENDBRANCH   5  14
ENDBRANCH   1   5
BRANCH   3  17
HETATM   17  C           1     -25.225  -7.575 -20.222  0.00  0.00     0.302 C 
BRANCH  17  18
HETATM   18  C           1     -24.511  -6.702 -21.247  0.00  0.00     0.153 C 
HETATM   19  C           1     -24.210  -7.526 -22.492  0.00  0.00     0.042 C 
BRANCH  18  20
HETATM   20  O           1     -25.332  -5.618 -21.591  0.00  0.00    -0.393 OA
HETATM   21  H           1     -26.184  -5.795 -21.230  0.00  0.00     0.210 HD
ENDBRANCH  18  20
ENDBRANCH  17  18
BRANCH  17  22
HETATM   22  N           1     -26.634  -7.820 -20.670  0.00  0.00    -0.064 N 
HETATM   23  H           1     -27.297  -7.489 -19.932  0.00  0.00     0.275 HD
HETATM   24  H           1     -26.814  -7.298 -21.557  0.00  0.00     0.275 HD
HETATM   25  H           1     -26.774  -8.842 -20.833  0.00  0.00     0.275 HD
ENDBRANCH  17  22
ENDBRANCH   3  17
TORSDOF 11
ENDMDL
MODEL 3
REMARK VINA RESULT:      -6.2      1.657      2.110
REMARK  11 active torsions:
REMARK  status: ('A' for Active; 'I' for Inactive)
REMARK    1  A    between atoms: C_2  and  C_4 
REMARK    2  A    between atoms: C_2  and  C_25 
REMARK    3  A    between atoms: N_3  and  C_11 
REMARK    4  A    between atoms: C_4  and  C_5 
REMARK    5  A    between atoms: C_5  and  C_11 
REMARK    6  A    between atoms: N_6  and  C_25 
REMARK       I    between atoms: N_6  and  C_9 
REMARK    7  A    between atoms: C_9  and  C_16 
REMARK    8  A    between atoms: O_13  and  C_23 
REMARK    9  A    between atoms: C_16  and  C_23 
REMARK   10  A    between atoms: C_16  and  N_18 
REMARK   11  A    between atoms: C_17  and  C_25 
ROOT
HETATM    1  N           1     -35.458  -0.819 -12.470  0.00  0.00    -0.345 N 
HETATM    2  H           1     -35.701   0.152 -12.319  0.00  0.00     0.163 HD
HETATM    3  C           1     -35.277  -1.289 -13.742  0.00  0.00     0.251 C 
HETATM    4  O           1     -34.988  -2.449 -13.922  0.00  0.00    -0.271 OA
ENDROOT
BRANCH   1   5
HETATM    5  C           1     -35.303  -1.712 -11.338  0.00  0.00     0.185 C 
BRANCH   5   6
HETATM    6  C           1     -33.867  -1.646 -10.834  0.00  0.00     0.036 C 
BRANCH   6   7
HETATM    7  C           1     -33.161  -2.962 -11.136  0.00  0.00     0.004 C 
BRANCH   7   8
HETATM    8  C           1     -33.961  -4.116 -10.546  0.00  0.00     0.027 C 
BRANCH   8   9
HETATM    9  C           1     -33.796  -5.349 -11.422  0.00  0.00     0.229 C 
BRANCH   9  10
HETATM   10  N           1     -34.640  -5.206 -12.654  0.00  0.00    -0.079 N 
HETATM   11  H           1     -34.814  -4.192 -12.840  0.00  0.00     0.274 HD
HETATM   12  H           1     -35.552  -5.695 -12.510  0.00  0.00     0.274 HD
HETATM   13  H           1     -34.143  -5.630 -13.468  0.00  0.00     0.274 HD
ENDBRANCH   9  10
ENDBRANCH   8   9
ENDBRANCH   7   8
ENDBRANCH   6   7
ENDBRANCH   5   6
BRANCH   5  14
HETATM   14  C           1     -36.242  -1.293 -10.234  0.00  0.00     0.196 C 
HETATM   15  O           1     -37.469  -1.511 -10.341  0.00  0.00    -0.646 OA
HETATM   16  O           1     -35.794  -0.729  -9.212  0.00  0.00    -0.646 OA
ENDBRANCH   5  14
ENDBRANCH   1   5
BRANCH   3  17
HETATM   17  C           1     -35.439  -0.360 -14.920  0.00  0.00     0.302 C 
BRANCH  17  18
HETATM   18  C           1     -36.921  -0.129 -15.186  0.00  0.00     0.153 C 
HETATM   19  C           1     -37.297  -0.746 -16.527  0.00  0.00     0.042 C 
BRANCH  18  20
HETATM   20  O           1     -37.678  -0.728 -14.168  0.00  0.00    -0.393 OA
HETATM   21  H           1     -38.211  -0.051 -13.788  0.00  0.00     0.210 HD
ENDBRANCH  18  20
ENDBRANCH  17  18
BRANCH  17  22
HETATM   22  N           1     -34.804  -0.975 -16.131  0.00  0.00    -0.064 N 
HETATM   23  H           1     -34.447  -1.928 -15.892  0.00  0.00     0.275 HD
HETATM   24  H           1     -35.512  -1.050 -16.896  0.00  0.00     0.275 HD
HETATM   25  H           1     -34.010  -0.375 -16.450  0.00  0.00     0.275 HD
ENDBRANCH  17  22
ENDBRANCH   3  17
TORSDOF 11
ENDMDL
MODEL 4
REMARK VINA RESULT:      -6.1     10.293     11.429
REMARK  11 active torsions:
REMARK  status: ('A' for Active; 'I' for Inactive)
REMARK    1  A    between atoms: C_2  and  C_4 
REMARK    2  A    between atoms: C_2  and  C_25 
REMARK    3  A    between atoms: N_3  and  C_11 
REMARK    4  A    between atoms: C_4  and  C_5 
REMARK    5  A    between atoms: C_5  and  C_11 
REMARK    6  A    between atoms: N_6  and  C_25 
REMARK       I    between atoms: N_6  and  C_9 
REMARK    7  A    between atoms: C_9  and  C_16 
REMARK    8  A    between atoms: O_13  and  C_23 
REMARK    9  A    between atoms: C_16  and  C_23 
REMARK   10  A    between atoms: C_16  and  N_18 
REMARK   11  A    between atoms: C_17  and  C_25 
ROOT
HETATM    1  N           1     -27.471  -6.758 -19.323  0.00  0.00    -0.345 N 
HETATM    2  H           1     -27.669  -7.044 -20.274  0.00  0.00     0.163 HD
HETATM    3  C           1     -26.176  -6.600 -18.911  0.00  0.00     0.251 C 
HETATM    4  O           1     -25.940  -6.259 -17.776  0.00  0.00    -0.271 OA
ENDROOT
BRANCH   1   5
HETATM    5  C           1     -28.561  -6.516 -18.398  0.00  0.00     0.185 C 
BRANCH   5   6
HETATM    6  C           1     -29.242  -5.200 -18.749  0.00  0.00     0.036 C 
BRANCH   6   7
HETATM    7  C           1     -29.477  -4.393 -17.479  0.00  0.00     0.004 C 
BRANCH   7   8
HETATM    8  C           1     -30.799  -3.646 -17.588  0.00  0.00     0.027 C 
BRANCH   8   9
HETATM    9  C           1     -31.895  -4.449 -16.901  0.00  0.00     0.229 C 
BRANCH   9  10
HETATM   10  N           1     -33.196  -3.709 -17.002  0.00  0.00    -0.079 N 
HETATM   11  H           1     -33.964  -4.384 -17.219  0.00  0.00     0.274 HD
HETATM   12  H           1     -33.134  -2.996 -17.763  0.00  0.00     0.274 HD
HETATM   13  H           1     -33.396  -3.233 -16.094  0.00  0.00     0.274 HD
ENDBRANCH   9  10
ENDBRANCH   8   9
ENDBRANCH   7   8
ENDBRANCH   6   7
ENDBRANCH   5   6
BRANCH   5  14
HETATM   14  C           1     -29.561  -7.641 -18.493  0.00  0.00     0.196 C 
HETATM   15  O           1     -29.512  -8.442 -19.452  0.00  0.00    -0.646 OA
HETATM   16  O           1     -30.439  -7.774 -17.613  0.00  0.00    -0.646 OA
ENDBRANCH   5  14
ENDBRANCH   1   5
BRANCH   3  17
HETATM   17  C           1     -25.042  -6.853 -19.874  0.00  0.00     0.302 C 
BRANCH  17  18
HETATM   18  C           1     -25.598  -7.394 -21.185  0.00  0.00     0.153 C 
HETATM   19  C           1     -24.465  -7.550 -22.190  0.00  0.00     0.042 C 
BRANCH  18  20
HETATM   20  O           1     -26.196  -8.643 -20.958  0.00  0.00    -0.393 OA
HETATM   21  H           1     -26.034  -9.167 -21.723  0.00  0.00     0.210 HD
ENDBRANCH  18  20
ENDBRANCH  17  18
BRANCH  17  22
HETATM   22  N           1     -24.097  -7.854 -19.281  0.00  0.00    -0.064 N 
HETATM   23  H           1     -24.392  -8.818 -19.556  0.00  0.00     0.275 HD
HETATM   24  H           1     -23.130  -7.673 -19.635  0.00  0.00     0.275 HD
HETATM   25  H           1     -24.107  -7.768 -18.240  0.00  0.00     0.275 HD
ENDBRANCH  17  22
ENDBRANCH   3  17
TORSDOF 11
ENDMDL
MODEL 5
REMARK VINA RESULT:      -5.8     10.387     11.259
REMARK  11 active torsions:
REMARK  status: ('A' for Active; 'I' for Inactive)
REMARK    1  A    between atoms: C_2  and  C_4 
REMARK    2  A    between atoms: C_2  and  C_25 
REMARK    3  A    between atoms: N_3  and  C_11 
REMARK    4  A    between atoms: C_4  and  C_5 
REMARK    5  A    between atoms: C_5  and  C_11 
REMARK    6  A    between atoms: N_6  and  C_25 
REMARK       I    between atoms: N_6  and  C_9 
REMARK    7  A    between atoms: C_9  and  C_16 
REMARK    8  A    between atoms: O_13  and  C_23 
REMARK    9  A    between atoms: C_16  and  C_23 
REMARK   10  A    between atoms: C_16  and  N_18 
REMARK   11  A    between atoms: C_17  and  C_25 
ROOT
HETATM    1  N           1     -26.731  -6.394 -18.194  0.00  0.00    -0.345 N 
HETATM    2  H           1     -26.053  -6.569 -17.462  0.00  0.00     0.163 HD
HETATM    3  C           1     -26.351  -6.456 -19.507  0.00  0.00     0.251 C 
HETATM    4  O           1     -27.160  -6.247 -20.381  0.00  0.00    -0.271 OA
ENDROOT
BRANCH   1   5
HETATM    5  C           1     -28.104  -6.078 -17.851  0.00  0.00     0.185 C 
BRANCH   5   6
HETATM    6  C           1     -28.569  -6.995 -16.728  0.00  0.00     0.036 C 
BRANCH   6   7
HETATM    7  C           1     -29.656  -7.926 -17.249  0.00  0.00     0.004 C 
BRANCH   7   8
HETATM    8  C           1     -30.608  -7.146 -18.145  0.00  0.00     0.027 C 
BRANCH   8   9
HETATM    9  C           1     -31.839  -6.740 -17.348  0.00  0.00     0.229 C 
BRANCH   9  10
HETATM   10  N           1     -31.674  -5.334 -16.852  0.00  0.00    -0.079 N 
HETATM   11  H           1     -32.474  -4.750 -17.185  0.00  0.00     0.274 HD
HETATM   12  H           1     -30.778  -4.938 -17.218  0.00  0.00     0.274 HD
HETATM   13  H           1     -31.652  -5.334 -15.807  0.00  0.00     0.274 HD
ENDBRANCH   9  10
ENDBRANCH   8   9
ENDBRANCH   7   8
ENDBRANCH   6   7
ENDBRANCH   5   6
BRANCH   5  14
HETATM   14  C           1     -28.190  -4.642 -17.396  0.00  0.00     0.196 C 
HETATM   15  O           1     -27.381  -4.204 -16.549  0.00  0.00    -0.646 OA
HETATM   16  O           1     -29.070  -3.889 -17.868  0.00  0.00    -0.646 OA
ENDBRANCH   5  14
ENDBRANCH   1   5
BRANCH   3  17
HETATM   17  C           1     -24.922  -6.785 -19.865  0.00  0.00     0.302 C 
BRANCH  17  18
HETATM   18  C           1     -24.895  -7.601 -21.151  0.00  0.00     0.153 C 
HETATM   19  C           1     -23.536  -8.275 -21.294  0.00  0.00     0.042 C 
BRANCH  18  20
HETATM   20  O           1     -25.899  -8.579 -21.106  0.00  0.00    -0.393 OA
HETATM   21  H           1     -26.724  -8.127 -21.144  0.00  0.00     0.210 HD
ENDBRANCH  18  20
ENDBRANCH  17  18
BRANCH  17  22
HETATM   22  N           1     -24.301  -7.580 -18.756  0.00  0.00    -0.064 N 
HETATM   23  H           1     -23.859  -8.441 -19.149  0.00  0.00     0.275 HD
HETATM   24  H           1     -23.571  -7.002 -18.280  0.00  0.00     0.275 HD
HETATM   25  H           1     -25.037  -7.848 -18.065  0.00  0.00     0.275 HD
ENDBRANCH  17  22
ENDBRANCH   3  17
TORSDOF 11
ENDMDL
MODEL 6
REMARK VINA RESULT:      -5.5     14.735     17.805
REMARK  11 active torsions:
REMARK  status: ('A' for Active; 'I' for Inactive)
REMARK    1  A    between atoms: C_2  and  C_4 
REMARK    2  A    between atoms: C_2  and  C_25 
REMARK    3  A    between atoms: N_3  and  C_11 
REMARK    4  A    between atoms: C_4  and  C_5 
REMARK    5  A    between atoms: C_5  and  C_11 
REMARK    6  A    between atoms: N_6  and  C_25 
REMARK       I    between atoms: N_6  and  C_9 
REMARK    7  A    between atoms: C_9  and  C_16 
REMARK    8  A    between atoms: O_13  and  C_23 
REMARK    9  A    between atoms: C_16  and  C_23 
REMARK   10  A    between atoms: C_16  and  N_18 
REMARK   11  A    between atoms: C_17  and  C_25 
ROOT
HETATM    1  N           1     -20.722  -8.139  -5.724  0.00  0.00    -0.345 N 
HETATM    2  H           1     -21.321  -8.490  -6.462  0.00  0.00     0.163 HD
HETATM    3  C           1     -19.976  -9.009  -4.977  0.00  0.00     0.251 C 
HETATM    4  O           1     -19.261  -8.590  -4.096  0.00  0.00    -0.271 OA
ENDROOT
BRANCH   1   5
HETATM    5  C           1     -20.656  -6.715  -5.460  0.00  0.00     0.185 C 
BRANCH   5   6
HETATM    6  C           1     -20.651  -5.954  -6.780  0.00  0.00     0.036 C 
BRANCH   6   7
HETATM    7  C           1     -20.259  -4.504  -6.530  0.00  0.00     0.004 C 
BRANCH   7   8
HETATM    8  C           1     -21.302  -3.582  -7.148  0.00  0.00     0.027 C 
BRANCH   8   9
HETATM    9  C           1     -22.243  -4.394  -8.026  0.00  0.00     0.229 C 
BRANCH   9  10
HETATM   10  N           1     -23.653  -4.216  -7.547  0.00  0.00    -0.079 N 
HETATM   11  H           1     -23.750  -3.281  -7.088  0.00  0.00     0.274 HD
HETATM   12  H           1     -23.885  -4.966  -6.858  0.00  0.00     0.274 HD
HETATM   13  H           1     -24.307  -4.276  -8.359  0.00  0.00     0.274 HD
ENDBRANCH   9  10
ENDBRANCH   8   9
ENDBRANCH   7   8
ENDBRANCH   6   7
ENDBRANCH   5   6
BRANCH   5  14
HETATM   14  C           1     -21.854  -6.298  -4.644  0.00  0.00     0.196 C 
HETATM   15  O           1     -22.982  -6.228  -5.179  0.00  0.00    -0.646 OA
HETATM   16  O           1     -21.720  -6.024  -3.432  0.00  0.00    -0.646 OA
ENDBRANCH   5  14
ENDBRANCH   1   5
BRANCH   3  17
HETATM   17  C           1     -20.045 -10.491  -5.251  0.00  0.00     0.302 C 
BRANCH  17  18
HETATM   18  C           1     -18.730 -10.957  -5.864  0.00  0.00     0.153 C 
HETATM   19  C           1     -19.012 -12.002  -6.935  0.00  0.00     0.042 C 
BRANCH  18  20
HETATM   20  O           1     -18.070  -9.862  -6.442  0.00  0.00    -0.393 OA
HETATM   21  H           1     -17.172  -9.906  -6.163  0.00  0.00     0.210 HD
ENDBRANCH  18  20
ENDBRANCH  17  18
BRANCH  17  22
HETATM   22  N           1     -21.167 -10.770  -6.205  0.00  0.00    -0.064 N 
HETATM   23  H           1     -20.796 -11.271  -7.044  0.00  0.00     0.275 HD
HETATM   24  H           1     -21.885 -11.366  -5.735  0.00  0.00     0.275 HD
HETATM   25  H           1     -21.604  -9.868  -6.502  0.00  0.00     0.275 HD
ENDBRANCH  17  22
ENDBRANCH   3  17
TORSDOF 11
ENDMDL
MODEL 7
REMARK VINA RESULT:      -5.4     13.232     15.098
REMARK  11 active torsions:
REMARK  status: ('A' for Active; 'I' for Inactive)
REMARK    1  A    between atoms: C_2  and  C_4 
REMARK    2  A    between atoms: C_2  and  C_25 
REMARK    3  A    between atoms: N_3  and  C_11 
REMARK    4  A    between atoms: C_4  and  C_5 
REMARK    5  A    between atoms: C_5  and  C_11 
REMARK    6  A    between atoms: N_6  and  C_25 
REMARK       I    between atoms: N_6  and  C_9 
REMARK    7  A    between atoms: C_9  and  C_16 
REMARK    8  A    between atoms: O_13  and  C_23 
REMARK    9  A    between atoms: C_16  and  C_23 
REMARK   10  A    between atoms: C_16  and  N_18 
REMARK   11  A    between atoms: C_17  and  C_25 
ROOT
HETATM    1  N           1     -22.311  -5.362  -7.259  0.00  0.00    -0.345 N 
HETATM    2  H           1     -22.808  -6.225  -7.439  0.00  0.00     0.163 HD
HETATM    3  C           1     -22.531  -4.267  -8.050  0.00  0.00     0.251 C 
HETATM    4  O           1     -21.937  -3.236  -7.835  0.00  0.00    -0.271 OA
ENDROOT
BRANCH   1   5
HETATM    5  C           1     -21.364  -5.286  -6.163  0.00  0.00     0.185 C 
BRANCH   5   6
HETATM    6  C           1     -21.752  -6.292  -5.088  0.00  0.00     0.036 C 
BRANCH   6   7
HETATM    7  C           1     -21.100  -5.902  -3.768  0.00  0.00     0.004 C 
BRANCH   7   8
HETATM    8  C           1     -21.421  -6.953  -2.713  0.00  0.00     0.027 C 
BRANCH   8   9
HETATM    9  C           1     -22.273  -6.329  -1.617  0.00  0.00     0.229 C 
BRANCH   9  10
HETATM   10  N           1     -22.399  -7.290  -0.472  0.00  0.00    -0.079 N 
HETATM   11  H           1     -21.648  -8.014  -0.541  0.00  0.00     0.274 HD
HETATM   12  H           1     -23.334  -7.754  -0.507  0.00  0.00     0.274 HD
HETATM   13  H           1     -22.302  -6.771   0.430  0.00  0.00     0.274 HD
ENDBRANCH   9  10
ENDBRANCH   8   9
ENDBRANCH   7   8
ENDBRANCH   6   7
ENDBRANCH   5   6
BRANCH   5  14
HETATM   14  C           1     -19.979  -5.601  -6.672  0.00  0.00     0.196 C 
HETATM   15  O           1     -19.140  -4.684  -6.812  0.00  0.00    -0.646 OA
HETATM   16  O           1     -19.669  -6.779  -6.952  0.00  0.00    -0.646 OA
ENDBRANCH   5  14
ENDBRANCH   1   5
BRANCH   3  17
HETATM   17  C           1     -23.516  -4.346  -9.190  0.00  0.00     0.302 C 
BRANCH  17  18
HETATM   18  C           1     -22.767  -4.281 -10.515  0.00  0.00     0.153 C 
HETATM   19  C           1     -23.584  -4.979 -11.594  0.00  0.00     0.042 C 
BRANCH  18  20
HETATM   20  O           1     -22.568  -2.940 -10.874  0.00  0.00    -0.393 OA
HETATM   21  H           1     -23.145  -2.424 -10.337  0.00  0.00     0.210 HD
ENDBRANCH  18  20
ENDBRANCH  17  18
BRANCH  17  22
HETATM   22  N           1     -24.475  -3.197  -9.102  0.00  0.00    -0.064 N 
HETATM   23  H           1     -25.448  -3.542  -9.268  0.00  0.00     0.275 HD
HETATM   24  H           1     -24.417  -2.767  -8.151  0.00  0.00     0.275 HD
HETATM   25  H           1     -24.230  -2.483  -9.823  0.00  0.00     0.275 HD
ENDBRANCH  17  22
ENDBRANCH   3  17
TORSDOF 11
ENDMDL
MODEL 8
REMARK VINA RESULT:      -5.3     15.139     16.625
REMARK  11 active torsions:
REMARK  status: ('A' for Active; 'I' for Inactive)
REMARK    1  A    between atoms: C_2  and  C_4 
REMARK    2  A    between atoms: C_2  and  C_25 
REMARK    3  A    between atoms: N_3  and  C_11 
REMARK    4  A    between atoms: C_4  and  C_5 
REMARK    5  A    between atoms: C_5  and  C_11 
REMARK    6  A    between atoms: N_6  and  C_25 
REMARK       I    between atoms: N_6  and  C_9 
REMARK    7  A    between atoms: C_9  and  C_16 
REMARK    8  A    between atoms: O_13  and  C_23 
REMARK    9  A    between atoms: C_16  and  C_23 
REMARK   10  A    between atoms: C_16  and  N_18 
REMARK   11  A    between atoms: C_17  and  C_25 
ROOT
HETATM    1  N           1     -21.262  -6.475  -6.248  0.00  0.00    -0.345 N 
HETATM    2  H           1     -21.678  -7.172  -6.853  0.00  0.00     0.163 HD
HETATM    3  C           1     -21.115  -5.188  -6.686  0.00  0.00     0.251 C 
HETATM    4  O           1     -20.619  -4.356  -5.963  0.00  0.00    -0.271 OA
ENDROOT
BRANCH   1   5
HETATM    5  C           1     -20.823  -6.842  -4.916  0.00  0.00     0.185 C 
BRANCH   5   6
HETATM    6  C           1     -21.989  -6.716  -3.944  0.00  0.00     0.036 C 
BRANCH   6   7
HETATM    7  C           1     -21.501  -6.097  -2.641  0.00  0.00     0.004 C 
BRANCH   7   8
HETATM    8  C           1     -22.300  -6.668  -1.477  0.00  0.00     0.027 C 
BRANCH   8   9
HETATM    9  C           1     -21.511  -7.793  -0.822  0.00  0.00     0.229 C 
BRANCH   9  10
HETATM   10  N           1     -21.991  -9.113  -1.349  0.00  0.00    -0.079 N 
HETATM   11  H           1     -22.652  -8.952  -2.143  0.00  0.00     0.274 HD
HETATM   12  H           1     -22.483  -9.634  -0.588  0.00  0.00     0.274 HD
HETATM   13  H           1     -21.175  -9.673  -1.682  0.00  0.00     0.274 HD
ENDBRANCH   9  10
ENDBRANCH   8   9
ENDBRANCH   7   8
ENDBRANCH   6   7
ENDBRANCH   5   6
BRANCH   5  14
HETATM   14  C           1     -20.328  -8.267  -4.924  0.00  0.00     0.196 C 
HETATM   15  O           1     -19.348  -8.585  -5.633  0.00  0.00    -0.646 OA
HETATM   16  O           1     -20.896  -9.131  -4.220  0.00  0.00    -0.646 OA
ENDBRANCH   5  14
ENDBRANCH   1   5
BRANCH   3  17
HETATM   17  C           1     -21.572  -4.806  -8.073  0.00  0.00     0.302 C 
BRANCH  17  18
HETATM   18  C           1     -20.360  -4.629  -8.978  0.00  0.00     0.153 C 
HETATM   19  C           1     -20.813  -4.115 -10.338  0.00  0.00     0.042 C 
BRANCH  18  20
HETATM   20  O           1     -19.476  -3.706  -8.400  0.00  0.00    -0.393 OA
HETATM   21  H           1     -19.690  -3.659  -7.484  0.00  0.00     0.210 HD
ENDBRANCH  18  20
ENDBRANCH  17  18
BRANCH  17  22
HETATM   22  N           1     -22.340  -3.519  -8.009  0.00  0.00    -0.064 N 
HETATM   23  H           1     -23.109  -3.536  -8.717  0.00  0.00     0.275 HD
HETATM   24  H           1     -22.749  -3.405  -7.054  0.00  0.00     0.275 HD
HETATM   25  H           1     -21.697  -2.721  -8.210  0.00  0.00     0.275 HD
ENDBRANCH  17  22
ENDBRANCH   3  17
TORSDOF 11
ENDMDL
MODEL 9
REMARK VINA RESULT:      -5.3     10.350     11.530
REMARK  11 active torsions:
REMARK  status: ('A' for Active; 'I' for Inactive)
REMARK    1  A    between atoms: C_2  and  C_4 
REMARK    2  A    between atoms: C_2  and  C_25 
REMARK    3  A    between atoms: N_3  and  C_11 
REMARK    4  A    between atoms: C_4  and  C_5 
REMARK    5  A    between atoms: C_5  and  C_11 
REMARK    6  A    between atoms: N_6  and  C_25 
REMARK       I    between atoms: N_6  and  C_9 
REMARK    7  A    between atoms: C_9  and  C_16 
REMARK    8  A    between atoms: O_13  and  C_23 
REMARK    9  A    between atoms: C_16  and  C_23 
REMARK   10  A    between atoms: C_16  and  N_18 
REMARK   11  A    between atoms: C_17  and  C_25 
ROOT
HETATM    1  N           1     -26.257  -6.694 -18.243  0.00  0.00    -0.345 N 
HETATM    2  H           1     -25.442  -7.263 -18.048  0.00  0.00     0.163 HD
HETATM    3  C           1     -26.583  -6.385 -19.535  0.00  0.00     0.251 C 
HETATM    4  O           1     -27.555  -5.705 -19.767  0.00  0.00    -0.271 OA
ENDROOT
BRANCH   1   5
HETATM    5  C           1     -27.077  -6.206 -17.151  0.00  0.00     0.185 C 
BRANCH   5   6
HETATM    6  C           1     -28.437  -6.892 -17.193  0.00  0.00     0.036 C 
BRANCH   6   7
HETATM    7  C           1     -29.479  -5.997 -16.535  0.00  0.00     0.004 C 
BRANCH   7   8
HETATM    8  C           1     -29.192  -4.542 -16.882  0.00  0.00     0.027 C 
BRANCH   8   9
HETATM    9  C           1     -30.097  -4.103 -18.024  0.00  0.00     0.229 C 
BRANCH   9  10
HETATM   10  N           1     -30.853  -2.872 -17.619  0.00  0.00    -0.079 N 
HETATM   11  H           1     -30.329  -2.376 -16.862  0.00  0.00     0.274 HD
HETATM   12  H           1     -31.799  -3.143 -17.267  0.00  0.00     0.274 HD
HETATM   13  H           1     -30.956  -2.240 -18.444  0.00  0.00     0.274 HD
ENDBRANCH   9  10
ENDBRANCH   8   9
ENDBRANCH   7   8
ENDBRANCH   6   7
ENDBRANCH   5   6
BRANCH   5  14
HETATM   14  C           1     -26.401  -6.511 -15.838  0.00  0.00     0.196 C 
HETATM   15  O           1     -25.413  -5.838 -15.472  0.00  0.00    -0.646 OA
HETATM   16  O           1     -26.828  -7.437 -15.115  0.00  0.00    -0.646 OA
ENDBRANCH   5  14
ENDBRANCH   1   5
BRANCH   3  17
HETATM   17  C           1     -25.729  -6.893 -20.671  0.00  0.00     0.302 C 
BRANCH  17  18
HETATM   18  C           1     -24.511  -7.615 -20.108  0.00  0.00     0.153 C 
HETATM   19  C           1     -23.691  -8.193 -21.254  0.00  0.00     0.042 C 
BRANCH  18  20
HETATM   20  O           1     -23.725  -6.709 -19.382  0.00  0.00    -0.393 OA
HETATM   21  H           1     -22.827  -6.888 -19.602  0.00  0.00     0.210 HD
ENDBRANCH  18  20
ENDBRANCH  17  18
BRANCH  17  22
HETATM   22  N           1     -25.279  -5.736 -21.512  0.00  0.00    -0.064 N 
HETATM   23  H           1     -25.782  -4.870 -21.213  0.00  0.00     0.275 HD
HETATM   24  H           1     -24.250  -5.598 -21.394  0.00  0.00     0.275 HD
HETATM   25  H           1     -25.490  -5.933 -22.516  0.00  0.00     0.275 HD
ENDBRANCH  17  22
ENDBRANCH   3  17
TORSDOF 11
ENDMDL
