MODEL 1
REMARK VINA RESULT:      -5.9      0.000      0.000
REMARK  9 active torsions:
REMARK  status: ('A' for Active; 'I' for Inactive)
REMARK    1  A    between atoms: C_1  and  C_16 
REMARK    2  A    between atoms: C_1  and  C_8 
REMARK    3  A    between atoms: C_4  and  C_8 
REMARK    4  A    between atoms: C_5  and  C_6 
REMARK    5  A    between atoms: C_5  and  C_14 
REMARK    6  A    between atoms: C_5  and  N_11 
REMARK       I    between atoms: C_6  and  N_7 
REMARK    7  A    between atoms: N_7  and  C_8 
REMARK       I    between atoms: N_9  and  C_13 
REMARK    8  A    between atoms: C_13  and  C_14 
REMARK    9  A    between atoms: S_15  and  C_16 
ROOT
HETATM    1  C           1     -25.587  -6.926 -18.969  0.00  0.00     0.249 C 
HETATM    2  N           1     -26.670  -6.653 -18.178  0.00  0.00    -0.345 N 
HETATM    3  O           1     -24.484  -6.570 -18.626  0.00  0.00    -0.271 OA
HETATM    4  H           1     -27.593  -6.951 -18.465  0.00  0.00     0.163 HD
ENDROOT
BRANCH   1   5
HETATM    5  C           1     -25.769  -7.673 -20.267  0.00  0.00     0.283 C 
BRANCH   5   6
HETATM    6  C           1     -24.952  -6.997 -21.361  0.00  0.00     0.145 C 
BRANCH   6   7
HETATM    7  C           1     -23.800  -7.890 -21.754  0.00  0.00     0.217 C 
HETATM    8  N           1     -23.196  -8.681 -20.815  0.00  0.00    -0.370 N 
HETATM    9  H           1     -22.424  -9.280 -21.078  0.00  0.00     0.159 HD
HETATM   10  H           1     -23.521  -8.667 -19.857  0.00  0.00     0.159 HD
HETATM   11  O           1     -23.413  -7.907 -22.899  0.00  0.00    -0.274 OA
ENDBRANCH   6   7
ENDBRANCH   5   6
BRANCH   5  12
HETATM   12  N           1     -27.219  -7.662 -20.649  0.00  0.00    -0.066 N 
HETATM   13  H           1     -27.309  -7.465 -21.672  0.00  0.00     0.275 HD
HETATM   14  H           1     -27.641  -8.594 -20.437  0.00  0.00     0.275 HD
HETATM   15  H           1     -27.717  -6.921 -20.107  0.00  0.00     0.275 HD
ENDBRANCH   5  12
ENDBRANCH   1   5
BRANCH   2  16
HETATM   16  C           1     -26.495  -5.936 -16.930  0.00  0.00     0.186 C 
BRANCH  16  17
HETATM   17  C           1     -27.664  -4.981 -16.726  0.00  0.00     0.046 C 
BRANCH  17  18
HETATM   18  C           1     -28.634  -5.109 -17.892  0.00  0.00     0.076 C 
BRANCH  18  19
HETATM   19  S           1     -30.245  -5.681 -17.280  0.00  0.00    -0.173 SA
HETATM   20  C           1     -30.128  -7.362 -17.953  0.00  0.00     0.089 C 
ENDBRANCH  18  19
ENDBRANCH  17  18
ENDBRANCH  16  17
BRANCH  16  21
HETATM   21  C           1     -26.444  -6.921 -15.789  0.00  0.00     0.196 C 
HETATM   22  O           1     -27.503  -7.304 -15.246  0.00  0.00    -0.646 OA
HETATM   23  O           1     -25.344  -7.354 -15.384  0.00  0.00    -0.646 OA
ENDBRANCH  16  21
ENDBRANCH   2  16
TORSDOF 9
ENDMDL
MODEL 2
REMARK VINA RESULT:      -5.7     11.222     12.767
REMARK  9 active torsions:
REMARK  status: ('A' for Active; 'I' for Inactive)
REMARK    1  A    between atoms: C_1  and  C_16 
REMARK    2  A    between atoms: C_1  and  C_8 
REMARK    3  A    between atoms: C_4  and  C_8 
REMARK    4  A    between atoms: C_5  and  C_6 
REMARK    5  A    between atoms: C_5  and  C_14 
REMARK    6  A    between atoms: C_5  and  N_11 
REMARK       I    between atoms: C_6  and  N_7 
REMARK    7  A    between atoms: N_7  and  C_8 
REMARK       I    between atoms: N_9  and  C_13 
REMARK    8  A    between atoms: C_13  and  C_14 
REMARK    9  A    between atoms: S_15  and  C_16 
ROOT
HETATM    1  C           1     -34.452  -2.459 -12.503  0.00  0.00     0.249 C 
HETATM    2  N           1     -35.135  -1.304 -12.237  0.00  0.00    -0.345 N 
HETATM    3  O           1     -34.552  -2.983 -13.587  0.00  0.00    -0.271 OA
HETATM    4  H           1     -35.052  -0.865 -11.329  0.00  0.00     0.163 HD
ENDROOT
BRANCH   1   5
HETATM    5  C           1     -33.574  -3.079 -11.444  0.00  0.00     0.283 C 
BRANCH   5   6
HETATM    6  C           1     -34.343  -4.179 -10.725  0.00  0.00     0.145 C 
BRANCH   6   7
HETATM    7  C           1     -34.072  -5.504 -11.395  0.00  0.00     0.217 C 
HETATM    8  N           1     -34.824  -5.894 -12.470  0.00  0.00    -0.370 N 
HETATM    9  H           1     -34.642  -6.782 -12.920  0.00  0.00     0.159 HD
HETATM   10  H           1     -35.562  -5.295 -12.815  0.00  0.00     0.159 HD
HETATM   11  O           1     -33.189  -6.220 -10.983  0.00  0.00    -0.274 OA
ENDBRANCH   6   7
ENDBRANCH   5   6
BRANCH   5  12
HETATM   12  N           1     -33.167  -2.026 -10.456  0.00  0.00    -0.066 N 
HETATM   13  H           1     -33.171  -2.432  -9.492  0.00  0.00     0.275 HD
HETATM   14  H           1     -32.206  -1.686 -10.685  0.00  0.00     0.275 HD
HETATM   15  H           1     -33.839  -1.228 -10.499  0.00  0.00     0.275 HD
ENDBRANCH   5  12
ENDBRANCH   1   5
BRANCH   2  16
HETATM   16  C           1     -35.979  -0.708 -13.254  0.00  0.00     0.186 C 
BRANCH  16  17
HETATM   17  C           1     -37.126   0.040 -12.588  0.00  0.00     0.046 C 
BRANCH  17  18
HETATM   18  C           1     -37.382  -0.548 -11.207  0.00  0.00     0.076 C 
BRANCH  18  19
HETATM   19  S           1     -37.271   0.765  -9.959  0.00  0.00    -0.173 SA
HETATM   20  C           1     -37.263  -0.334  -8.514  0.00  0.00     0.089 C 
ENDBRANCH  18  19
ENDBRANCH  17  18
ENDBRANCH  16  17
BRANCH  16  21
HETATM   21  C           1     -35.163   0.253 -14.083  0.00  0.00     0.196 C 
HETATM   22  O           1     -34.897  -0.019 -15.273  0.00  0.00    -0.646 OA
HETATM   23  O           1     -34.751   1.320 -13.579  0.00  0.00    -0.646 OA
ENDBRANCH  16  21
ENDBRANCH   2  16
TORSDOF 9
ENDMDL
MODEL 3
REMARK VINA RESULT:      -5.7     11.386     12.703
REMARK  9 active torsions:
REMARK  status: ('A' for Active; 'I' for Inactive)
REMARK    1  A    between atoms: C_1  and  C_16 
REMARK    2  A    between atoms: C_1  and  C_8 
REMARK    3  A    between atoms: C_4  and  C_8 
REMARK    4  A    between atoms: C_5  and  C_6 
REMARK    5  A    between atoms: C_5  and  C_14 
REMARK    6  A    between atoms: C_5  and  N_11 
REMARK       I    between atoms: C_6  and  N_7 
REMARK    7  A    between atoms: N_7  and  C_8 
REMARK       I    between atoms: N_9  and  C_13 
REMARK    8  A    between atoms: C_13  and  C_14 
REMARK    9  A    between atoms: S_15  and  C_16 
ROOT
HETATM    1  C           1     -35.627  -0.690 -12.580  0.00  0.00     0.249 C 
HETATM    2  N           1     -35.105  -1.946 -12.733  0.00  0.00    -0.345 N 
HETATM    3  O           1     -35.855  -0.262 -11.474  0.00  0.00    -0.271 OA
HETATM    4  H           1     -34.915  -2.305 -13.660  0.00  0.00     0.163 HD
ENDROOT
BRANCH   1   5
HETATM    5  C           1     -35.917   0.160 -13.793  0.00  0.00     0.283 C 
BRANCH   5   6
HETATM    6  C           1     -37.360  -0.054 -14.231  0.00  0.00     0.145 C 
BRANCH   6   7
HETATM    7  C           1     -37.505   0.316 -15.687  0.00  0.00     0.217 C 
HETATM    8  N           1     -37.717   1.620 -16.043  0.00  0.00    -0.370 N 
HETATM    9  H           1     -37.813   1.869 -17.020  0.00  0.00     0.159 HD
HETATM   10  H           1     -37.777   2.336 -15.331  0.00  0.00     0.159 HD
HETATM   11  O           1     -37.432  -0.539 -16.538  0.00  0.00    -0.274 OA
ENDBRANCH   6   7
ENDBRANCH   5   6
BRANCH   5  12
HETATM   12  N           1     -34.993  -0.230 -14.908  0.00  0.00    -0.066 N 
HETATM   13  H           1     -34.597  -1.178 -14.717  0.00  0.00     0.275 HD
HETATM   14  H           1     -35.523  -0.249 -15.808  0.00  0.00     0.275 HD
HETATM   15  H           1     -34.215   0.464 -14.975  0.00  0.00     0.275 HD
ENDBRANCH   5  12
ENDBRANCH   1   5
BRANCH   2  16
HETATM   16  C           1     -34.827  -2.764 -11.569  0.00  0.00     0.186 C 
BRANCH  16  17
HETATM   17  C           1     -35.019  -4.233 -11.922  0.00  0.00     0.046 C 
BRANCH  17  18
HETATM   18  C           1     -35.117  -5.054 -10.644  0.00  0.00     0.076 C 
BRANCH  18  19
HETATM   19  S           1     -33.965  -6.454 -10.733  0.00  0.00    -0.173 SA
HETATM   20  C           1     -34.981  -7.609  -9.770  0.00  0.00     0.089 C 
ENDBRANCH  18  19
ENDBRANCH  17  18
ENDBRANCH  16  17
BRANCH  16  21
HETATM   21  C           1     -33.403  -2.534 -11.125  0.00  0.00     0.196 C 
HETATM   22  O           1     -33.142  -1.617 -10.317  0.00  0.00    -0.646 OA
HETATM   23  O           1     -32.485  -3.258 -11.566  0.00  0.00    -0.646 OA
ENDBRANCH  16  21
ENDBRANCH   2  16
TORSDOF 9
ENDMDL
MODEL 4
REMARK VINA RESULT:      -5.7     10.968     12.463
REMARK  9 active torsions:
REMARK  status: ('A' for Active; 'I' for Inactive)
REMARK    1  A    between atoms: C_1  and  C_16 
REMARK    2  A    between atoms: C_1  and  C_8 
REMARK    3  A    between atoms: C_4  and  C_8 
REMARK    4  A    between atoms: C_5  and  C_6 
REMARK    5  A    between atoms: C_5  and  C_14 
REMARK    6  A    between atoms: C_5  and  N_11 
REMARK       I    between atoms: C_6  and  N_7 
REMARK    7  A    between atoms: N_7  and  C_8 
REMARK       I    between atoms: N_9  and  C_13 
REMARK    8  A    between atoms: C_13  and  C_14 
REMARK    9  A    between atoms: S_15  and  C_16 
ROOT
HETATM    1  C           1     -34.090  -3.047 -11.562  0.00  0.00     0.249 C 
HETATM    2  N           1     -35.229  -2.500 -12.088  0.00  0.00    -0.345 N 
HETATM    3  O           1     -33.330  -2.359 -10.923  0.00  0.00    -0.271 OA
HETATM    4  H           1     -35.866  -3.076 -12.624  0.00  0.00     0.163 HD
ENDROOT
BRANCH   1   5
HETATM    5  C           1     -33.784  -4.508 -11.779  0.00  0.00     0.283 C 
BRANCH   5   6
HETATM    6  C           1     -34.013  -5.274 -10.482  0.00  0.00     0.145 C 
BRANCH   6   7
HETATM    7  C           1     -34.691  -6.588 -10.786  0.00  0.00     0.217 C 
HETATM    8  N           1     -35.078  -6.879 -12.065  0.00  0.00    -0.370 N 
HETATM    9  H           1     -35.532  -7.760 -12.269  0.00  0.00     0.159 HD
HETATM   10  H           1     -34.910  -6.213 -12.809  0.00  0.00     0.159 HD
HETATM   11  O           1     -34.891  -7.383  -9.898  0.00  0.00    -0.274 OA
ENDBRANCH   6   7
ENDBRANCH   5   6
BRANCH   5  12
HETATM   12  N           1     -32.354  -4.660 -12.203  0.00  0.00    -0.066 N 
HETATM   13  H           1     -32.288  -5.386 -12.953  0.00  0.00     0.275 HD
HETATM   14  H           1     -32.001  -3.748 -12.570  0.00  0.00     0.275 HD
HETATM   15  H           1     -31.776  -4.954 -11.384  0.00  0.00     0.275 HD
ENDBRANCH   5  12
ENDBRANCH   1   5
BRANCH   2  16
HETATM   16  C           1     -35.524  -1.095 -11.881  0.00  0.00     0.186 C 
BRANCH  16  17
HETATM   17  C           1     -36.147  -0.515 -13.143  0.00  0.00     0.046 C 
BRANCH  17  18
HETATM   18  C           1     -35.131   0.374 -13.848  0.00  0.00     0.076 C 
BRANCH  18  19
HETATM   19  S           1     -35.790   0.886 -15.460  0.00  0.00    -0.173 SA
HETATM   20  C           1     -35.809  -0.770 -16.202  0.00  0.00     0.089 C 
ENDBRANCH  18  19
ENDBRANCH  17  18
ENDBRANCH  16  17
BRANCH  16  21
HETATM   21  C           1     -36.489  -0.951 -10.730  0.00  0.00     0.196 C 
HETATM   22  O           1     -37.713  -1.119 -10.917  0.00  0.00    -0.646 OA
HETATM   23  O           1     -36.065  -0.662  -9.590  0.00  0.00    -0.646 OA
ENDBRANCH  16  21
ENDBRANCH   2  16
TORSDOF 9
ENDMDL
MODEL 5
REMARK VINA RESULT:      -5.7     12.229     13.250
REMARK  9 active torsions:
REMARK  status: ('A' for Active; 'I' for Inactive)
REMARK    1  A    between atoms: C_1  and  C_16 
REMARK    2  A    between atoms: C_1  and  C_8 
REMARK    3  A    between atoms: C_4  and  C_8 
REMARK    4  A    between atoms: C_5  and  C_6 
REMARK    5  A    between atoms: C_5  and  C_14 
REMARK    6  A    between atoms: C_5  and  N_11 
REMARK       I    between atoms: C_6  and  N_7 
REMARK    7  A    between atoms: N_7  and  C_8 
REMARK       I    between atoms: N_9  and  C_13 
REMARK    8  A    between atoms: C_13  and  C_14 
REMARK    9  A    between atoms: S_15  and  C_16 
ROOT
HETATM    1  C           1     -36.051  -0.339 -13.015  0.00  0.00     0.249 C 
HETATM    2  N           1     -35.258  -0.498 -11.911  0.00  0.00    -0.345 N 
HETATM    3  O           1     -37.057  -0.998 -13.136  0.00  0.00    -0.271 OA
HETATM    4  H           1     -34.416   0.053 -11.810  0.00  0.00     0.163 HD
ENDROOT
BRANCH   1   5
HETATM    5  C           1     -35.671   0.660 -14.080  0.00  0.00     0.283 C 
BRANCH   5   6
HETATM    6  C           1     -35.541  -0.050 -15.421  0.00  0.00     0.145 C 
BRANCH   6   7
HETATM    7  C           1     -36.870  -0.024 -16.136  0.00  0.00     0.217 C 
HETATM    8  N           1     -37.790   0.944 -15.836  0.00  0.00    -0.370 N 
HETATM    9  H           1     -38.681   0.963 -16.316  0.00  0.00     0.159 HD
HETATM   10  H           1     -37.579   1.642 -15.135  0.00  0.00     0.159 HD
HETATM   11  O           1     -37.121  -0.857 -16.975  0.00  0.00    -0.274 OA
ENDBRANCH   6   7
ENDBRANCH   5   6
BRANCH   5  12
HETATM   12  N           1     -34.361   1.296 -13.723  0.00  0.00    -0.066 N 
HETATM   13  H           1     -34.437   1.748 -12.784  0.00  0.00     0.275 HD
HETATM   14  H           1     -33.615   0.565 -13.696  0.00  0.00     0.275 HD
HETATM   15  H           1     -34.117   2.018 -14.437  0.00  0.00     0.275 HD
ENDBRANCH   5  12
ENDBRANCH   1   5
BRANCH   2  16
HETATM   16  C           1     -35.622  -1.458 -10.888  0.00  0.00     0.186 C 
BRANCH  16  17
HETATM   17  C           1     -34.362  -2.086 -10.308  0.00  0.00     0.046 C 
BRANCH  17  18
HETATM   18  C           1     -33.610  -2.824 -11.408  0.00  0.00     0.076 C 
BRANCH  18  19
HETATM   19  S           1     -34.613  -4.217 -11.998  0.00  0.00    -0.173 SA
HETATM   20  C           1     -34.085  -5.396 -10.723  0.00  0.00     0.089 C 
ENDBRANCH  18  19
ENDBRANCH  17  18
ENDBRANCH  16  17
BRANCH  16  21
HETATM   21  C           1     -36.386  -0.756  -9.792  0.00  0.00     0.196 C 
HETATM   22  O           1     -37.631  -0.667  -9.857  0.00  0.00    -0.646 OA
HETATM   23  O           1     -35.774  -0.262  -8.821  0.00  0.00    -0.646 OA
ENDBRANCH  16  21
ENDBRANCH   2  16
TORSDOF 9
ENDMDL
MODEL 6
REMARK VINA RESULT:      -5.6      2.105      2.688
REMARK  9 active torsions:
REMARK  status: ('A' for Active; 'I' for Inactive)
REMARK    1  A    between atoms: C_1  and  C_16 
REMARK    2  A    between atoms: C_1  and  C_8 
REMARK    3  A    between atoms: C_4  and  C_8 
REMARK    4  A    between atoms: C_5  and  C_6 
REMARK    5  A    between atoms: C_5  and  C_14 
REMARK    6  A    between atoms: C_5  and  N_11 
REMARK       I    between atoms: C_6  and  N_7 
REMARK    7  A    between atoms: N_7  and  C_8 
REMARK       I    between atoms: N_9  and  C_13 
REMARK    8  A    between atoms: C_13  and  C_14 
REMARK    9  A    between atoms: S_15  and  C_16 
ROOT
HETATM    1  C           1     -26.424  -6.723 -19.461  0.00  0.00     0.249 C 
HETATM    2  N           1     -27.783  -6.860 -19.544  0.00  0.00    -0.345 N 
HETATM    3  O           1     -25.914  -6.389 -18.419  0.00  0.00    -0.271 OA
HETATM    4  H           1     -28.212  -7.140 -20.417  0.00  0.00     0.163 HD
ENDROOT
BRANCH   1   5
HETATM    5  C           1     -25.563  -6.991 -20.671  0.00  0.00     0.283 C 
BRANCH   5   6
HETATM    6  C           1     -24.279  -7.685 -20.238  0.00  0.00     0.145 C 
BRANCH   6   7
HETATM    7  C           1     -23.631  -8.338 -21.434  0.00  0.00     0.217 C 
HETATM    8  N           1     -22.504  -9.098 -21.272  0.00  0.00    -0.370 N 
HETATM    9  H           1     -22.070  -9.537 -22.074  0.00  0.00     0.159 HD
HETATM   10  H           1     -22.105  -9.222 -20.351  0.00  0.00     0.159 HD
HETATM   11  O           1     -24.108  -8.191 -22.535  0.00  0.00    -0.274 OA
ENDBRANCH   6   7
ENDBRANCH   5   6
BRANCH   5  12
HETATM   12  N           1     -25.228  -5.692 -21.342  0.00  0.00    -0.066 N 
HETATM   13  H           1     -24.823  -5.032 -20.639  0.00  0.00     0.275 HD
HETATM   14  H           1     -24.531  -5.862 -22.101  0.00  0.00     0.275 HD
HETATM   15  H           1     -26.094  -5.276 -21.750  0.00  0.00     0.275 HD
ENDBRANCH   5  12
ENDBRANCH   1   5
BRANCH   2  16
HETATM   16  C           1     -28.612  -6.602 -18.382  0.00  0.00     0.186 C 
BRANCH  16  17
HETATM   17  C           1     -29.077  -5.152 -18.401  0.00  0.00     0.046 C 
BRANCH  17  18
HETATM   18  C           1     -28.550  -4.433 -17.167  0.00  0.00     0.076 C 
BRANCH  18  19
HETATM   19  S           1     -27.993  -5.655 -15.945  0.00  0.00    -0.173 SA
HETATM   20  C           1     -29.473  -5.577 -14.897  0.00  0.00     0.089 C 
ENDBRANCH  18  19
ENDBRANCH  17  18
ENDBRANCH  16  17
BRANCH  16  21
HETATM   21  C           1     -29.811  -7.518 -18.409  0.00  0.00     0.196 C 
HETATM   22  O           1     -30.813  -7.254 -17.710  0.00  0.00    -0.646 OA
HETATM   23  O           1     -29.802  -8.540 -19.128  0.00  0.00    -0.646 OA
ENDBRANCH  16  21
ENDBRANCH   2  16
TORSDOF 9
ENDMDL
MODEL 7
REMARK VINA RESULT:      -5.6      3.498      6.294
REMARK  9 active torsions:
REMARK  status: ('A' for Active; 'I' for Inactive)
REMARK    1  A    between atoms: C_1  and  C_16 
REMARK    2  A    between atoms: C_1  and  C_8 
REMARK    3  A    between atoms: C_4  and  C_8 
REMARK    4  A    between atoms: C_5  and  C_6 
REMARK    5  A    between atoms: C_5  and  C_14 
REMARK    6  A    between atoms: C_5  and  N_11 
REMARK       I    between atoms: C_6  and  N_7 
REMARK    7  A    between atoms: N_7  and  C_8 
REMARK       I    between atoms: N_9  and  C_13 
REMARK    8  A    between atoms: C_13  and  C_14 
REMARK    9  A    between atoms: S_15  and  C_16 
ROOT
HETATM    1  C           1     -29.055  -5.042 -17.060  0.00  0.00     0.249 C 
HETATM    2  N           1     -27.726  -5.067 -17.386  0.00  0.00    -0.345 N 
HETATM    3  O           1     -29.635  -6.073 -16.814  0.00  0.00    -0.271 OA
HETATM    4  H           1     -27.239  -4.204 -17.593  0.00  0.00     0.163 HD
ENDROOT
BRANCH   1   5
HETATM    5  C           1     -29.795  -3.728 -17.007  0.00  0.00     0.283 C 
BRANCH   5   6
HETATM    6  C           1     -30.966  -3.764 -17.979  0.00  0.00     0.145 C 
BRANCH   6   7
HETATM    7  C           1     -32.263  -3.701 -17.210  0.00  0.00     0.217 C 
HETATM    8  N           1     -32.471  -4.540 -16.149  0.00  0.00    -0.370 N 
HETATM    9  H           1     -33.340  -4.498 -15.632  0.00  0.00     0.159 HD
HETATM   10  H           1     -31.755  -5.204 -15.881  0.00  0.00     0.159 HD
HETATM   11  O           1     -33.117  -2.908 -17.530  0.00  0.00    -0.274 OA
ENDBRANCH   6   7
ENDBRANCH   5   6
BRANCH   5  12
HETATM   12  N           1     -28.864  -2.616 -17.387  0.00  0.00    -0.066 N 
HETATM   13  H           1     -29.313  -2.019 -18.118  0.00  0.00     0.275 HD
HETATM   14  H           1     -28.655  -2.034 -16.545  0.00  0.00     0.275 HD
HETATM   15  H           1     -27.976  -3.017 -17.763  0.00  0.00     0.275 HD
ENDBRANCH   5  12
ENDBRANCH   1   5
BRANCH   2  16
HETATM   16  C           1     -27.014  -6.329 -17.438  0.00  0.00     0.186 C 
BRANCH  16  17
HETATM   17  C           1     -26.090  -6.342 -18.649  0.00  0.00     0.046 C 
BRANCH  17  18
HETATM   18  C           1     -26.886  -6.722 -19.891  0.00  0.00     0.076 C 
BRANCH  18  19
HETATM   19  S           1     -25.852  -7.734 -20.986  0.00  0.00    -0.173 SA
HETATM   20  C           1     -24.324  -7.578 -20.018  0.00  0.00     0.089 C 
ENDBRANCH  18  19
ENDBRANCH  17  18
ENDBRANCH  16  17
BRANCH  16  21
HETATM   21  C           1     -26.199  -6.496 -16.180  0.00  0.00     0.196 C 
HETATM   22  O           1     -26.499  -7.386 -15.355  0.00  0.00    -0.646 OA
HETATM   23  O           1     -25.225  -5.744 -15.961  0.00  0.00    -0.646 OA
ENDBRANCH  16  21
ENDBRANCH   2  16
TORSDOF 9
ENDMDL
MODEL 8
REMARK VINA RESULT:      -5.5      3.628      6.153
REMARK  9 active torsions:
REMARK  status: ('A' for Active; 'I' for Inactive)
REMARK    1  A    between atoms: C_1  and  C_16 
REMARK    2  A    between atoms: C_1  and  C_8 
REMARK    3  A    between atoms: C_4  and  C_8 
REMARK    4  A    between atoms: C_5  and  C_6 
REMARK    5  A    between atoms: C_5  and  C_14 
REMARK    6  A    between atoms: C_5  and  N_11 
REMARK       I    between atoms: C_6  and  N_7 
REMARK    7  A    between atoms: N_7  and  C_8 
REMARK       I    between atoms: N_9  and  C_13 
REMARK    8  A    between atoms: C_13  and  C_14 
REMARK    9  A    between atoms: S_15  and  C_16 
ROOT
HETATM    1  C           1     -30.313  -6.680 -17.615  0.00  0.00     0.249 C 
HETATM    2  N           1     -29.150  -6.053 -17.259  0.00  0.00    -0.345 N 
HETATM    3  O           1     -30.296  -7.843 -17.943  0.00  0.00    -0.271 OA
HETATM    4  H           1     -29.164  -5.079 -16.985  0.00  0.00     0.163 HD
ENDROOT
BRANCH   1   5
HETATM    5  C           1     -31.617  -5.921 -17.599  0.00  0.00     0.283 C 
BRANCH   5   6
HETATM    6  C           1     -31.503  -4.736 -16.648  0.00  0.00     0.145 C 
BRANCH   6   7
HETATM    7  C           1     -31.619  -3.450 -17.430  0.00  0.00     0.217 C 
HETATM    8  N           1     -30.492  -2.824 -17.887  0.00  0.00    -0.370 N 
HETATM    9  H           1     -30.569  -1.962 -18.412  0.00  0.00     0.159 HD
HETATM   10  H           1     -29.580  -3.222 -17.702  0.00  0.00     0.159 HD
HETATM   11  O           1     -32.707  -2.975 -17.653  0.00  0.00    -0.274 OA
ENDBRANCH   6   7
ENDBRANCH   5   6
BRANCH   5  12
HETATM   12  N           1     -32.717  -6.829 -17.135  0.00  0.00    -0.066 N 
HETATM   13  H           1     -32.334  -7.790 -16.983  0.00  0.00     0.275 HD
HETATM   14  H           1     -33.113  -6.467 -16.239  0.00  0.00     0.275 HD
HETATM   15  H           1     -33.468  -6.865 -17.860  0.00  0.00     0.275 HD
ENDBRANCH   5  12
ENDBRANCH   1   5
BRANCH   2  16
HETATM   16  C           1     -27.897  -6.782 -17.275  0.00  0.00     0.186 C 
BRANCH  16  17
HETATM   17  C           1     -26.923  -6.097 -18.225  0.00  0.00     0.046 C 
BRANCH  17  18
HETATM   18  C           1     -27.111  -6.651 -19.631  0.00  0.00     0.076 C 
BRANCH  18  19
HETATM   19  S           1     -25.502  -6.744 -20.465  0.00  0.00    -0.173 SA
HETATM   20  C           1     -24.523  -7.072 -18.973  0.00  0.00     0.089 C 
ENDBRANCH  18  19
ENDBRANCH  17  18
ENDBRANCH  16  17
BRANCH  16  21
HETATM   21  C           1     -27.313  -6.805 -15.884  0.00  0.00     0.196 C 
HETATM   22  O           1     -27.837  -7.514 -14.999  0.00  0.00    -0.646 OA
HETATM   23  O           1     -26.307  -6.113 -15.616  0.00  0.00    -0.646 OA
ENDBRANCH  16  21
ENDBRANCH   2  16
TORSDOF 9
ENDMDL
MODEL 9
REMARK VINA RESULT:      -5.3     11.004     13.068
REMARK  9 active torsions:
REMARK  status: ('A' for Active; 'I' for Inactive)
REMARK    1  A    between atoms: C_1  and  C_16 
REMARK    2  A    between atoms: C_1  and  C_8 
REMARK    3  A    between atoms: C_4  and  C_8 
REMARK    4  A    between atoms: C_5  and  C_6 
REMARK    5  A    between atoms: C_5  and  C_14 
REMARK    6  A    between atoms: C_5  and  N_11 
REMARK       I    between atoms: C_6  and  N_7 
REMARK    7  A    between atoms: N_7  and  C_8 
REMARK       I    between atoms: N_9  and  C_13 
REMARK    8  A    between atoms: C_13  and  C_14 
REMARK    9  A    between atoms: S_15  and  C_16 
ROOT
HETATM    1  C           1     -22.111  -4.549  -7.665  0.00  0.00     0.249 C 
HETATM    2  N           1     -22.070  -5.770  -7.049  0.00  0.00    -0.345 N 
HETATM    3  O           1     -21.476  -3.624  -7.215  0.00  0.00    -0.271 OA
HETATM    4  H           1     -22.602  -6.545  -7.426  0.00  0.00     0.163 HD
ENDROOT
BRANCH   1   5
HETATM    5  C           1     -22.947  -4.357  -8.907  0.00  0.00     0.283 C 
BRANCH   5   6
HETATM    6  C           1     -22.134  -3.611  -9.957  0.00  0.00     0.145 C 
BRANCH   6   7
HETATM    7  C           1     -22.473  -4.143 -11.328  0.00  0.00     0.217 C 
HETATM    8  N           1     -21.531  -4.130 -12.320  0.00  0.00    -0.370 N 
HETATM    9  H           1     -21.758  -4.487 -13.240  0.00  0.00     0.159 HD
HETATM   10  H           1     -20.606  -3.764 -12.135  0.00  0.00     0.159 HD
HETATM   11  O           1     -23.578  -4.582 -11.549  0.00  0.00    -0.274 OA
ENDBRANCH   6   7
ENDBRANCH   5   6
BRANCH   5  12
HETATM   12  N           1     -24.171  -3.560  -8.565  0.00  0.00    -0.066 N 
HETATM   13  H           1     -24.309  -3.561  -7.529  0.00  0.00     0.275 HD
HETATM   14  H           1     -24.051  -2.578  -8.898  0.00  0.00     0.275 HD
HETATM   15  H           1     -25.005  -3.987  -9.027  0.00  0.00     0.275 HD
ENDBRANCH   5  12
ENDBRANCH   1   5
BRANCH   2  16
HETATM   16  C           1     -21.267  -5.956  -5.856  0.00  0.00     0.186 C 
BRANCH  16  17
HETATM   17  C           1     -22.096  -6.659  -4.790  0.00  0.00     0.046 C 
BRANCH  17  18
HETATM   18  C           1     -21.689  -6.153  -3.413  0.00  0.00     0.076 C 
BRANCH  18  19
HETATM   19  S           1     -21.382  -7.565  -2.315  0.00  0.00    -0.173 SA
HETATM   20  C           1     -22.353  -6.941  -0.914  0.00  0.00     0.089 C 
ENDBRANCH  18  19
ENDBRANCH  17  18
ENDBRANCH  16  17
BRANCH  16  21
HETATM   21  C           1     -20.059  -6.795  -6.191  0.00  0.00     0.196 C 
HETATM   22  O           1     -19.844  -7.857  -5.568  0.00  0.00    -0.646 OA
HETATM   23  O           1     -19.271  -6.428  -7.090  0.00  0.00    -0.646 OA
ENDBRANCH  16  21
ENDBRANCH   2  16
TORSDOF 9
ENDMDL
