MODEL 1
REMARK VINA RESULT:      -6.4      0.000      0.000
REMARK  7 active torsions:
REMARK  status: ('A' for Active; 'I' for Inactive)
REMARK    1  A    between atoms: C_1  and  C_7 
REMARK    2  A    between atoms: C_1  and  C_4 
REMARK    3  A    between atoms: C_1  and  N_13 
REMARK    4  A    between atoms: N_3  and  C_19 
REMARK       I    between atoms: N_13  and  C_20 
REMARK    5  A    between atoms: C_16  and  C_18 
REMARK    6  A    between atoms: C_18  and  C_19 
REMARK    7  A    between atoms: C_19  and  C_20 
ROOT
HETATM    1  O           1     -33.469  -1.915 -10.880  0.00  0.00    -0.271 OA
HETATM    2  H           1     -35.519  -2.349 -13.214  0.00  0.00     0.163 HD
HETATM    3  N           1     -35.003  -1.849 -12.501  0.00  0.00    -0.344 N 
HETATM    4  C           1     -34.084  -2.510 -11.732  0.00  0.00     0.249 C 
ENDROOT
BRANCH   4   5
HETATM    5  C           1     -33.839  -3.984 -11.948  0.00  0.00     0.278 C 
BRANCH   5   6
HETATM    6  N           1     -32.376  -4.218 -12.180  0.00  0.00    -0.066 N 
HETATM    7  H           1     -31.879  -3.301 -12.232  0.00  0.00     0.275 HD
HETATM    8  H           1     -31.984  -4.781 -11.390  0.00  0.00     0.275 HD
HETATM    9  H           1     -32.245  -4.738 -13.077  0.00  0.00     0.275 HD
ENDBRANCH   5   6
BRANCH   5  10
HETATM   10  C           1     -34.289  -4.760 -10.717  0.00  0.00     0.021 C 
HETATM   11  C           1     -35.801  -4.654 -10.574  0.00  0.00     0.012 C 
BRANCH  10  12
HETATM   12  C           1     -33.894  -6.223 -10.869  0.00  0.00     0.002 C 
HETATM   13  C           1     -34.766  -7.082  -9.963  0.00  0.00     0.005 C 
ENDBRANCH  10  12
ENDBRANCH   5  10
ENDBRANCH   4   5
BRANCH   3  14
HETATM   14  C           1     -35.238  -0.434 -12.293  0.00  0.00     0.189 C 
BRANCH  14  15
HETATM   15  C           1     -35.580   0.224 -13.623  0.00  0.00     0.010 C 
HETATM   16  C           1     -34.565   1.321 -13.921  0.00  0.00     0.012 C 
HETATM   17  C           1     -35.540  -0.821 -14.730  0.00  0.00     0.012 C 
ENDBRANCH  14  15
BRANCH  14  18
HETATM   18  C           1     -36.387  -0.251 -11.331  0.00  0.00     0.197 C 
HETATM   19  O           1     -36.304   0.592 -10.411  0.00  0.00    -0.646 OA
HETATM   20  O           1     -37.421  -0.942 -11.454  0.00  0.00    -0.646 OA
ENDBRANCH  14  18
ENDBRANCH   3  14
TORSDOF 7
ENDMDL
MODEL 2
REMARK VINA RESULT:      -6.3      2.310      3.309
REMARK  7 active torsions:
REMARK  status: ('A' for Active; 'I' for Inactive)
REMARK    1  A    between atoms: C_1  and  C_7 
REMARK    2  A    between atoms: C_1  and  C_4 
REMARK    3  A    between atoms: C_1  and  N_13 
REMARK    4  A    between atoms: N_3  and  C_19 
REMARK       I    between atoms: N_13  and  C_20 
REMARK    5  A    between atoms: C_16  and  C_18 
REMARK    6  A    between atoms: C_18  and  C_19 
REMARK    7  A    between atoms: C_19  and  C_20 
ROOT
HETATM    1  O           1     -36.392  -1.451 -12.414  0.00  0.00    -0.271 OA
HETATM    2  H           1     -33.767  -1.100 -14.096  0.00  0.00     0.163 HD
HETATM    3  N           1     -34.751  -1.029 -13.869  0.00  0.00    -0.344 N 
HETATM    4  C           1     -35.218  -1.535 -12.685  0.00  0.00     0.249 C 
ENDROOT
BRANCH   4   5
HETATM    5  C           1     -34.267  -2.199 -11.720  0.00  0.00     0.278 C 
BRANCH   5   6
HETATM    6  N           1     -34.717  -1.935 -10.314  0.00  0.00    -0.066 N 
HETATM    7  H           1     -34.039  -2.364  -9.644  0.00  0.00     0.275 HD
HETATM    8  H           1     -34.761  -0.903 -10.150  0.00  0.00     0.275 HD
HETATM    9  H           1     -35.664  -2.352 -10.168  0.00  0.00     0.275 HD
ENDBRANCH   5   6
BRANCH   5  10
HETATM   10  C           1     -34.251  -3.701 -11.974  0.00  0.00     0.021 C 
HETATM   11  C           1     -32.812  -4.198 -11.987  0.00  0.00     0.012 C 
BRANCH  10  12
HETATM   12  C           1     -35.023  -4.409 -10.870  0.00  0.00     0.002 C 
HETATM   13  C           1     -34.295  -5.688 -10.479  0.00  0.00     0.005 C 
ENDBRANCH  10  12
ENDBRANCH   5  10
ENDBRANCH   4   5
BRANCH   3  14
HETATM   14  C           1     -35.665  -0.391 -14.796  0.00  0.00     0.189 C 
BRANCH  14  15
HETATM   15  C           1     -35.144   0.995 -15.149  0.00  0.00     0.010 C 
HETATM   16  C           1     -36.261   1.809 -15.789  0.00  0.00     0.012 C 
HETATM   17  C           1     -34.667   1.695 -13.882  0.00  0.00     0.012 C 
ENDBRANCH  14  15
BRANCH  14  18
HETATM   18  C           1     -35.771  -1.224 -16.050  0.00  0.00     0.197 C 
HETATM   19  O           1     -34.737  -1.677 -16.588  0.00  0.00    -0.646 OA
HETATM   20  O           1     -36.891  -1.460 -16.551  0.00  0.00    -0.646 OA
ENDBRANCH  14  18
ENDBRANCH   3  14
TORSDOF 7
ENDMDL
MODEL 3
REMARK VINA RESULT:      -6.1     12.349     13.886
REMARK  7 active torsions:
REMARK  status: ('A' for Active; 'I' for Inactive)
REMARK    1  A    between atoms: C_1  and  C_7 
REMARK    2  A    between atoms: C_1  and  C_4 
REMARK    3  A    between atoms: C_1  and  N_13 
REMARK    4  A    between atoms: N_3  and  C_19 
REMARK       I    between atoms: N_13  and  C_20 
REMARK    5  A    between atoms: C_16  and  C_18 
REMARK    6  A    between atoms: C_18  and  C_19 
REMARK    7  A    between atoms: C_19  and  C_20 
ROOT
HETATM    1  O           1     -21.547  -3.134  -7.132  0.00  0.00    -0.271 OA
HETATM    2  H           1     -22.828  -5.567  -8.644  0.00  0.00     0.163 HD
HETATM    3  N           1     -22.484  -4.624  -8.506  0.00  0.00    -0.344 N 
HETATM    4  C           1     -21.957  -4.258  -7.297  0.00  0.00     0.249 C 
ENDROOT
BRANCH   4   5
HETATM    5  C           1     -21.890  -5.258  -6.169  0.00  0.00     0.278 C 
BRANCH   5   6
HETATM    6  N           1     -23.281  -5.646  -5.762  0.00  0.00    -0.066 N 
HETATM    7  H           1     -23.886  -5.714  -6.611  0.00  0.00     0.275 HD
HETATM    8  H           1     -23.256  -6.572  -5.278  0.00  0.00     0.275 HD
HETATM    9  H           1     -23.668  -4.924  -5.114  0.00  0.00     0.275 HD
ENDBRANCH   5   6
BRANCH   5  10
HETATM   10  C           1     -21.133  -6.496  -6.632  0.00  0.00     0.021 C 
HETATM   11  C           1     -19.652  -6.167  -6.760  0.00  0.00     0.012 C 
BRANCH  10  12
HETATM   12  C           1     -21.318  -7.613  -5.613  0.00  0.00     0.002 C 
HETATM   13  C           1     -19.971  -7.968  -4.997  0.00  0.00     0.005 C 
ENDBRANCH  10  12
ENDBRANCH   5  10
ENDBRANCH   4   5
BRANCH   3  14
HETATM   14  C           1     -22.548  -3.663  -9.590  0.00  0.00     0.189 C 
BRANCH  14  15
HETATM   15  C           1     -21.612  -4.098 -10.709  0.00  0.00     0.010 C 
HETATM   16  C           1     -21.226  -2.886 -11.546  0.00  0.00     0.012 C 
HETATM   17  C           1     -20.359  -4.722 -10.108  0.00  0.00     0.012 C 
ENDBRANCH  14  15
BRANCH  14  18
HETATM   18  C           1     -23.961  -3.592 -10.115  0.00  0.00     0.197 C 
HETATM   19  O           1     -24.282  -4.238 -11.136  0.00  0.00    -0.646 OA
HETATM   20  O           1     -24.811  -2.887  -9.529  0.00  0.00    -0.646 OA
ENDBRANCH  14  18
ENDBRANCH   3  14
TORSDOF 7
ENDMDL
MODEL 4
REMARK VINA RESULT:      -6.0     10.141     11.655
REMARK  7 active torsions:
REMARK  status: ('A' for Active; 'I' for Inactive)
REMARK    1  A    between atoms: C_1  and  C_7 
REMARK    2  A    between atoms: C_1  and  C_4 
REMARK    3  A    between atoms: C_1  and  N_13 
REMARK    4  A    between atoms: N_3  and  C_19 
REMARK       I    between atoms: N_13  and  C_20 
REMARK    5  A    between atoms: C_16  and  C_18 
REMARK    6  A    between atoms: C_18  and  C_19 
REMARK    7  A    between atoms: C_19  and  C_20 
ROOT
HETATM    1  O           1     -25.609  -5.913 -16.570  0.00  0.00    -0.271 OA
HETATM    2  H           1     -27.552  -6.794 -18.870  0.00  0.00     0.163 HD
HETATM    3  N           1     -27.271  -6.475 -17.951  0.00  0.00    -0.344 N 
HETATM    4  C           1     -25.944  -6.293 -17.665  0.00  0.00     0.249 C 
ENDROOT
BRANCH   4   5
HETATM    5  C           1     -24.901  -6.568 -18.721  0.00  0.00     0.278 C 
BRANCH   5   6
HETATM    6  N           1     -23.971  -7.640 -18.235  0.00  0.00    -0.066 N 
HETATM    7  H           1     -24.508  -8.344 -17.681  0.00  0.00     0.275 HD
HETATM    8  H           1     -23.523  -8.109 -19.055  0.00  0.00     0.275 HD
HETATM    9  H           1     -23.232  -7.212 -17.632  0.00  0.00     0.275 HD
ENDBRANCH   5   6
BRANCH   5  10
HETATM   10  C           1     -25.584  -7.031 -20.002  0.00  0.00     0.021 C 
HETATM   11  C           1     -25.702  -5.858 -20.966  0.00  0.00     0.012 C 
BRANCH  10  12
HETATM   12  C           1     -24.757  -8.136 -20.645  0.00  0.00     0.002 C 
HETATM   13  C           1     -24.320  -7.700 -22.037  0.00  0.00     0.005 C 
ENDBRANCH  10  12
ENDBRANCH   5  10
ENDBRANCH   4   5
BRANCH   3  14
HETATM   14  C           1     -28.273  -6.210 -16.937  0.00  0.00     0.189 C 
BRANCH  14  15
HETATM   15  C           1     -29.555  -5.729 -17.604  0.00  0.00     0.010 C 
HETATM   16  C           1     -30.492  -5.158 -16.548  0.00  0.00     0.012 C 
HETATM   17  C           1     -29.220  -4.649 -18.625  0.00  0.00     0.012 C 
ENDBRANCH  14  15
BRANCH  14  18
HETATM   18  C           1     -28.553  -7.476 -16.164  0.00  0.00     0.197 C 
HETATM   19  O           1     -28.056  -7.637 -15.028  0.00  0.00    -0.646 OA
HETATM   20  O           1     -29.280  -8.363 -16.660  0.00  0.00    -0.646 OA
ENDBRANCH  14  18
ENDBRANCH   3  14
TORSDOF 7
ENDMDL
MODEL 5
REMARK VINA RESULT:      -5.6     14.109     16.471
REMARK  7 active torsions:
REMARK  status: ('A' for Active; 'I' for Inactive)
REMARK    1  A    between atoms: C_1  and  C_7 
REMARK    2  A    between atoms: C_1  and  C_4 
REMARK    3  A    between atoms: C_1  and  N_13 
REMARK    4  A    between atoms: N_3  and  C_19 
REMARK       I    between atoms: N_13  and  C_20 
REMARK    5  A    between atoms: C_16  and  C_18 
REMARK    6  A    between atoms: C_18  and  C_19 
REMARK    7  A    between atoms: C_19  and  C_20 
ROOT
HETATM    1  O           1     -22.847  -5.774  -5.689  0.00  0.00    -0.271 OA
HETATM    2  H           1     -19.875  -6.291  -4.827  0.00  0.00     0.163 HD
HETATM    3  N           1     -20.881  -6.409  -4.843  0.00  0.00    -0.344 N 
HETATM    4  C           1     -21.648  -5.634  -5.670  0.00  0.00     0.249 C 
ENDROOT
BRANCH   4   5
HETATM    5  C           1     -20.996  -4.603  -6.558  0.00  0.00     0.278 C 
BRANCH   5   6
HETATM    6  N           1     -19.506  -4.679  -6.400  0.00  0.00    -0.066 N 
HETATM    7  H           1     -19.228  -5.661  -6.175  0.00  0.00     0.275 HD
HETATM    8  H           1     -19.046  -4.382  -7.290  0.00  0.00     0.275 HD
HETATM    9  H           1     -19.206  -4.046  -5.624  0.00  0.00     0.275 HD
ENDBRANCH   5   6
BRANCH   5  10
HETATM   10  C           1     -21.366  -4.875  -8.011  0.00  0.00     0.021 C 
HETATM   11  C           1     -22.359  -3.824  -8.487  0.00  0.00     0.012 C 
BRANCH  10  12
HETATM   12  C           1     -20.112  -4.816  -8.872  0.00  0.00     0.002 C 
HETATM   13  C           1     -20.484  -4.386 -10.285  0.00  0.00     0.005 C 
ENDBRANCH  10  12
ENDBRANCH   5  10
ENDBRANCH   4   5
BRANCH   3  14
HETATM   14  C           1     -21.508  -7.399  -3.989  0.00  0.00     0.189 C 
BRANCH  14  15
HETATM   15  C           1     -20.671  -8.671  -3.989  0.00  0.00     0.010 C 
HETATM   16  C           1     -21.557  -9.861  -4.335  0.00  0.00     0.012 C 
HETATM   17  C           1     -19.559  -8.547  -5.023  0.00  0.00     0.012 C 
ENDBRANCH  14  15
BRANCH  14  18
HETATM   18  C           1     -21.606  -6.861  -2.583  0.00  0.00     0.197 C 
HETATM   19  O           1     -22.389  -5.921  -2.327  0.00  0.00    -0.646 OA
HETATM   20  O           1     -20.905  -7.355  -1.675  0.00  0.00    -0.646 OA
ENDBRANCH  14  18
ENDBRANCH   3  14
TORSDOF 7
ENDMDL
MODEL 6
REMARK VINA RESULT:      -5.5     14.035     16.440
REMARK  7 active torsions:
REMARK  status: ('A' for Active; 'I' for Inactive)
REMARK    1  A    between atoms: C_1  and  C_7 
REMARK    2  A    between atoms: C_1  and  C_4 
REMARK    3  A    between atoms: C_1  and  N_13 
REMARK    4  A    between atoms: N_3  and  C_19 
REMARK       I    between atoms: N_13  and  C_20 
REMARK    5  A    between atoms: C_16  and  C_18 
REMARK    6  A    between atoms: C_18  and  C_19 
REMARK    7  A    between atoms: C_19  and  C_20 
ROOT
HETATM    1  O           1     -19.928  -4.893  -5.948  0.00  0.00    -0.271 OA
HETATM    2  H           1     -22.420  -6.797  -5.872  0.00  0.00     0.163 HD
HETATM    3  N           1     -21.492  -6.459  -5.650  0.00  0.00    -0.344 N 
HETATM    4  C           1     -21.034  -5.297  -6.212  0.00  0.00     0.249 C 
ENDROOT
BRANCH   4   5
HETATM    5  C           1     -21.912  -4.523  -7.164  0.00  0.00     0.278 C 
BRANCH   5   6
HETATM    6  N           1     -21.560  -3.066  -7.096  0.00  0.00    -0.066 N 
HETATM    7  H           1     -20.571  -2.931  -7.407  0.00  0.00     0.275 HD
HETATM    8  H           1     -22.198  -2.524  -7.721  0.00  0.00     0.275 HD
HETATM    9  H           1     -21.664  -2.728  -6.113  0.00  0.00     0.275 HD
ENDBRANCH   5   6
BRANCH   5  10
HETATM   10  C           1     -21.696  -5.031  -8.584  0.00  0.00     0.021 C 
HETATM   11  C           1     -22.868  -4.607  -9.459  0.00  0.00     0.012 C 
BRANCH  10  12
HETATM   12  C           1     -20.407  -4.442  -9.141  0.00  0.00     0.002 C 
HETATM   13  C           1     -20.592  -4.119 -10.618  0.00  0.00     0.005 C 
ENDBRANCH  10  12
ENDBRANCH   5  10
ENDBRANCH   4   5
BRANCH   3  14
HETATM   14  C           1     -20.648  -7.203  -4.736  0.00  0.00     0.189 C 
BRANCH  14  15
HETATM   15  C           1     -21.424  -7.501  -3.460  0.00  0.00     0.010 C 
HETATM   16  C           1     -20.553  -8.323  -2.518  0.00  0.00     0.012 C 
HETATM   17  C           1     -21.810  -6.192  -2.783  0.00  0.00     0.012 C 
ENDBRANCH  14  15
BRANCH  14  18
HETATM   18  C           1     -20.227  -8.499  -5.383  0.00  0.00     0.197 C 
HETATM   19  O           1     -21.089  -9.341  -5.716  0.00  0.00    -0.646 OA
HETATM   20  O           1     -19.016  -8.731  -5.587  0.00  0.00    -0.646 OA
ENDBRANCH  14  18
ENDBRANCH   3  14
TORSDOF 7
ENDMDL
MODEL 7
REMARK VINA RESULT:      -5.4     15.941     17.850
REMARK  7 active torsions:
REMARK  status: ('A' for Active; 'I' for Inactive)
REMARK    1  A    between atoms: C_1  and  C_7 
REMARK    2  A    between atoms: C_1  and  C_4 
REMARK    3  A    between atoms: C_1  and  N_13 
REMARK    4  A    between atoms: N_3  and  C_19 
REMARK       I    between atoms: N_13  and  C_20 
REMARK    5  A    between atoms: C_16  and  C_18 
REMARK    6  A    between atoms: C_18  and  C_19 
REMARK    7  A    between atoms: C_19  and  C_20 
ROOT
HETATM    1  O           1     -22.391 -10.580  -3.895  0.00  0.00    -0.271 OA
HETATM    2  H           1     -20.739  -8.561  -2.153  0.00  0.00     0.163 HD
HETATM    3  N           1     -21.168  -8.949  -2.984  0.00  0.00    -0.344 N 
HETATM    4  C           1     -21.879 -10.117  -2.905  0.00  0.00     0.249 C 
ENDROOT
BRANCH   4   5
HETATM    5  C           1     -22.022 -10.825  -1.580  0.00  0.00     0.278 C 
BRANCH   5   6
HETATM    6  N           1     -20.704 -10.813  -0.863  0.00  0.00    -0.066 N 
HETATM    7  H           1     -19.954 -11.152  -1.506  0.00  0.00     0.275 HD
HETATM    8  H           1     -20.484  -9.839  -0.555  0.00  0.00     0.275 HD
HETATM    9  H           1     -20.757 -11.439  -0.028  0.00  0.00     0.275 HD
ENDBRANCH   5   6
BRANCH   5  10
HETATM   10  C           1     -23.067 -10.111  -0.732  0.00  0.00     0.021 C 
HETATM   11  C           1     -23.978 -11.141  -0.077  0.00  0.00     0.012 C 
BRANCH  10  12
HETATM   12  C           1     -22.371  -9.290   0.345  0.00  0.00     0.002 C 
HETATM   13  C           1     -23.090  -7.958   0.513  0.00  0.00     0.005 C 
ENDBRANCH  10  12
ENDBRANCH   5  10
ENDBRANCH   4   5
BRANCH   3  14
HETATM   14  C           1     -21.031  -8.269  -4.257  0.00  0.00     0.189 C 
BRANCH  14  15
HETATM   15  C           1     -21.284  -6.780  -4.066  0.00  0.00     0.010 C 
HETATM   16  C           1     -22.383  -6.327  -5.018  0.00  0.00     0.012 C 
HETATM   17  C           1     -21.717  -6.520  -2.629  0.00  0.00     0.012 C 
ENDBRANCH  14  15
BRANCH  14  18
HETATM   18  C           1     -19.635  -8.478  -4.790  0.00  0.00     0.197 C 
HETATM   19  O           1     -19.377  -8.219  -5.986  0.00  0.00    -0.646 OA
HETATM   20  O           1     -18.736  -8.909  -4.037  0.00  0.00    -0.646 OA
ENDBRANCH  14  18
ENDBRANCH   3  14
TORSDOF 7
ENDMDL
MODEL 8
REMARK VINA RESULT:      -5.1     15.269     17.742
REMARK  7 active torsions:
REMARK  status: ('A' for Active; 'I' for Inactive)
REMARK    1  A    between atoms: C_1  and  C_7 
REMARK    2  A    between atoms: C_1  and  C_4 
REMARK    3  A    between atoms: C_1  and  N_13 
REMARK    4  A    between atoms: N_3  and  C_19 
REMARK       I    between atoms: N_13  and  C_20 
REMARK    5  A    between atoms: C_16  and  C_18 
REMARK    6  A    between atoms: C_18  and  C_19 
REMARK    7  A    between atoms: C_19  and  C_20 
ROOT
HETATM    1  O           1     -19.326  -8.666  -3.136  0.00  0.00    -0.271 OA
HETATM    2  H           1     -22.394  -8.028  -3.285  0.00  0.00     0.163 HD
HETATM    3  N           1     -21.528  -8.380  -2.897  0.00  0.00    -0.344 N 
HETATM    4  C           1     -20.360  -8.246  -3.599  0.00  0.00     0.249 C 
ENDROOT
BRANCH   4   5
HETATM    5  C           1     -20.364  -7.575  -4.950  0.00  0.00     0.278 C 
BRANCH   5   6
HETATM    6  N           1     -21.179  -8.390  -5.910  0.00  0.00    -0.066 N 
HETATM    7  H           1     -21.340  -9.342  -5.510  0.00  0.00     0.275 HD
HETATM    8  H           1     -22.099  -7.921  -6.071  0.00  0.00     0.275 HD
HETATM    9  H           1     -20.667  -8.475  -6.817  0.00  0.00     0.275 HD
ENDBRANCH   5   6
BRANCH   5  10
HETATM   10  C           1     -20.970  -6.183  -4.825  0.00  0.00     0.021 C 
HETATM   11  C           1     -20.067  -5.172  -5.518  0.00  0.00     0.012 C 
BRANCH  10  12
HETATM   12  C           1     -22.344  -6.169  -5.479  0.00  0.00     0.002 C 
HETATM   13  C           1     -22.384  -5.093  -6.556  0.00  0.00     0.005 C 
ENDBRANCH  10  12
ENDBRANCH   5  10
ENDBRANCH   4   5
BRANCH   3  14
HETATM   14  C           1     -21.524  -9.025  -1.599  0.00  0.00     0.189 C 
BRANCH  14  15
HETATM   15  C           1     -22.322  -8.184  -0.612  0.00  0.00     0.010 C 
HETATM   16  C           1     -21.675  -8.266   0.764  0.00  0.00     0.012 C 
HETATM   17  C           1     -22.339  -6.734  -1.080  0.00  0.00     0.012 C 
ENDBRANCH  14  15
BRANCH  14  18
HETATM   18  C           1     -22.150 -10.393  -1.715  0.00  0.00     0.197 C 
HETATM   19  O           1     -21.494 -11.342  -2.198  0.00  0.00    -0.646 OA
HETATM   20  O           1     -23.324 -10.578  -1.330  0.00  0.00    -0.646 OA
ENDBRANCH  14  18
ENDBRANCH   3  14
TORSDOF 7
ENDMDL
MODEL 9
REMARK VINA RESULT:      -5.1     17.425     19.300
REMARK  7 active torsions:
REMARK  status: ('A' for Active; 'I' for Inactive)
REMARK    1  A    between atoms: C_1  and  C_7 
REMARK    2  A    between atoms: C_1  and  C_4 
REMARK    3  A    between atoms: C_1  and  N_13 
REMARK    4  A    between atoms: N_3  and  C_19 
REMARK       I    between atoms: N_13  and  C_20 
REMARK    5  A    between atoms: C_16  and  C_18 
REMARK    6  A    between atoms: C_18  and  C_19 
REMARK    7  A    between atoms: C_19  and  C_20 
ROOT
HETATM    1  O           1     -20.888 -10.448  -3.045  0.00  0.00    -0.271 OA
HETATM    2  H           1     -19.742  -8.380  -0.983  0.00  0.00     0.163 HD
HETATM    3  N           1     -20.431  -8.840  -1.564  0.00  0.00    -0.344 N 
HETATM    4  C           1     -20.066  -9.899  -2.351  0.00  0.00     0.249 C 
ENDROOT
BRANCH   4   5
HETATM    5  C           1     -18.636 -10.379  -2.354  0.00  0.00     0.278 C 
BRANCH   5   6
HETATM    6  N           1     -18.573 -11.760  -2.936  0.00  0.00    -0.066 N 
HETATM    7  H           1     -17.602 -11.955  -3.269  0.00  0.00     0.275 HD
HETATM    8  H           1     -18.837 -12.459  -2.205  0.00  0.00     0.275 HD
HETATM    9  H           1     -19.238 -11.829  -3.740  0.00  0.00     0.275 HD
ENDBRANCH   5   6
BRANCH   5  10
HETATM   10  C           1     -17.784  -9.436  -3.193  0.00  0.00     0.021 C 
HETATM   11  C           1     -16.319  -9.600  -2.812  0.00  0.00     0.012 C 
BRANCH  10  12
HETATM   12  C           1     -17.965  -9.767  -4.668  0.00  0.00     0.002 C 
HETATM   13  C           1     -16.601  -9.949  -5.321  0.00  0.00     0.005 C 
ENDBRANCH  10  12
ENDBRANCH   5  10
ENDBRANCH   4   5
BRANCH   3  14
HETATM   14  C           1     -21.806  -8.378  -1.562  0.00  0.00     0.189 C 
BRANCH  14  15
HETATM   15  C           1     -22.397  -8.551  -0.169  0.00  0.00     0.010 C 
HETATM   16  C           1     -23.257  -9.807  -0.136  0.00  0.00     0.012 C 
HETATM   17  C           1     -21.269  -8.680   0.847  0.00  0.00     0.012 C 
ENDBRANCH  14  15
BRANCH  14  18
HETATM   18  C           1     -21.847  -6.921  -1.949  0.00  0.00     0.197 C 
HETATM   19  O           1     -21.260  -6.531  -2.982  0.00  0.00    -0.646 OA
HETATM   20  O           1     -22.466  -6.102  -1.236  0.00  0.00    -0.646 OA
ENDBRANCH  14  18
ENDBRANCH   3  14
TORSDOF 7
ENDMDL
